# generated using pymatgen
data_CuH12C14(N4Cl)2
_symmetry_space_group_name_H-M   'P 1'
_cell_length_a   8.83136543
_cell_length_b   9.61520458
_cell_length_c   10.22908366
_cell_angle_alpha   91.80435046
_cell_angle_beta   105.32299985
_cell_angle_gamma   100.78507888
_symmetry_Int_Tables_number   1
_chemical_formula_structural   CuH12C14(N4Cl)2
_chemical_formula_sum   'Cu2 H24 C28 N16 Cl4'
_cell_volume   819.92281613
_cell_formula_units_Z   2
loop_
 _symmetry_equiv_pos_site_id
 _symmetry_equiv_pos_as_xyz
  1  'x, y, z'
loop_
 _atom_site_type_symbol
 _atom_site_label
 _atom_site_symmetry_multiplicity
 _atom_site_fract_x
 _atom_site_fract_y
 _atom_site_fract_z
 _atom_site_occupancy
 _atom_site_hle17_ddec_charge
 _atom_site_hle17_ddec_spin_density
 _atom_site_hle17_ddec_sum_bond_order
 _atom_site_hle17_magmom
 _atom_site_hse06_10hf_ddec_charge
 _atom_site_hse06_10hf_ddec_spin_density
 _atom_site_hse06_10hf_ddec_sum_bond_order
 _atom_site_hse06_10hf_magmom
 _atom_site_hse06_ddec_charge
 _atom_site_hse06_ddec_spin_density
 _atom_site_hse06_ddec_sum_bond_order
 _atom_site_hse06_magmom
 _atom_site_pbe_cm5_charge
 _atom_site_pbe_ddec_charge
 _atom_site_pbe_ddec_spin_density
 _atom_site_pbe_ddec_sum_bond_order
 _atom_site_pbe_magmom
Cu  Cu0  1  0.68096040  0.62673967  0.13232919  1  0.715846  -0.626139  1.98299  -0.453  0.695717  -0.732063  2.394003  -0.574  0.787219  -0.800641  2.316996  -0.66  0.597829  0.644478  -0.686463  2.441693  -0.522
Cu  Cu1  1  0.31903383  0.37326192  0.86766973  1  0.715801  -0.62612  1.983025  -0.453  0.695659  -0.732035  2.394051  -0.574  0.787204  -0.800628  2.317037  -0.66  0.597811  0.644453  -0.686463  2.441705  -0.522
H  H2  1  0.58682908  0.30229722  0.14546524  1  0.082055  -0.000629  0.989659  -0.002  0.088516  -0.000797  1.058484  -0.002  0.090738  -0.00049  1.056351  -0.001  0.100045  0.086634  -0.000869  1.060146  -0.002
H  H3  1  0.41316606  0.69770331  0.85453189  1  0.082083  -0.000628  0.98962  -0.002  0.088559  -0.000798  1.058402  -0.002  0.090782  -0.000489  1.056267  -0.001  0.100053  0.086679  -0.000869  1.060064  -0.002
H  H4  1  0.73368931  0.09813421  0.16670520  1  0.106178  -0.002004  0.983911  0.0  0.116083  -0.001764  1.046833  0.0  0.120359  -0.001361  1.044714  0.0  0.095534  0.112683  -0.001689  1.049448  -0.001
H  H5  1  0.26630818  0.90186630  0.83329344  1  0.1062  -0.002004  0.983873  0.0  0.1161  -0.001764  1.046804  0.0  0.120378  -0.001361  1.044679  0.0  0.095528  0.112702  -0.001689  1.049419  -0.001
H  H6  1  0.02855205  0.15171026  0.19798095  1  0.09691  -0.000132  0.989967  0.0  0.099724  3e-05  1.064424  0.0  0.103207  6.4e-05  1.061107  0.0  0.105133  0.098147  -0.000112  1.065219  0.0
H  H7  1  0.97144713  0.84829232  0.80202206  1  0.096828  -0.000131  0.990051  0.0  0.099647  3e-05  1.064508  0.0  0.103129  6.4e-05  1.061191  0.0  0.1051  0.09807  -0.000112  1.065303  0.0
H  H8  1  0.16750965  0.40462643  0.19032702  1  0.123521  -0.00275  0.957452  -0.001  0.136989  -0.002452  1.014035  -0.001  0.140456  -0.00186  1.013341  -0.001  0.100363  0.134278  -0.002787  1.01489  -0.001
H  H9  1  0.83248770  0.59537826  0.80967957  1  0.123509  -0.002749  0.957425  -0.001  0.13696  -0.002453  1.014036  -0.001  0.140433  -0.00186  1.013325  -0.001  0.100363  0.134251  -0.002787  1.014887  -0.001
H  H10  1  0.27963317  0.68657361  0.18205624  1  0.145857  0.000228  0.961231  0.0  0.155774  -4.7e-05  1.023042  0.0  0.160402  -3.9e-05  1.018974  0.0  0.123391  0.152348  -3.8e-05  1.026148  0.0
H  H11  1  0.72036367  0.31342893  0.81795210  1  0.14578  0.000231  0.961165  0.0  0.155677  -4.8e-05  1.023008  0.0  0.160305  -3.9e-05  1.018937  0.0  0.12337  0.15225  -3.8e-05  1.026112  0.0
H  H12  1  0.19308194  0.04210700  0.07338255  1  0.110656  0.000193  0.935959  0.0  0.115795  5.2e-05  1.01345  0.0  0.117743  7.6e-05  1.011589  0.0  0.119928  0.11446  2.7e-05  1.014524  0.0
H  H13  1  0.80691789  0.95789350  0.92661563  1  0.110671  0.00019  0.935987  0.0  0.115816  5.2e-05  1.013448  0.0  0.117764  7.6e-05  1.011588  0.0  0.11994  0.114482  2.7e-05  1.014522  0.0
H  H14  1  0.34751225  0.94227122  0.10749388  1  0.106735  -0.001324  0.954972  0.0  0.120442  -0.001355  1.020636  0.0  0.123147  -0.001027  1.01869  0.0  0.106784  0.118368  -0.001541  1.022403  0.0
H  H15  1  0.65248473  0.05772717  0.89250358  1  0.106729  -0.001321  0.954941  0.0  0.120434  -0.001355  1.020611  0.0  0.123139  -0.001027  1.018661  0.0  0.106774  0.118362  -0.001541  1.022376  0.0
H  H16  1  0.56715248  0.07038875  0.28131618  1  0.101933  -0.000523  0.979307  0.0  0.112758  -0.000531  1.040798  0.0  0.116026  -0.000405  1.039795  0.0  0.098295  0.110497  -0.000541  1.041596  0.0
H  H17  1  0.43284373  0.92960651  0.71867610  1  0.101997  -0.000523  0.979253  0.0  0.112768  -0.000531  1.040784  0.0  0.116017  -0.000405  1.039805  0.0  0.098312  0.110509  -0.000541  1.041582  0.0
H  H18  1  0.67313578  0.22213303  0.50388153  1  0.091283  6e-06  0.949507  0.0  0.101042  1.2e-05  1.011306  0.0  0.103201  9e-06  1.009653  0.0  0.102697  0.099643  1.6e-05  1.012233  0.0
H  H19  1  0.32686905  0.77785897  0.49611256  1  0.091298  4e-06  0.949415  0.0  0.101071  1.2e-05  1.011233  0.0  0.10323  9e-06  1.009581  0.0  0.102698  0.099674  1.6e-05  1.012161  0.0
H  H20  1  0.47666431  0.27667705  0.62717910  1  0.105725  0.000384  0.987799  0.0  0.111055  0.000229  1.059006  0.0  0.114683  0.000195  1.057414  0.0  0.093009  0.10827  0.000235  1.060542  0.0
H  H21  1  0.52334439  0.72332126  0.37282002  1  0.105751  0.000385  0.987902  0.0  0.111068  0.000228  1.05911  0.0  0.114695  0.000195  1.05752  0.0  0.093003  0.108283  0.000235  1.060646  0.0
H  H22  1  0.02955739  0.14883266  0.47212595  1  0.089242  -1.1e-05  0.91615  0.0  0.103999  -3e-06  0.974863  0.0  0.104883  -5e-06  0.974016  0.0  0.111892  0.103281  -3e-06  0.975444  0.0
H  H23  1  0.97044855  0.85116885  0.52787463  1  0.089268  -1.1e-05  0.916253  0.0  0.104039  -3e-06  0.974936  0.0  0.10492  -5e-06  0.97409  0.0  0.111915  0.103321  -3e-06  0.975524  0.0
H  H24  1  0.15072693  0.10776328  0.62955259  1  0.102384  0.0002  0.917066  0.0  0.112259  0.000153  0.984392  0.0  0.114317  0.000138  0.982155  0.0  0.113031  0.110476  0.000176  0.986437  0.0
H  H25  1  0.84927775  0.89223293  0.37044652  1  0.102328  0.000203  0.916992  0.0  0.112217  0.000153  0.984321  0.0  0.114272  0.000139  0.982085  0.0  0.113021  0.110435  0.000176  0.986364  0.0
C  C26  1  0.71482310  0.31861216  0.15553314  1  0.141966  0.008832  3.700059  0.007  0.114191  0.002448  3.947725  0.002  0.124513  0.004063  3.966319  0.003  0.045478  0.107373  0.00121  3.935986  0.001
C  C27  1  0.28517297  0.68138726  0.84446806  1  0.141901  0.008817  3.699891  0.007  0.114125  0.002448  3.947568  0.002  0.12445  0.004066  3.966157  0.003  0.045454  0.107306  0.001211  3.935832  0.001
C  C28  1  0.79748591  0.20742172  0.16948554  1  -0.126085  -0.00751  3.709048  -0.008  -0.135879  -0.003882  3.954068  -0.005  -0.144247  -0.003448  3.973477  -0.004  -0.088558  -0.130102  -0.005277  3.941596  -0.006
C  C29  1  0.20250949  0.79257988  0.83051168  1  -0.126135  -0.007497  3.708796  -0.008  -0.135934  -0.003883  3.953833  -0.005  -0.144302  -0.00345  3.973238  -0.004  -0.088575  -0.13016  -0.005277  3.941365  -0.006
C  C30  1  0.96181722  0.23713045  0.18333789  1  0.000118  0.008966  3.714953  0.006  -0.022852  0.00372  3.972593  0.002  -0.017825  0.004394  3.99001  0.003  -0.074148  -0.026393  0.00306  3.959699  0.002
C  C31  1  0.03817961  0.76287215  0.81666557  1  0.000233  0.008943  3.714875  0.006  -0.022743  0.003722  3.972506  0.002  -0.017721  0.004395  3.989932  0.003  -0.074154  -0.026287  0.00306  3.959614  0.002
C  C32  1  0.03926240  0.37678950  0.18098014  1  -0.143421  -0.007759  3.682856  -0.008  -0.163134  -0.004679  3.927325  -0.006  -0.171983  -0.003938  3.948263  -0.005  -0.085778  -0.156538  -0.005449  3.912604  -0.006
C  C33  1  0.96073234  0.62321419  0.81902093  1  -0.143292  -0.007739  3.682812  -0.008  -0.163024  -0.00468  3.927222  -0.006  -0.171869  -0.003939  3.948163  -0.005  -0.085688  -0.156429  -0.005449  3.912496  -0.006
C  C34  1  0.94840861  0.48245439  0.16423129  1  0.192104  0.004749  3.798019  0.003  0.189511  0.000638  4.042972  0.0  0.198682  0.002238  4.06516  0.002  0.114447  0.183455  -0.000542  4.0276  -0.001
C  C35  1  0.05158654  0.51754608  0.83577268  1  0.191709  0.004721  3.798278  0.003  0.189261  0.000637  4.043052  0.0  0.198431  0.002239  4.065242  0.002  0.114345  0.183205  -0.000542  4.027675  -0.001
C  C36  1  0.01148181  0.63091559  0.15444853  1  0.072322  0.000607  3.821515  -0.001  0.064492  -0.000552  4.089246  -0.002  0.064481  0.000621  4.112497  -0.001  0.093818  0.064472  -0.001509  4.074007  -0.003
C  C37  1  0.98851242  0.36908593  0.84555723  1  0.072632  0.000636  3.82131  -0.001  0.064684  -0.000549  4.089075  -0.002  0.064675  0.000618  4.112327  -0.001  0.093849  0.064663  -0.001508  4.073831  -0.003
C  C38  1  0.16165972  0.71276944  0.16557458  1  -0.044621  -0.00085  3.543634  -0.001  -0.104004  -0.00065  3.786286  0.0  -0.100978  -0.0006  3.799812  0.0  0.04333  -0.10571  -0.000636  3.777101  0.0
C  C39  1  0.83833660  0.28723103  0.83442868  1  -0.044511  -0.000881  3.543315  -0.001  -0.103813  -0.000649  3.785964  0.0  -0.100784  -0.000597  3.799486  0.0  0.043411  -0.105534  -0.000636  3.776816  0.0
C  C40  1  0.25255782  0.97358339  0.14543781  1  -0.107607  -0.002119  3.626546  -0.002  -0.182643  -0.00204  3.861628  -0.002  -0.180956  -0.001507  3.869979  -0.002  -0.043228  -0.183403  -0.002312  3.855836  -0.003
C  C41  1  0.74744368  0.02641922  0.85456181  1  -0.107709  -0.002119  3.626454  -0.002  -0.182725  -0.002039  3.861548  -0.002  -0.181049  -0.001507  3.869925  -0.002  -0.043238  -0.183479  -0.002312  3.855744  -0.003
C  C42  1  0.32196933  0.05016760  0.28633607  1  0.238318  0.000239  3.742258  0.0  0.245225  7.8e-05  3.992658  0.0  0.251158  0.000152  4.013084  0.0  0.114803  0.240946  2.8e-05  3.978797  0.0
C  C43  1  0.67802983  0.94983505  0.71366107  1  0.238418  0.000287  3.742034  0.0  0.245351  7.9e-05  3.992375  0.0  0.251285  0.000152  4.012793  0.0  0.114858  0.241072  2.8e-05  3.978518  0.0
C  C44  1  0.48710373  0.09869501  0.33758987  1  -0.157598  -0.000668  3.713978  -0.001  -0.175128  -0.000612  3.9549  -0.001  -0.18189  -0.00044  3.976843  -0.001  -0.087509  -0.170426  -0.000637  3.939442  -0.001
C  C45  1  0.51289508  0.90130129  0.66240303  1  -0.157673  -0.000706  3.713872  -0.001  -0.175115  -0.000611  3.954795  -0.001  -0.181862  -0.000441  3.976744  -0.001  -0.087509  -0.170413  -0.000637  3.939341  -0.001
C  C46  1  0.54503556  0.18126463  0.46157622  1  0.004201  0.0001  3.746799  0.0  -0.01535  2.7e-05  4.000386  0.0  -0.012997  5.8e-05  4.020899  0.0  -0.07264  -0.016157  2e-05  3.98557  0.0
C  C47  1  0.45496895  0.81873591  0.53841618  1  0.004161  0.000155  3.746571  0.0  -0.01548  2.5e-05  4.000245  0.0  -0.013125  6e-05  4.020754  0.0  -0.0727  -0.016286  2e-05  3.985431  0.0
C  C48  1  0.43704059  0.21099029  0.53079764  1  -0.159227  -7e-05  3.705474  0.0  -0.177537  -1.6e-05  3.948819  0.0  -0.18471  9e-06  3.971391  0.0  -0.08953  -0.172428  -7.7e-05  3.933286  0.0
C  C49  1  0.56296601  0.78900914  0.46919714  1  -0.159273  -0.000113  3.705429  0.0  -0.177534  -1.5e-05  3.94874  0.0  -0.184709  8e-06  3.971315  0.0  -0.0895  -0.172422  -7.7e-05  3.933209  0.0
C  C50  1  0.27387139  0.15307269  0.47417460  1  0.229737  3.5e-05  3.742552  0.0  0.237656  1.6e-05  3.989077  0.0  0.24307  4.2e-05  4.010096  0.0  0.114142  0.233746  -4e-06  3.974868  0.0
C  C51  1  0.72613271  0.84693098  0.52582370  1  0.22981  8.3e-05  3.742518  0.0  0.237733  1.6e-05  3.989033  0.0  0.243145  4.4e-05  4.010052  0.0  0.11417  0.233825  -4e-06  3.974821  0.0
C  C52  1  0.14914563  0.17598604  0.54518392  1  -0.052642  -6e-05  3.668713  0.0  -0.109032  -0.0  3.938892  0.0  -0.104151  -6e-06  3.945939  0.0  -0.046998  -0.111933  -5e-06  3.934338  0.0
C  C53  1  0.85085905  0.82401014  0.45481812  1  -0.052652  -6.5e-05  3.668859  0.0  -0.109044  0.0  3.939063  0.0  -0.10415  -6e-06  3.946092  0.0  -0.04703  -0.111954  -5e-06  3.934522  0.0
N  N54  1  0.78865050  0.45312727  0.15300509  1  -0.331771  -0.066825  3.311656  -0.084  -0.279371  -0.053727  3.587985  -0.072  -0.311666  -0.044756  3.61265  -0.064  -0.336175  -0.259019  -0.060323  3.572328  -0.077
N  N55  1  0.21134582  0.54687321  0.84699719  1  -0.331651  -0.066816  3.311741  -0.084  -0.279292  -0.053728  3.588031  -0.072  -0.311596  -0.044758  3.612708  -0.064  -0.336147  -0.258946  -0.060324  3.572375  -0.077
N  N56  1  0.90413849  0.71899927  0.12540894  1  -0.228463  -0.057492  3.322076  -0.072  -0.200586  -0.049381  3.65029  -0.065  -0.223342  -0.041856  3.669463  -0.059  -0.230774  -0.188714  -0.053455  3.640446  -0.067
N  N57  1  0.09585834  0.28100334  0.87459354  1  -0.228589  -0.057515  3.322033  -0.072  -0.200679  -0.049384  3.650243  -0.065  -0.223446  -0.041856  3.66943  -0.059  -0.230784  -0.188811  -0.053456  3.640401  -0.067
N  N58  1  0.97716277  0.84933777  0.11811458  1  -0.059714  0.004342  2.832062  0.004  -0.071093  0.000322  3.110747  0.001  -0.065744  0.001895  3.122609  0.002  -0.069452  -0.074122  -0.000948  3.102467  0.0
N  N59  1  0.02283263  0.15066381  0.88188460  1  -0.059741  0.004358  2.831982  0.004  -0.071065  0.000318  3.110619  0.001  -0.065713  0.001899  3.122481  0.002  -0.069408  -0.074095  -0.000947  3.102339  0.0
N  N60  1  0.13371903  0.84506991  0.14243272  1  0.089942  -0.001649  3.56624  -0.003  0.203132  -0.002263  3.758258  -0.004  0.196818  -0.001286  3.778497  -0.003  -0.111738  0.207114  -0.002996  3.744483  -0.005
N  N61  1  0.86627637  0.15493168  0.85756548  1  0.089997  -0.001638  3.565978  -0.003  0.203095  -0.002263  3.75808  -0.004  0.196779  -0.001288  3.778313  -0.003  -0.111793  0.207074  -0.002996  3.744303  -0.005
N  N62  1  0.21740639  0.07460280  0.35423194  1  -0.39505  -0.000177  3.069145  0.0  -0.367469  -0.000127  3.32968  0.0  -0.380539  -8.4e-05  3.345992  0.0  -0.32022  -0.358396  -0.000224  3.318779  0.0
N  N63  1  0.78259645  0.92539555  0.64576683  1  -0.395113  -0.000203  3.069023  0.0  -0.367552  -0.000127  3.329567  0.0  -0.380621  -8.4e-05  3.345878  0.0  -0.320243  -0.358477  -0.000224  3.318664  0.0
N  N64  1  0.17858657  0.32115401  0.60988005  1  -0.247006  0.000567  3.038018  -0.001  -0.239606  0.000666  3.344276  0.0  -0.262046  0.000848  3.360316  0.0  -0.181581  -0.225874  0.000485  3.3349  -0.001
N  N65  1  0.82141863  0.67884424  0.39012707  1  -0.247095  0.000574  3.037866  -0.001  -0.23974  0.000665  3.344184  0.0  -0.262182  0.000851  3.360214  0.0  -0.181714  -0.225996  0.000485  3.334787  -0.001
N  N66  1  0.17849948  0.42130308  0.53819465  1  0.339918  0.000218  4.004516  0.0  0.374042  0.0005  4.308242  0.0  0.387428  0.000256  4.329399  0.0  0.132105  0.36474  0.00071  4.294856  0.001
N  N67  1  0.82151047  0.57868556  0.46181317  1  0.340022  0.000224  4.00447  0.0  0.374152  0.000498  4.308202  0.0  0.387539  0.000259  4.329353  0.0  0.132282  0.364852  0.00071  4.29482  0.001
N  N68  1  0.18261714  0.52602816  0.48661388  1  -0.215686  0.002392  2.378668  0.002  -0.224331  0.001927  2.599269  0.001  -0.219299  0.00189  2.605561  0.001  -0.091926  -0.228196  0.001993  2.595755  0.002
N  N69  1  0.81739808  0.47396797  0.51338662  1  -0.215711  0.002376  2.378988  0.002  -0.224333  0.001928  2.599565  0.001  -0.219304  0.001882  2.605864  0.001  -0.091966  -0.2282  0.001992  2.596051  0.002
Cl  Cl70  1  0.59322920  0.83325566  0.11165663  1  -0.505405  -0.127189  0.953005  -0.153  -0.503131  -0.078159  1.239853  -0.099  -0.536953  -0.058228  1.218687  -0.08  -0.297032  -0.481862  -0.090464  1.255318  -0.11
Cl  Cl71  1  0.40676527  0.16674705  0.88833749  1  -0.505437  -0.127194  0.953025  -0.153  -0.50315  -0.078163  1.239875  -0.099  -0.536981  -0.058229  1.218706  -0.08  -0.297052  -0.481883  -0.090461  1.255332  -0.11
Cl  Cl72  1  0.44979860  0.50404593  0.16589848  1  -0.512623  -0.126192  0.995681  -0.153  -0.52724  -0.075724  1.285564  -0.098  -0.563192  -0.054978  1.262327  -0.077  -0.298769  -0.506126  -0.08906  1.30268  -0.108
Cl  Cl73  1  0.55019486  0.49595253  0.83409428  1  -0.512575  -0.126197  0.995638  -0.153  -0.527204  -0.075726  1.285518  -0.098  -0.563171  -0.05498  1.262292  -0.077  -0.298756  -0.506101  -0.08906  1.30265  -0.108
