# generated using pymatgen
data_MnH11C15N2O5
_symmetry_space_group_name_H-M   'P 1'
_cell_length_a   7.90961307
_cell_length_b   8.69712880
_cell_length_c   10.80859543
_cell_angle_alpha   80.01520237
_cell_angle_beta   69.46052778
_cell_angle_gamma   76.36743736
_symmetry_Int_Tables_number   1
_chemical_formula_structural   MnH11C15N2O5
_chemical_formula_sum   'Mn2 H22 C30 N4 O10'
_cell_volume   673.28309647
_cell_formula_units_Z   2
loop_
 _symmetry_equiv_pos_site_id
 _symmetry_equiv_pos_as_xyz
  1  'x, y, z'
loop_
 _atom_site_type_symbol
 _atom_site_label
 _atom_site_symmetry_multiplicity
 _atom_site_fract_x
 _atom_site_fract_y
 _atom_site_fract_z
 _atom_site_occupancy
 _atom_site_pbe_cm5_charge
 _atom_site_pbe_ddec_charge
 _atom_site_pbe_ddec_spin_density
 _atom_site_pbe_ddec_sum_bond_order
 _atom_site_pbe_magmom
Mn  Mn0  1  0.71110268  0.62760497  0.77977564  1  0.627676  0.926442  4.655383  2.369074  4.399
Mn  Mn1  1  0.28890083  0.37239333  0.22022586  1  0.627668  0.926396  4.655392  2.369065  4.399
H  H2  1  0.55272429  0.30159202  0.86966232  1  0.11946  0.088563  0.000315  1.02052  0.001
H  H3  1  0.44727202  0.69840872  0.13033787  1  0.11947  0.088568  0.000315  1.020455  0.001
H  H4  1  0.49897774  0.09352204  0.76183904  1  0.107655  0.113657  0.000217  1.021228  0.0
H  H5  1  0.50102712  0.90647624  0.23816305  1  0.107646  0.113673  0.000217  1.021184  0.0
H  H6  1  0.58166909  0.12324149  0.51258159  1  0.114602  0.125906  -0.000223  0.992223  0.0
H  H7  1  0.41834128  0.87674962  0.48742195  1  0.11458  0.12591  -0.000223  0.992187  0.0
H  H8  1  0.72192222  0.35039242  0.38317385  1  0.112398  0.128386  0.000155  1.016826  0.0
H  H9  1  0.27807851  0.64959997  0.61682729  1  0.112381  0.128343  0.000155  1.016897  0.0
H  H10  1  0.85544487  0.53434569  0.28541441  1  0.108575  0.122653  0.001851  1.057709  0.001
H  H11  1  0.14455779  0.46565024  0.71458762  1  0.10858  0.122634  0.001852  1.057633  0.001
H  H12  1  0.97776030  0.77908059  0.18442943  1  0.104027  0.097885  -0.000178  1.03599  0.0
H  H13  1  0.02224575  0.22091173  0.81557595  1  0.104039  0.097905  -0.000178  1.035953  0.0
H  H14  1  0.98072154  0.97229925  0.33163903  1  0.106076  0.110009  0.000247  1.03364  0.0
H  H15  1  0.01927768  0.02770027  0.66836338  1  0.106061  0.110005  0.000247  1.033669  0.0
H  H16  1  0.87453960  0.89819011  0.57920644  1  0.116847  0.084468  0.000662  1.02469  0.001
H  H17  1  0.12545260  0.10181065  0.42079754  1  0.116852  0.084518  0.000662  1.024713  0.001
H  H18  1  0.29738425  0.04277294  0.00331074  1  0.109147  0.116437  -0.000216  0.995373  0.0
H  H19  1  0.70260860  0.95722423  0.99670004  1  0.109125  0.116389  -0.000216  0.995406  0.0
H  H20  1  0.66605663  0.39187855  0.99118692  1  0.295282  0.376691  0.001013  0.974315  0.003
H  H21  1  0.33393198  0.60813292  0.00881743  1  0.295287  0.376704  0.001013  0.974303  0.003
H  H22  1  0.83299168  0.45246226  0.99727765  1  0.296221  0.393719  0.001657  0.940376  0.004
H  H23  1  0.16700348  0.54753014  0.00273506  1  0.296262  0.393785  0.001656  0.940295  0.004
C  C24  1  0.58978466  0.30866842  0.76190803  1  0.054064  0.106633  0.009318  3.930112  0.007
C  C25  1  0.41021188  0.69133113  0.23809318  1  0.054074  0.106698  0.009318  3.930114  0.007
C  C26  1  0.55959597  0.19307309  0.70195095  1  -0.079856  -0.122419  -0.0006  3.957617  0.0
C  C27  1  0.44040484  0.80692523  0.29805122  1  -0.079834  -0.122458  -0.0006  3.957562  0.0
C  C28  1  0.60641882  0.20851128  0.56402127  1  -0.061583  -0.018185  0.00826  3.9362  0.006
C  C29  1  0.39358594  0.79148107  0.43598073  1  -0.061602  -0.018194  0.00826  3.936162  0.006
C  C30  1  0.68487932  0.33710936  0.49092121  1  -0.07549  -0.14943  -0.000861  3.903293  -0.001
C  C31  1  0.31512334  0.66288657  0.50908082  1  -0.075451  -0.149378  -0.000861  3.903242  -0.001
C  C32  1  0.71295052  0.44837073  0.55773867  1  0.124113  0.16795  0.008963  3.983893  0.008
C  C33  1  0.28704920  0.55162642  0.44226300  1  0.124151  0.1681  0.008963  3.983704  0.008
C  C34  1  0.79407681  0.58879982  0.48773108  1  0.122167  0.166909  0.012854  3.994658  0.011
C  C35  1  0.20592860  0.41119610  0.51226749  1  0.122186  0.166835  0.012855  3.994863  0.011
C  C36  1  0.85732952  0.61788644  0.34925926  1  -0.078148  -0.166628  0.001638  3.927308  -0.002
C  C37  1  0.14267500  0.38210710  0.65074170  1  -0.078092  -0.166458  0.001637  3.926997  -0.002
C  C38  1  0.92618437  0.75608771  0.29205714  1  -0.061798  -0.007601  0.013071  3.938437  0.01
C  C39  1  0.07381990  0.24390702  0.70794466  1  -0.061863  -0.007727  0.013073  3.93831  0.01
C  C40  1  0.93036451  0.86215714  0.37343451  1  -0.07917  -0.119177  -0.002477  3.956031  -0.002
C  C41  1  0.06963256  0.13784005  0.62656412  1  -0.079159  -0.119234  -0.002477  3.956137  -0.002
C  C42  1  0.87045859  0.82277443  0.51009579  1  0.053397  0.10129  0.013991  3.948044  0.011
C  C43  1  0.12953572  0.17722276  0.48990723  1  0.053367  0.10125  0.013989  3.948247  0.011
C  C44  1  0.98390528  0.75047668  0.85950167  1  0.216444  0.581719  0.015413  4.204159  0.012
C  C45  1  0.01609211  0.24952524  0.14049901  1  0.216393  0.581643  0.015413  4.204224  0.012
C  C46  1  0.34626870  0.82548250  0.83810252  1  0.214952  0.573744  0.011074  4.222238  0.008
C  C47  1  0.65372928  0.17452297  0.16189846  1  0.215047  0.573642  0.011074  4.222629  0.008
C  C48  1  0.99598023  0.88327344  0.92632092  1  -0.010977  -0.054056  0.005852  3.965135  0.004
C  C49  1  0.00402958  0.11673434  0.07366661  1  -0.011072  -0.054061  0.005852  3.965158  0.004
C  C50  1  0.16715566  0.02251375  0.00184425  1  -0.080741  -0.125686  0.002955  3.951694  0.002
C  C51  1  0.83284787  0.97749171  0.99814609  1  -0.080681  -0.125526  0.002955  3.951573  0.002
C  C52  1  0.16552001  0.90768048  0.92666007  1  -0.008828  -0.051564  0.004311  3.971807  0.003
C  C53  1  0.83448935  0.09232969  0.07332448  1  -0.008789  -0.051645  0.004309  3.971579  0.003
N  N54  1  0.66433863  0.43387028  0.69204310  1  -0.317951  -0.296486  0.036853  3.498434  0.017
N  N55  1  0.33565876  0.56613164  0.30795758  1  -0.318019  -0.296668  0.036858  3.498495  0.017
N  N56  1  0.80440229  0.68958857  0.56608210  1  -0.326096  -0.30173  0.036148  3.555353  0.013
N  N57  1  0.19559311  0.31040980  0.43392141  1  -0.326085  -0.30163  0.036142  3.55546  0.013
O  O58  1  0.38620470  0.85243844  0.71561989  1  -0.292922  -0.518517  0.010525  2.138051  0.008
O  O59  1  0.61379648  0.14758610  0.28435088  1  -0.292886  -0.518221  0.010519  2.138967  0.008
O  O60  1  0.45624593  0.73456734  0.89909726  1  -0.325304  -0.576914  0.045425  2.345782  0.027
O  O61  1  0.54375167  0.26544179  0.10087926  1  -0.325435  -0.577058  0.045427  2.345505  0.027
O  O62  1  0.86154507  0.78211300  0.80127673  1  -0.322751  -0.566658  0.046053  2.327845  0.029
O  O63  1  0.13844628  0.21788540  0.19872779  1  -0.322668  -0.56658  0.046046  2.327823  0.029
O  O64  1  0.08843243  0.61731464  0.86729108  1  -0.302269  -0.537548  0.011005  2.175013  0.012
O  O65  1  0.91156608  0.38268846  0.13270824  1  -0.302265  -0.537515  0.011004  2.175058  0.012
O  O66  1  0.75388425  0.46402640  0.94056817  1  -0.579235  -0.770529  0.049349  2.186639  0.032
O  O67  1  0.24611364  0.53597904  0.05943932  1  -0.579247  -0.770574  0.049348  2.186558  0.032
