# generated using pymatgen
data_CuH10C6(NO2)2
_symmetry_space_group_name_H-M   'P 1'
_cell_length_a   5.58512299
_cell_length_b   7.64171841
_cell_length_c   9.99478045
_cell_angle_alpha   99.63537743
_cell_angle_beta   90.00784575
_cell_angle_gamma   111.45386535
_symmetry_Int_Tables_number   1
_chemical_formula_structural   CuH10C6(NO2)2
_chemical_formula_sum   'Cu2 H20 C12 N4 O8'
_cell_volume   390.54328550
_cell_formula_units_Z   2
loop_
 _symmetry_equiv_pos_site_id
 _symmetry_equiv_pos_as_xyz
  1  'x, y, z'
loop_
 _atom_site_type_symbol
 _atom_site_label
 _atom_site_symmetry_multiplicity
 _atom_site_fract_x
 _atom_site_fract_y
 _atom_site_fract_z
 _atom_site_occupancy
 _atom_site_hle17_ddec_charge
 _atom_site_hle17_ddec_spin_density
 _atom_site_hle17_ddec_sum_bond_order
 _atom_site_hle17_magmom
 _atom_site_hse06_10hf_ddec_charge
 _atom_site_hse06_10hf_ddec_spin_density
 _atom_site_hse06_10hf_ddec_sum_bond_order
 _atom_site_hse06_10hf_magmom
 _atom_site_hse06_ddec_charge
 _atom_site_hse06_ddec_spin_density
 _atom_site_hse06_ddec_sum_bond_order
 _atom_site_hse06_magmom
 _atom_site_pbe_cm5_charge
 _atom_site_pbe_ddec_charge
 _atom_site_pbe_ddec_spin_density
 _atom_site_pbe_ddec_sum_bond_order
 _atom_site_pbe_magmom
Cu  Cu0  1  0.51132440  0.73136296  0.14005173  1  0.83036  0.657318  1.779043  0.484  0.811295  0.753677  2.164568  0.6  0.898781  0.816926  2.09895  0.683  0.71225  0.758125  0.712155  2.210788  0.551
Cu  Cu1  1  0.21993362  0.73124381  0.63999034  1  0.83137  0.657145  1.778453  0.484  0.812055  0.753484  2.163752  0.6  0.899427  0.816721  2.098313  0.683  0.712281  0.758684  0.712003  2.210275  0.551
H  H2  1  0.94327398  0.70654386  0.18348359  1  0.275045  -0.001212  0.92546  -0.002  0.263915  0.000278  0.985515  0.0  0.270722  -0.000306  0.98249  -0.001  0.296156  0.259148  0.000796  0.988026  0.0
H  H3  1  0.76299700  0.70620429  0.68339076  1  0.274947  -0.001208  0.926128  -0.002  0.263365  0.000278  0.986528  0.0  0.270167  -0.000306  0.983558  -0.001  0.295943  0.258584  0.000797  0.989049  0.0
H  H4  1  0.19942974  0.39236131  0.12663651  1  0.303588  -0.001935  0.912804  -0.002  0.293761  -0.000554  0.970762  -0.001  0.302041  -0.000821  0.965349  -0.001  0.290016  0.287757  -0.000309  0.975117  0.0
H  H5  1  0.19282920  0.39236327  0.62673583  1  0.303612  -0.001939  0.911927  -0.002  0.293839  -0.000555  0.969971  -0.001  0.302114  -0.000821  0.964548  -0.001  0.290145  0.287894  -0.000308  0.974238  0.0
H  H6  1  0.27994480  0.40877545  0.96537172  1  0.302265  -0.000867  0.92957  -0.001  0.290216  0.000467  0.992568  0.0  0.29814  0.000208  0.987999  0.0  0.286079  0.284634  0.000672  0.996007  0.0
H  H7  1  0.12873635  0.40870452  0.46543749  1  0.303205  -0.000868  0.929361  -0.001  0.291052  0.000464  0.99243  0.0  0.298966  0.000205  0.987884  0.0  0.286633  0.285472  0.000668  0.995873  0.0
H  H8  1  0.19383870  0.98116607  0.34565560  1  0.140673  -2.7e-05  0.911628  0.0  0.15522  -8e-06  0.967669  0.0  0.158152  -6.3e-05  0.966471  0.0  0.114148  0.153136  5.8e-05  0.968695  0.0
H  H9  1  0.78733277  0.98084669  0.84552894  1  0.140359  6e-06  0.912625  0.0  0.15544  -8e-06  0.968109  0.0  0.158428  -6.3e-05  0.966808  0.0  0.114402  0.153311  6e-05  0.969228  0.0
H  H10  1  0.03216209  0.06712424  0.47384365  1  0.124049  0.000128  0.9428  0.0  0.137366  0.000321  1.005157  0.0  0.140403  0.000175  1.003993  0.0  0.107689  0.135217  0.000459  1.006105  0.0
H  H11  1  0.03519713  0.06684560  0.97369272  1  0.124404  0.000158  0.942151  0.0  0.13753  0.00032  1.004924  0.0  0.140561  0.000174  1.003758  0.0  0.107548  0.135393  0.000458  1.005869  0.0
H  H12  1  0.92675074  0.71882569  0.43891960  1  0.060677  0.0045  0.941874  0.008  0.057432  0.002731  1.031111  0.005  0.060307  0.001601  1.023876  0.004  0.104568  0.053594  0.003425  1.039047  0.006
H  H13  1  0.79195734  0.71854749  0.93879748  1  0.061156  0.004507  0.942005  0.008  0.057498  0.002739  1.031091  0.005  0.060213  0.001606  1.024072  0.004  0.104702  0.053711  0.00343  1.039012  0.006
H  H14  1  0.52829355  0.42078358  0.30401554  1  0.078275  -5e-06  0.940595  0.0  0.091978  -2e-05  1.004505  0.0  0.092732  -3.8e-05  1.004255  0.0  0.10745  0.091116  3.1e-05  1.005279  0.0
H  H15  1  0.89209183  0.42053604  0.80402652  1  0.078873  -1e-05  0.940332  0.0  0.092787  -2.1e-05  1.00381  0.0  0.093638  -3.8e-05  1.003443  0.0  0.107502  0.091816  3e-05  1.004748  0.0
H  H16  1  0.82729777  0.40449740  0.25190764  1  0.091021  0.003706  0.971134  0.006  0.102898  0.002334  1.03139  0.004  0.104145  0.001607  1.031054  0.003  0.106205  0.101662  0.002842  1.031844  0.004
H  H17  1  0.57680018  0.40411463  0.75173648  1  0.091127  0.0037  0.970616  0.006  0.103555  0.002331  1.029949  0.004  0.104714  0.001604  1.029773  0.003  0.106277  0.102396  0.002837  1.030321  0.004
H  H18  1  0.68126163  0.38990563  0.01004818  1  0.058774  -0.00013  0.922119  0.0  0.081565  -0.000112  0.977521  0.0  0.080696  -0.000104  0.978847  0.0  0.105624  0.081572  -0.000102  0.977463  0.0
H  H19  1  0.70835631  0.38944301  0.50996328  1  0.059804  -0.00014  0.922004  0.0  0.082387  -0.000113  0.977229  0.0  0.081567  -0.000104  0.978481  0.0  0.105937  0.082382  -0.000103  0.977181  0.0
H  H20  1  0.45449693  0.20577288  0.08279195  1  0.07733  0.003017  0.918201  0.004  0.093931  0.002146  0.97768  0.003  0.093727  0.001539  0.978266  0.002  0.107107  0.093808  0.00256  0.977308  0.003
H  H21  1  0.75122798  0.20550076  0.58283118  1  0.077218  0.003011  0.918833  0.004  0.093515  0.002147  0.978438  0.003  0.093298  0.001539  0.979044  0.002  0.106996  0.0934  0.002559  0.978058  0.003
C  C22  1  0.92925574  0.08844183  0.27155758  1  0.701534  -0.006991  3.812857  -0.006  0.659491  -0.001621  4.118811  -0.002  0.696375  -0.001668  4.111018  -0.002  0.211599  0.634419  -0.001464  4.122667  -0.002
C  C23  1  0.15916300  0.08815473  0.77139701  1  0.701823  -0.006974  3.810158  -0.006  0.659856  -0.001621  4.116476  -0.002  0.696687  -0.001666  4.108703  -0.002  0.211292  0.634808  -0.001465  4.120346  -0.002
C  C24  1  0.00241368  0.98219713  0.37101172  1  -0.319463  0.00048  3.653433  0.001  -0.363021  0.00035  3.900546  0.001  -0.370078  -1.4e-05  3.907636  0.0  -0.164244  -0.358095  0.000707  3.895451  0.001
C  C25  1  0.97982531  0.98190165  0.87087783  1  -0.319239  0.000384  3.654534  0.001  -0.364067  0.000352  3.902441  0.001  -0.371125  -1.4e-05  3.909485  0.0  -0.164634  -0.359148  0.000706  3.897394  0.001
C  C26  1  0.82479816  0.77651782  0.37380278  1  0.043535  -0.000332  3.634989  -0.002  0.024398  0.002429  3.881579  0.0  0.026015  0.000359  3.896883  -0.001  -0.001058  0.023905  0.004314  3.872141  0.002
C  C27  1  0.95161813  0.77624778  0.87368672  1  0.042323  -0.000284  3.638374  -0.002  0.024625  0.002426  3.88256  0.0  0.026315  0.000358  3.897823  -0.001  -0.001152  0.024151  0.004305  3.872952  0.002
C  C28  1  0.56687413  0.76333149  0.43516947  1  0.620762  -0.001757  3.84952  -0.002  0.57795  0.000684  4.151259  0.0  0.612432  -0.000374  4.145575  0.0  0.203867  0.554869  0.001716  4.153768  0.001
C  C29  1  0.19641274  0.76315184  0.93508218  1  0.622131  -0.001756  3.849455  -0.002  0.579021  0.000679  4.1511  0.0  0.613488  -0.000379  4.14532  0.0  0.204472  0.555951  0.001712  4.153678  0.001
C  C30  1  0.67432755  0.45544286  0.22891171  1  -0.017284  -0.003584  3.61576  -0.004  -0.07187  0.000108  3.883801  -0.001  -0.068076  -0.001126  3.896591  -0.002  -0.082454  -0.073793  0.001202  3.875381  0.0
C  C31  1  0.78081296  0.45513665  0.72884219  1  -0.017406  -0.003554  3.615905  -0.004  -0.072607  0.000107  3.883006  -0.001  -0.068812  -0.001124  3.895765  -0.002  -0.082207  -0.074565  0.0012  3.874588  0.0
C  C32  1  0.54209395  0.36158433  0.08900950  1  0.065  -0.002006  3.622411  -0.002  0.007025  0.0008  3.898019  0.0  0.013329  -0.000189  3.909964  -0.001  -0.07413  0.003413  0.0016  3.890099  0.0
C  C33  1  0.81929749  0.36131094  0.58898880  1  0.063745  -0.001952  3.623687  -0.002  0.006491  0.000811  3.898462  0.0  0.012783  -0.000181  3.910429  -0.001  -0.074478  0.002886  0.001612  3.890536  0.0
N  N34  1  0.77715921  0.66460834  0.23545626  1  -0.388215  0.120345  3.280537  0.153  -0.350087  0.079983  3.554262  0.107  -0.385133  0.063095  3.57504  0.092  -0.496722  -0.329291  0.088595  3.542171  0.113
N  N35  1  0.88720762  0.66431282  0.73535624  1  -0.389053  0.120138  3.283989  0.153  -0.350276  0.079852  3.556307  0.107  -0.385338  0.062982  3.577122  0.092  -0.496468  -0.329387  0.088441  3.544206  0.113
N  N36  1  0.34925208  0.44674989  0.06608211  1  -0.618001  0.093006  3.131929  0.117  -0.602853  0.063219  3.418702  0.083  -0.63586  0.050876  3.41832  0.073  -0.645482  -0.583098  0.069707  3.420962  0.087
N  N37  1  0.09737975  0.44667202  0.56612665  1  -0.619299  0.093115  3.131183  0.117  -0.604586  0.063284  3.418461  0.083  -0.637575  0.050926  3.418114  0.073  -0.646515  -0.5848  0.069787  3.420718  0.087
O  O38  1  0.73929213  0.00634778  0.18162535  1  -0.601919  0.072798  2.022119  0.1  -0.575262  0.047435  2.303481  0.071  -0.615774  0.035362  2.292538  0.057  -0.333786  -0.547895  0.056168  2.310944  0.079
O  O39  1  0.26706026  0.00615716  0.68149772  1  -0.601275  0.072828  2.021234  0.1  -0.574531  0.047474  2.302401  0.071  -0.614946  0.035402  2.291465  0.057  -0.333281  -0.547151  0.056219  2.309966  0.079
O  O40  1  0.07238689  0.26288412  0.28129369  1  -0.62722  0.012298  1.971922  0.017  -0.570864  0.006884  2.188186  0.01  -0.597288  0.003764  2.180384  0.006  -0.314807  -0.551139  0.010092  2.192258  0.014
O  O41  1  0.19033608  0.26253019  0.78108733  1  -0.627823  0.012289  1.969815  0.016  -0.571757  0.006881  2.186235  0.01  -0.598167  0.003764  2.178522  0.006  -0.315035  -0.552037  0.01008  2.190233  0.014
O  O42  1  0.37310299  0.73455150  0.35876425  1  -0.598743  -0.002723  2.005654  0.0  -0.559967  -0.002166  2.259834  0.0  -0.586034  -0.003341  2.247393  -0.001  -0.312156  -0.542052  -0.000767  2.268682  0.001
O  O43  1  0.36138138  0.73438462  0.85870634  1  -0.59966  -0.002745  2.006819  0.0  -0.560268  -0.002178  2.260206  0.0  -0.586485  -0.003356  2.248167  -0.001  -0.312094  -0.542246  -0.000781  2.268911  0.001
O  O44  1  0.56866941  0.78387319  0.56597068  1  -0.60208  0.054051  2.069386  0.074  -0.554359  0.040743  2.334609  0.06  -0.589483  0.032645  2.323449  0.052  -0.327846  -0.530861  0.045645  2.342118  0.063
O  O45  1  0.21518325  0.78372500  0.06589960  1  -0.602305  0.054072  2.068501  0.074  -0.555082  0.040756  2.334401  0.06  -0.590188  0.032658  2.323127  0.052  -0.328341  -0.531654  0.045654  2.341905  0.063
