# generated using pymatgen
data_AlH12C24(NO4)3
_symmetry_space_group_name_H-M   'P 1'
_cell_length_a   4.03504062
_cell_length_b   28.50202473
_cell_length_c   28.50202759
_cell_angle_alpha   119.99416530
_cell_angle_beta   90.00043844
_cell_angle_gamma   90.00060415
_symmetry_Int_Tables_number   1
_chemical_formula_structural   AlH12C24(NO4)3
_chemical_formula_sum   'Al2 H24 C48 N6 O24'
_cell_volume   2838.93560664
_cell_formula_units_Z   2
loop_
 _symmetry_equiv_pos_site_id
 _symmetry_equiv_pos_as_xyz
  1  'x, y, z'
loop_
 _atom_site_type_symbol
 _atom_site_label
 _atom_site_symmetry_multiplicity
 _atom_site_fract_x
 _atom_site_fract_y
 _atom_site_fract_z
 _atom_site_occupancy
 _atom_site_pbe_bader_charge
 _atom_site_pbe_bader_spin_density
 _atom_site_pbe_cm5_charge
 _atom_site_pbe_ddec_charge
 _atom_site_pbe_ddec_spin_density
 _atom_site_pbe_ddec_sum_bond_order
 _atom_site_pbe_magmom
Al  Al0  1  0.97740254  0.50000613  0.49999220  1  2.509654  0  0.431506  1.614923  0  2.548894  0
Al  Al1  1  0.97743858  0.16666354  0.83334104  1  2.509667  0  0.431481  1.614812  0  2.549236  0
H  H2  1  0.55503578  0.18055330  0.69751944  1  0.107087  0  0.121911  0.133862  0  0.961747  0
H  H3  1  0.59975216  0.23124051  0.64864400  1  0.029986  0  0.109579  0.107712  0  0.990842  0
H  H4  1  0.48306161  0.38139637  0.80021381  1  0.120468  0  0.11659  0.128283  0  0.991352  0
H  H5  1  0.48309801  0.28525525  0.53310474  1  0.12016  0  0.116545  0.128264  0  0.991044  0
H  H6  1  0.59974836  0.43542176  0.68467504  1  0.029945  0  0.109572  0.107742  0  0.991073  0
H  H7  1  0.55506043  0.48610364  0.63580118  1  0.107427  0  0.121891  0.133888  0  0.962018  0
H  H8  1  0.54367372  0.38670845  0.72122451  1  0.059511  0  0.103077  0.100032  0  1.001076  0
H  H9  1  0.54373375  0.27994860  0.61209945  1  0.059069  0  0.103199  0.100271  0  1.001094  0
H  H10  1  0.55498334  0.01693311  0.81945572  1  0.112018  0  0.121893  0.13373  0  0.9621  0
H  H11  1  0.59971903  0.91738534  0.76875957  1  0.083164  0  0.109695  0.107909  0  0.990826  0
H  H12  1  0.48304713  0.91883883  0.61861370  1  0.122863  0  0.116582  0.128359  0  0.991024  0
H  H13  1  0.48295159  0.74782692  0.71472312  1  0.1226  0  0.116566  0.128336  0  0.991266  0
H  H14  1  0.59979159  0.74927857  0.56457337  1  0.083345  0  0.109718  0.108006  0  0.990886  0
H  H15  1  0.55508809  0.64973451  0.51388650  1  0.112286  0  0.121905  0.133762  0  0.962062  0
H  H16  1  0.54368759  0.83453766  0.61329561  1  0.054589  0  0.103036  0.100066  0  1.00109  0
H  H17  1  0.54360855  0.83212737  0.72004575  1  0.053953  0  0.103168  0.100295  0  1.000855  0
H  H18  1  0.55495870  0.30248498  0.98304144  1  0.113637  0  0.121907  0.133963  0  0.961897  0
H  H19  1  0.59969950  0.35135128  0.08258539  1  0.088389  0  0.109568  0.107749  0  0.990919  0
H  H20  1  0.48323152  0.19977950  0.08119946  1  0.122248  0  0.116408  0.128079  0  0.991216  0
H  H21  1  0.48320639  0.46689813  0.25213878  1  0.122089  0  0.116526  0.128194  0  0.990945  0
H  H22  1  0.59968526  0.31532309  0.25075321  1  0.088783  0  0.109619  0.107821  0  0.99089  0
H  H23  1  0.55496404  0.36419747  0.35029577  1  0.114055  0  0.121858  0.13391  0  0.961808  0
H  H24  1  0.54370946  0.27877271  0.16548988  1  0.057605  0  0.103157  0.100185  0  1.000993  0
H  H25  1  0.54373095  0.38790721  0.16784780  1  0.057221  0  0.103249  0.100282  0  1.000998  0
C  C26  1  0.47849968  0.46986790  0.41837923  1  1.649092  0  0.280019  0.662248  0  4.101947  0
C  C27  1  0.47849937  0.44853308  0.53013612  1  1.652194  0  0.280454  0.662843  0  4.101052  0
C  C28  1  0.47846278  0.58161978  0.55145571  1  1.644879  0  0.280229  0.662626  0  4.101692  0
C  C29  1  0.47853766  0.21812922  0.80319068  1  1.652109  0  0.280374  0.663032  0  4.101294  0
C  C30  1  0.47849991  0.08505051  0.78188274  1  1.644915  0  0.280114  0.662524  0  4.101659  0
C  C31  1  0.47848779  0.19680875  0.91495707  1  1.649113  0  0.28002  0.662157  0  4.10206  0
C  C32  1  0.49551447  0.25151143  0.77601806  1  -0.071806  0  0.010149  -0.052534  0  3.912266  0
C  C33  1  0.53922157  0.22466221  0.71963363  1  -0.004847  0  -0.068935  -0.078535  0  3.941082  0
C  C34  1  0.56374213  0.25354375  0.69241365  1  0.116588  0  -0.072506  -0.106506  0  3.930976  0
C  C35  1  0.54143295  0.31059219  0.72021901  1  -0.004108  0  -0.007244  0.117529  0  4.049011  0
C  C36  1  0.50321279  0.33741682  0.77670240  1  -0.0825  0  -0.076559  -0.173425  0  3.936258  0
C  C37  1  0.48062527  0.30809015  0.80353397  1  0.292093  0  0.080002  0.050378  0  3.93639  0
C  C38  1  0.54841232  0.34290108  0.69364467  1  -0.116688  0  -0.088014  -0.127699  0  3.998848  0
C  C39  1  0.54843000  0.32375607  0.63967291  1  -0.018264  0  -0.088207  -0.128395  0  3.999514  0
C  C40  1  0.50322151  0.32923678  0.55661286  1  -0.083464  0  -0.07663  -0.173669  0  3.935865  0
C  C41  1  0.54142437  0.35606342  0.61309867  1  -0.00462  0  -0.00722  0.117803  0  4.049087  0
C  C42  1  0.56375911  0.41311272  0.64090609  1  0.116962  0  -0.072556  -0.106552  0  3.93121  0
C  C43  1  0.53925166  0.44199490  0.61368674  1  -0.004783  0  -0.068921  -0.078866  0  3.941371  0
C  C44  1  0.49548752  0.41514947  0.55730532  1  -0.063936  0  0.010205  -0.051967  0  3.911838  0
C  C45  1  0.48058272  0.35856982  0.52978604  1  0.284119  0  0.080066  0.050401  0  3.936089  0
C  C46  1  0.49543091  0.02450048  0.74850391  1  0.004752  0  0.010442  -0.051808  0  3.911826  0
C  C47  1  0.53911305  0.99495289  0.77534760  1  -0.001585  0  -0.06901  -0.078761  0  3.941605  0
C  C48  1  0.56364526  0.93885699  0.74646341  1  -0.00876  0  -0.072587  -0.106651  0  3.931284  0
C  C49  1  0.54132069  0.90962898  0.68941598  1  -0.012725  0  -0.007194  0.117701  0  4.049196  0
C  C50  1  0.50316782  0.93929735  0.66259268  1  -0.065099  0  -0.076548  -0.173755  0  3.93612  0
C  C51  1  0.48059595  0.99544997  0.69192253  1  0.226952  0  0.08  0.050601  0  3.936332  0
C  C52  1  0.54836837  0.85075260  0.65710269  1  -0.05886  0  -0.088124  -0.12799  0  3.999254  0
C  C53  1  0.54834775  0.81591661  0.67624082  1  0.056036  0  -0.088135  -0.128191  0  3.999151  0
C  C54  1  0.50313533  0.72737207  0.67074618  1  -0.064627  0  -0.076608  -0.173776  0  3.936338  0
C  C55  1  0.54135096  0.75703993  0.64392359  1  -0.013477  0  -0.007173  0.117793  0  4.048989  0
C  C56  1  0.56372235  0.72781093  0.58687516  1  -0.008535  0  -0.072745  -0.107066  0  3.931091  0
C  C57  1  0.53920425  0.67171420  0.55799379  1  -0.001821  0  -0.069024  -0.078707  0  3.941228  0
C  C58  1  0.49543726  0.64216824  0.58483620  1  0.00475  0  0.010412  -0.051676  0  3.911607  0
C  C59  1  0.48057258  0.67121804  0.64141412  1  0.226651  0  0.079998  0.050485  0  3.936384  0
C  C60  1  0.49551130  0.22397745  0.97550778  1  -0.058586  0  0.010485  -0.051239  0  3.910967  0
C  C61  1  0.53913777  0.28036491  0.00503736  1  -0.024483  0  -0.06906  -0.079183  0  3.941511  0
C  C62  1  0.56368774  0.30758447  0.06113092  1  0.070455  0  -0.072585  -0.106547  0  3.93141  0
C  C63  1  0.54143244  0.27978212  0.09038420  1  0.001544  0  -0.007214  0.11743  0  4.049182  0
C  C64  1  0.50326387  0.22329677  0.06073299  1  -0.078539  0  -0.076562  -0.173456  0  3.936131  0
C  C65  1  0.48069160  0.19646184  0.00457758  1  0.303675  0  0.08003  0.05039  0  3.936036  0
C  C66  1  0.54842377  0.30635589  0.14926069  1  -0.115317  0  -0.087983  -0.127781  0  3.999152  0
C  C67  1  0.54842423  0.36032795  0.18408010  1  -0.02931  0  -0.088324  -0.128419  0  3.999449  0
C  C68  1  0.50328516  0.44338383  0.27260660  1  -0.078103  0  -0.076628  -0.173532  0  3.935834  0
C  C69  1  0.54146031  0.38689929  0.24295618  1  0.002752  0  -0.007208  0.1178  0  4.048913  0
C  C70  1  0.56374979  0.35909390  0.27220561  1  -0.099255  0  -0.072678  -0.106776  0  3.931286  0
C  C71  1  0.53922466  0.38631575  0.32830025  1  0.144303  0  -0.068858  -0.078946  0  3.941254  0
C  C72  1  0.49553530  0.44270004  0.35783057  1  -0.059347  0  0.010361  -0.051448  0  3.911463  0
C  C73  1  0.48074017  0.47021589  0.32876197  1  0.303144  0  0.080095  0.050312  0  3.936276  0
N  N74  1  0.42408085  0.33870558  0.86258060  1  0.41069  0  0.059373  0.514071  0  4.20629  0
N  N75  1  0.42405022  0.32795539  0.47073882  1  0.410414  0  0.059437  0.513959  0  4.206686  0
N  N76  1  0.42403400  0.02388942  0.66131054  1  0.370984  0  0.059395  0.513884  0  4.206925  0
N  N77  1  0.42397315  0.64277576  0.67202362  1  0.371218  0  0.059394  0.513904  0  4.20717  0
N  N78  1  0.42422751  0.13741329  0.97616121  1  0.374554  0  0.059243  0.514105  0  4.203712  0
N  N79  1  0.42423069  0.52926316  0.35717571  1  0.373701  0  0.059335  0.514274  0  4.203901  0
O  O80  1  0.71256859  0.55465634  0.55640642  1  -1.243973  0  -0.233055  -0.595504  0  2.402788  0
O  O81  1  0.71255871  0.50178941  0.44535069  1  -1.249115  0  -0.232932  -0.595268  0  2.402863  0
O  O82  1  0.71257033  0.44357960  0.49821398  1  -1.247404  0  -0.233257  -0.595528  0  2.402436  0
O  O83  1  0.23909557  0.56266290  0.51819292  1  -1.249418  0  -0.224632  -0.577371  0  2.380574  0
O  O84  1  0.23913537  0.48179479  0.54444657  1  -1.250843  0  -0.224631  -0.577531  0  2.380602  0
O  O85  1  0.23912164  0.45555775  0.43733363  1  -1.249523  0  -0.224488  -0.577373  0  2.380662  0
O  O86  1  0.71254052  0.16488828  0.88798578  1  -1.24926  0  -0.232947  -0.595351  0  2.40311  0
O  O87  1  0.71260821  0.22307988  0.83510913  1  -1.247411  0  -0.233133  -0.595459  0  2.402691  0
O  O88  1  0.71258764  0.11201612  0.77692967  1  -1.244178  0  -0.233112  -0.595432  0  2.402509  0
O  O89  1  0.23908998  0.21111719  0.89600385  1  -1.249477  0  -0.224536  -0.577292  0  2.380648  0
O  O90  1  0.23912101  0.10400298  0.81514239  1  -1.249388  0  -0.224543  -0.577317  0  2.38052  0
O  O91  1  0.23916298  0.18486584  0.78888066  1  -1.250679  0  -0.224618  -0.577557  0  2.380734  0
O  O92  1  0.27886263  0.31483397  0.88295204  1  -0.435787  0  -0.115442  -0.307095  0  1.943684  0
O  O93  1  0.52082333  0.38630792  0.88760765  1  -0.459626  0  -0.138407  -0.334228  0  1.87065  0
O  O94  1  0.27889714  0.35183067  0.45036297  1  -0.43476  0  -0.115496  -0.307093  0  1.943761  0
O  O95  1  0.52071843  0.28035305  0.44571579  1  -0.459923  0  -0.13843  -0.334128  0  1.870935  0
O  O96  1  0.27889525  0.06813543  0.68519295  1  -0.437731  0  -0.115415  -0.306927  0  1.943691  0
O  O97  1  0.52061828  0.00132616  0.61370347  1  -0.434922  0  -0.138512  -0.334384  0  1.871245  0
O  O98  1  0.27886452  0.59852474  0.64813704  1  -0.437961  0  -0.115482  -0.306954  0  1.943568  0
O  O99  1  0.52053686  0.66534260  0.71963181  1  -0.434999  0  -0.138322  -0.334245  0  1.871624  0
O  O100  1  0.27905728  0.11702212  0.93192021  1  -0.445355  0  -0.115426  -0.30718  0  1.942496  0
O  O101  1  0.52104157  0.11240140  0.99875339  1  -0.440186  0  -0.138199  -0.334127  0  1.869077  0
O  O102  1  0.27908910  0.54965418  0.40141822  1  -0.445039  0  -0.115566  -0.307339  0  1.942686  0
O  O103  1  0.52094380  0.55426964  0.33457120  1  -0.440061  0  -0.138217  -0.334143  0  1.869235  0
