# generated using pymatgen
data_HgH22C32N4(ClO)2
_symmetry_space_group_name_H-M   'P 1'
_cell_length_a   11.65190267
_cell_length_b   16.20058774
_cell_length_c   17.05799062
_cell_angle_alpha   104.01959951
_cell_angle_beta   89.99999044
_cell_angle_gamma   89.99987744
_symmetry_Int_Tables_number   1
_chemical_formula_structural   HgH22C32N4(ClO)2
_chemical_formula_sum   'Hg4 H88 C128 N16 Cl8 O8'
_cell_volume   3124.08283638
_cell_formula_units_Z   4
loop_
 _symmetry_equiv_pos_site_id
 _symmetry_equiv_pos_as_xyz
  1  'x, y, z'
loop_
 _atom_site_type_symbol
 _atom_site_label
 _atom_site_symmetry_multiplicity
 _atom_site_fract_x
 _atom_site_fract_y
 _atom_site_fract_z
 _atom_site_occupancy
 _atom_site_pbe_bader_charge
 _atom_site_pbe_bader_spin_density
 _atom_site_pbe_cm5_charge
 _atom_site_pbe_ddec_charge
 _atom_site_pbe_ddec_spin_density
 _atom_site_pbe_ddec_sum_bond_order
 _atom_site_pbe_magmom
Hg  Hg0  1  0.69656426  0.03078969  0.33899156  1  0.800048  0  0.512805  0.525861  0  2.651396  0
Hg  Hg1  1  0.19656369  0.46921008  0.66100848  1  0.800056  0  0.512791  0.525827  0  2.651435  0
Hg  Hg2  1  0.30343733  0.96921010  0.66100902  1  0.800068  0  0.512816  0.525845  0  2.651384  0
Hg  Hg3  1  0.80343619  0.53079034  0.33898930  1  0.800036  0  0.512804  0.525841  0  2.651413  0
H  H4  1  0.14898742  0.73206038  0.26687000  1  0.536833  0  0.299948  0.272026  0  1.031108  0
H  H5  1  0.64898891  0.76793968  0.73313177  1  0.536825  0  0.29995  0.271996  0  1.031043  0
H  H6  1  0.85101246  0.26794004  0.73312779  1  0.537166  0  0.299935  0.271953  0  1.031177  0
H  H7  1  0.35101268  0.23206138  0.26687144  1  0.53682  0  0.29993  0.271988  0  1.031138  0
H  H8  1  0.15445386  0.48144041  0.23669868  1  0.546251  0  0.301606  0.284883  0  1.015837  0
H  H9  1  0.65445265  0.01855943  0.76330080  1  0.545728  0  0.301616  0.284846  0  1.015831  0
H  H10  1  0.84554774  0.51855810  0.76329926  1  0.545784  0  0.30158  0.284766  0  1.015954  0
H  H11  1  0.34554637  0.98143909  0.23669890  1  0.5457  0  0.301603  0.284873  0  1.015839  0
H  H12  1  0.97239898  0.07454719  0.34604923  1  0.119099  0  0.111392  0.084223  0  0.999464  0
H  H13  1  0.47239939  0.42545276  0.65395199  1  0.1191  0  0.111389  0.084231  0  0.999461  0
H  H14  1  0.02760262  0.92545323  0.65395325  1  0.11911  0  0.111378  0.084209  0  0.999447  0
H  H15  1  0.52760135  0.57454766  0.34604755  1  0.119091  0  0.111402  0.084259  0  0.999406  0
H  H16  1  0.16353805  0.00923417  0.29952968  1  0.094509  0  0.106725  0.108959  0  1.033024  0
H  H17  1  0.66353803  0.49076820  0.70046802  1  0.094408  0  0.106702  0.108911  0  1.03306  0
H  H18  1  0.83646269  0.99076753  0.70047015  1  0.094541  0  0.106707  0.108938  0  1.033002  0
H  H19  1  0.33646185  0.50923413  0.29952961  1  0.09449  0  0.106744  0.108995  0  1.033017  0
H  H20  1  0.99166949  0.76533381  0.23300893  1  0.099455  0  0.115675  0.125024  0  1.006134  0
H  H21  1  0.49166701  0.73466758  0.76699076  1  0.099452  0  0.115658  0.124999  0  1.00604  0
H  H22  1  0.00833210  0.23466788  0.76699091  1  0.099434  0  0.115658  0.125016  0  1.006103  0
H  H23  1  0.50833115  0.26533284  0.23300878  1  0.099467  0  0.115645  0.124971  0  1.006087  0
H  H24  1  0.80871385  0.84153029  0.27794141  1  0.119015  0  0.103521  0.078727  0  1.034382  0
H  H25  1  0.30870989  0.65846950  0.72205794  1  0.119007  0  0.103525  0.078752  0  1.034405  0
H  H26  1  0.19128861  0.15846950  0.72205858  1  0.119004  0  0.103523  0.078716  0  1.034458  0
H  H27  1  0.69128827  0.34153092  0.27794220  1  0.118993  0  0.103521  0.078728  0  1.034402  0
H  H28  1  0.43717288  0.79117479  0.28445799  1  0.118709  0  0.09703  0.115428  0  1.027812  0
H  H29  1  0.93717112  0.70882606  0.71554334  1  0.118732  0  0.097044  0.115463  0  1.027788  0
H  H30  1  0.56282700  0.20882690  0.71554185  1  0.118715  0  0.09704  0.115449  0  1.027821  0
H  H31  1  0.06282790  0.29117500  0.28445752  1  0.118733  0  0.097042  0.11544  0  1.027787  0
H  H32  1  0.59964779  0.69270665  0.24012514  1  0.087155  0  0.094075  0.102379  0  1.026663  0
H  H33  1  0.09964767  0.80729539  0.75987358  1  0.087152  0  0.094078  0.102403  0  1.026607  0
H  H34  1  0.40035123  0.30729441  0.75987514  1  0.087159  0  0.094078  0.102389  0  1.026619  0
H  H35  1  0.90035307  0.19270630  0.24012567  1  0.087186  0  0.094082  0.102393  0  1.026616  0
H  H36  1  0.67216148  0.55473628  0.16267923  1  0.056648  0  0.096487  0.097128  0  1.01509  0
H  H37  1  0.17215922  0.94526437  0.83731975  1  0.056684  0  0.096478  0.097118  0  1.015083  0
H  H38  1  0.32783926  0.44526414  0.83732267  1  0.056675  0  0.096477  0.097127  0  1.01506  0
H  H39  1  0.82783895  0.05473795  0.16267789  1  0.056653  0  0.096474  0.097108  0  1.015042  0
H  H40  1  0.63678208  0.41032330  0.07583330  1  0.053158  0  0.095744  0.092585  0  1.03141  0
H  H41  1  0.13678085  0.08967594  0.92416838  1  0.052891  0  0.095764  0.092607  0  1.03136  0
H  H42  1  0.36321780  0.58967585  0.92416947  1  0.053173  0  0.09577  0.092669  0  1.031335  0
H  H43  1  0.86321903  0.91032513  0.07583424  1  0.052927  0  0.095755  0.092607  0  1.03139  0
H  H44  1  0.43818197  0.36599411  0.02931321  1  0.110276  0  0.094276  0.092221  0  1.036011  0
H  H45  1  0.93818208  0.13400653  0.97068876  1  0.110302  0  0.094266  0.092182  0  1.036036  0
H  H46  1  0.56181963  0.63400440  0.97068883  1  0.110355  0  0.094289  0.092231  0  1.036009  0
H  H47  1  0.06182037  0.86599390  0.02931665  1  0.110278  0  0.094291  0.09224  0  1.036046  0
H  H48  1  0.27578430  0.46606309  0.06813430  1  0.048213  0  0.096328  0.092415  0  1.034501  0
H  H49  1  0.77578215  0.03393910  0.93186687  1  0.048283  0  0.096356  0.092448  0  1.03449  0
H  H50  1  0.72421730  0.53393797  0.93186715  1  0.048245  0  0.096358  0.092463  0  1.034496  0
H  H51  1  0.22421945  0.96606197  0.06813634  1  0.048292  0  0.096367  0.092448  0  1.034497  0
H  H52  1  0.29299231  0.69470089  0.04305912  1  0.087641  0  0.100262  0.101424  0  1.027428  0
H  H53  1  0.79299021  0.80529956  0.95694214  1  0.087683  0  0.100273  0.101444  0  1.027416  0
H  H54  1  0.70701272  0.30529698  0.95694161  1  0.087661  0  0.100238  0.101404  0  1.027502  0
H  H55  1  0.20700882  0.19470213  0.04306004  1  0.087633  0  0.100247  0.101412  0  1.027417  0
H  H56  1  0.22297524  0.74712003  0.92701181  1  0.057427  0  0.099794  0.098395  0  0.995073  0
H  H57  1  0.72297350  0.75287926  0.07298861  1  0.057437  0  0.099808  0.098416  0  0.995019  0
H  H58  1  0.77702293  0.25288230  0.07299228  1  0.057585  0  0.099764  0.09828  0  0.995104  0
H  H59  1  0.27702552  0.24712052  0.92701255  1  0.057438  0  0.099805  0.098397  0  0.995042  0
H  H60  1  0.01919911  0.72367781  0.88184203  1  0.088094  0  0.092513  0.098086  0  1.044236  0
H  H61  1  0.51919644  0.77632055  0.11815820  1  0.088058  0  0.092497  0.098075  0  1.044202  0
H  H62  1  0.98080248  0.27632389  0.11816191  1  0.087947  0  0.092513  0.098073  0  1.044355  0
H  H63  1  0.48080258  0.22367923  0.88184355  1  0.088102  0  0.092515  0.098122  0  1.044225  0
H  H64  1  0.88647904  0.64643335  0.95160282  1  0.063524  0  0.100747  0.10586  0  1.011452  0
H  H65  1  0.38647724  0.85356504  0.04839737  1  0.063388  0  0.100764  0.105852  0  1.011453  0
H  H66  1  0.11351998  0.35356453  0.04839732  1  0.063193  0  0.100711  0.105788  0  1.011572  0
H  H67  1  0.61352178  0.14643475  0.95160438  1  0.063693  0  0.100748  0.105861  0  1.011366  0
H  H68  1  0.84964322  0.56961863  0.05780305  1  0.060046  0  0.101644  0.103483  0  1.005388  0
H  H69  1  0.34964354  0.93038109  0.94219628  1  0.060001  0  0.101637  0.103439  0  1.005406  0
H  H70  1  0.15035666  0.43037924  0.94219416  1  0.059972  0  0.101625  0.103465  0  1.005316  0
H  H71  1  0.65035548  0.06961933  0.05780503  1  0.060054  0  0.101642  0.103464  0  1.005402  0
H  H72  1  0.92000861  0.51693640  0.17512939  1  0.073578  0  0.088135  0.100458  0  1.065319  0
H  H73  1  0.42000795  0.98306321  0.82487048  1  0.07357  0  0.088119  0.100457  0  1.06535  0
H  H74  1  0.07999298  0.48305829  0.82486650  1  0.073992  0  0.088122  0.100443  0  1.065366  0
H  H75  1  0.57999193  0.01693594  0.17512995  1  0.073573  0  0.08814  0.100471  0  1.065371  0
H  H76  1  0.14511341  0.69087361  0.46603628  1  0.143182  0  0.111662  0.128459  0  0.997455  0
H  H77  1  0.64511655  0.80912709  0.53396447  1  0.143186  0  0.111634  0.128428  0  0.99745  0
H  H78  1  0.85488475  0.30912681  0.53396151  1  0.143226  0  0.111639  0.12846  0  0.997436  0
H  H79  1  0.35488591  0.19087142  0.46603581  1  0.143231  0  0.111632  0.128451  0  0.997456  0
H  H80  1  0.17628349  0.63839078  0.59158150  1  0.118546  0  0.104698  0.084342  0  1.023824  0
H  H81  1  0.67628479  0.86160923  0.40841791  1  0.118666  0  0.104704  0.084342  0  1.023806  0
H  H82  1  0.82371467  0.36160963  0.40841570  1  0.118645  0  0.104696  0.084332  0  1.023757  0
H  H83  1  0.32371681  0.13838992  0.59158193  1  0.118644  0  0.104711  0.084321  0  1.023837  0
H  H84  1  0.15364466  0.38671096  0.46362938  1  0.087114  0  0.115148  0.088298  0  0.982008  0
H  H85  1  0.65363980  0.11328952  0.53636907  1  0.087095  0  0.115159  0.08834  0  0.982008  0
H  H86  1  0.84635865  0.61329009  0.53636797  1  0.087015  0  0.115165  0.088324  0  0.982089  0
H  H87  1  0.34635751  0.88670900  0.46363004  1  0.087058  0  0.115151  0.088333  0  0.982053  0
H  H88  1  0.11536589  0.42841450  0.33389427  1  0.141141  0  0.104151  0.112788  0  1.063121  0
H  H89  1  0.61536712  0.07158540  0.66610522  1  0.141149  0  0.104149  0.112752  0  1.063164  0
H  H90  1  0.88463313  0.57158592  0.66610293  1  0.141196  0  0.104134  0.112797  0  1.063103  0
H  H91  1  0.38463361  0.92841311  0.33389448  1  0.141144  0  0.10415  0.112761  0  1.063146  0
C  C92  1  0.98176322  0.00614224  0.32126064  1  0.422342  0  0.047985  0.092678  0  3.956266  0
C  C93  1  0.48176256  0.49385770  0.67874058  1  0.422331  0  0.047959  0.092653  0  3.956329  0
C  C94  1  0.01823752  0.99385755  0.67874169  1  0.42234  0  0.047961  0.092651  0  3.956186  0
C  C95  1  0.51823732  0.50614272  0.32125838  1  0.422314  0  0.047993  0.09265  0  3.956209  0
C  C96  1  0.08747951  0.96962002  0.29568518  1  -0.00933  0  -0.074733  -0.131543  0  3.936031  0
C  C97  1  0.58747915  0.53037950  0.70431237  1  -0.00923  0  -0.074678  -0.131481  0  3.936035  0
C  C98  1  0.91252122  0.03038040  0.70431554  1  -0.009348  0  -0.074744  -0.131576  0  3.935965  0
C  C99  1  0.41252073  0.46962219  0.29568454  1  -0.009361  0  -0.074769  -0.131601  0  3.936051  0
C  C100  1  0.09386745  0.88168001  0.26423850  1  0.013131  0  0.009941  0.018904  0  3.95284  0
C  C101  1  0.59386852  0.61831950  0.73576080  1  0.013125  0  0.009902  0.018839  0  3.952972  0
C  C102  1  0.90613243  0.11831977  0.73576207  1  0.013128  0  0.009986  0.018943  0  3.952898  0
C  C103  1  0.40613050  0.38168219  0.26423669  1  0.013134  0  0.009919  0.018884  0  3.95286  0
C  C104  1  0.99263661  0.83390002  0.25799969  1  -0.046651  0  -0.070093  -0.126659  0  3.899945  0
C  C105  1  0.49263606  0.66609946  0.74199898  1  -0.046562  0  -0.070113  -0.126649  0  3.899949  0
C  C106  1  0.00736413  0.16610040  0.74199986  1  -0.046598  0  -0.070086  -0.126671  0  3.89996  0
C  C107  1  0.50736296  0.33390159  0.25799954  1  -0.046573  0  -0.070076  -0.126611  0  3.899858  0
C  C108  1  0.89022924  0.87565411  0.28366804  1  0.527245  0  0.045986  0.094707  0  3.946722  0
C  C109  1  0.39022710  0.62434491  0.71633288  1  0.527154  0  0.045987  0.094648  0  3.946803  0
C  C110  1  0.10977322  0.12434695  0.71633341  1  0.527169  0  0.045976  0.094705  0  3.946754  0
C  C111  1  0.60977192  0.37565551  0.28366726  1  0.52723  0  0.046003  0.094728  0  3.946743  0
C  C112  1  0.20712283  0.84103986  0.23669316  1  1.429366  0  0.247967  0.479606  0  4.118202  0
C  C113  1  0.70712121  0.65895946  0.76330492  1  1.429315  0  0.248038  0.479661  0  4.118098  0
C  C114  1  0.79287876  0.15896056  0.76330580  1  1.429345  0  0.247982  0.479603  0  4.118166  0
C  C115  1  0.29287867  0.34103969  0.23669317  1  1.429328  0  0.247956  0.47954  0  4.118238  0
C  C116  1  0.31066063  0.70548121  0.21532320  1  0.302547  0  0.088355  0.184901  0  4.01094  0
C  C117  1  0.81065946  0.79451858  0.78468026  1  0.302435  0  0.088252  0.18475  0  4.011029  0
C  C118  1  0.68933925  0.29451921  0.78467577  1  0.302772  0  0.088315  0.184843  0  4.010728  0
C  C119  1  0.18934042  0.20548311  0.21532193  1  0.302827  0  0.088342  0.184906  0  4.010899  0
C  C120  1  0.42283369  0.72932676  0.24338908  1  -0.04745  0  -0.09592  -0.160928  0  4.001371  0
C  C121  1  0.92283002  0.77067285  0.75661314  1  -0.047484  0  -0.095939  -0.160999  0  4.001449  0
C  C122  1  0.57716705  0.27067367  0.75661105  1  -0.047462  0  -0.095924  -0.160932  0  4.001433  0
C  C123  1  0.07716900  0.22932630  0.24338670  1  -0.047427  0  -0.095923  -0.160946  0  4.001375  0
C  C124  1  0.51305509  0.67464827  0.21804356  1  -0.045059  0  -0.090276  -0.124564  0  4.006837  0
C  C125  1  0.01305320  0.82535074  0.78195741  1  -0.044949  0  -0.09029  -0.124583  0  4.006653  0
C  C126  1  0.48694565  0.32535215  0.78195658  1  -0.045035  0  -0.090307  -0.124612  0  4.006815  0
C  C127  1  0.98694668  0.17464714  0.21804332  1  -0.045082  0  -0.09029  -0.124564  0  4.006782  0
C  C128  1  0.49447113  0.59344385  0.16540017  1  -0.03179  0  -0.011308  0.064467  0  4.020576  0
C  C129  1  0.99447047  0.90655817  0.83460025  1  -0.031776  0  -0.011299  0.064492  0  4.020515  0
C  C130  1  0.50552875  0.40655657  0.83460055  1  -0.031793  0  -0.011306  0.064476  0  4.020592  0
C  C131  1  0.00553027  0.09344479  0.16539871  1  -0.031784  0  -0.011383  0.064347  0  4.020614  0
C  C132  1  0.58579794  0.53499766  0.14125423  1  -0.120508  0  -0.093449  -0.134589  0  3.992598  0
C  C133  1  0.08579647  0.96500505  0.85874405  1  -0.120542  0  -0.093401  -0.134566  0  3.992663  0
C  C134  1  0.41420280  0.46500340  0.85874605  1  -0.098342  0  -0.093407  -0.134551  0  3.992601  0
C  C135  1  0.91420256  0.03499791  0.14125373  1  -0.120431  0  -0.093411  -0.13453  0  3.992579  0
C  C136  1  0.56578760  0.45471502  0.09331852  1  0.019172  0  -0.093623  -0.075045  0  4.017029  0
C  C137  1  0.06578650  0.04528497  0.90668217  1  0.019461  0  -0.093745  -0.075194  0  4.017141  0
C  C138  1  0.43421314  0.54528414  0.90668484  1  -0.002989  0  -0.093724  -0.075262  0  4.017137  0
C  C139  1  0.93420994  0.95471672  0.09331942  1  0.019293  0  -0.09366  -0.075053  0  4.017014  0
C  C140  1  0.45326009  0.42979881  0.06680008  1  -0.04335  0  -0.091843  -0.071853  0  4.003274  0
C  C141  1  0.95325869  0.07020245  0.93320144  1  -0.043508  0  -0.091798  -0.071719  0  4.003264  0
C  C142  1  0.54674151  0.57020098  0.93320284  1  -0.04343  0  -0.091823  -0.071749  0  4.003318  0
C  C143  1  0.04673862  0.92979798  0.06680045  1  -0.043413  0  -0.091874  -0.071931  0  4.003246  0
C  C144  1  0.36265763  0.48552254  0.08816475  1  -0.014813  0  -0.091108  -0.124237  0  3.983406  0
C  C145  1  0.86265640  0.01447950  0.91183521  1  -0.01487  0  -0.091117  -0.124295  0  3.98335  0
C  C146  1  0.63734310  0.51447788  0.91183480  1  -0.014907  0  -0.091101  -0.124282  0  3.98343  0
C  C147  1  0.13734262  0.98551965  0.08816405  1  -0.014817  0  -0.091108  -0.1242  0  3.983256  0
C  C148  1  0.38004952  0.56840850  0.13806074  1  -0.043337  0  -0.006455  0.035944  0  3.970657  0
C  C149  1  0.88004877  0.93159308  0.86193959  1  -0.043289  0  -0.006443  0.035945  0  3.970585  0
C  C150  1  0.61995122  0.43159128  0.86193866  1  -0.043317  0  -0.006452  0.03594  0  3.970665  0
C  C151  1  0.11995368  0.06840988  0.13806054  1  -0.04328  0  -0.006401  0.035937  0  3.970578  0
C  C152  1  0.28793228  0.62703670  0.16297522  1  0.006284  0  -0.006097  -0.051953  0  3.952511  0
C  C153  1  0.78793000  0.87296376  0.83702722  1  0.006373  0  -0.006004  -0.051752  0  3.952286  0
C  C154  1  0.71207017  0.37296372  0.83702550  1  0.006066  0  -0.006066  -0.051936  0  3.952392  0
C  C155  1  0.21206902  0.12703666  0.16297409  1  0.005939  0  -0.006097  -0.051886  0  3.952443  0
C  C156  1  0.16839819  0.60859953  0.13226092  1  0.021674  0  -0.001812  -0.045642  0  3.951986  0
C  C157  1  0.66839670  0.89140114  0.86774099  1  0.021747  0  -0.001856  -0.045855  0  3.952011  0
C  C158  1  0.83160169  0.39139962  0.86773951  1  0.021681  0  -0.001793  -0.045621  0  3.951863  0
C  C159  1  0.33160146  0.10859993  0.13226164  1  0.021647  0  -0.001847  -0.045729  0  3.952013  0
C  C160  1  0.13011170  0.63911126  0.06454557  1  -0.038661  0  -0.006276  0.037355  0  3.954185  0
C  C161  1  0.63011029  0.86088883  0.93545562  1  -0.038697  0  -0.006311  0.037436  0  3.954044  0
C  C162  1  0.86988818  0.36088853  0.93545618  1  -0.038605  0  -0.006303  0.037325  0  3.954033  0
C  C163  1  0.36988787  0.13911160  0.06454627  1  -0.038655  0  -0.006273  0.037279  0  3.954182  0
C  C164  1  0.20417593  0.68384333  0.02306342  1  0.002955  0  -0.093935  -0.135965  0  3.987796  0
C  C165  1  0.70417379  0.81615664  0.97693832  1  0.002938  0  -0.093859  -0.135929  0  3.987736  0
C  C166  1  0.79582566  0.31615710  0.97694023  1  0.002967  0  -0.093823  -0.135933  0  3.987853  0
C  C167  1  0.29582523  0.18384506  0.02306445  1  0.002953  0  -0.093853  -0.135862  0  3.987746  0
C  C168  1  0.16461743  0.71368126  0.95878440  1  -0.081187  0  -0.092744  -0.083227  0  4.024922  0
C  C169  1  0.66461560  0.78631814  0.04121605  1  -0.081223  0  -0.092799  -0.083289  0  4.024846  0
C  C170  1  0.83538417  0.28631981  0.04121882  1  -0.081375  0  -0.092753  -0.083039  0  4.024825  0
C  C171  1  0.33538342  0.21368228  0.95878584  1  -0.081201  0  -0.092767  -0.083183  0  4.024805  0
C  C172  1  0.04913846  0.70064420  0.93312763  1  -0.038501  0  -0.094022  -0.073832  0  4.016574  0
C  C173  1  0.54913744  0.79935475  0.06687331  1  -0.038504  0  -0.094035  -0.073819  0  4.016575  0
C  C174  1  0.95086314  0.29935750  0.06687807  1  -0.03857  0  -0.094051  -0.073904  0  4.016657  0
C  C175  1  0.45086158  0.20064567  0.93312858  1  -0.038541  0  -0.094028  -0.073932  0  4.016577  0
C  C176  1  0.97505768  0.65775441  0.97223381  1  -0.027781  0  -0.090093  -0.129756  0  3.967455  0
C  C177  1  0.47505678  0.84224447  0.02776707  1  -0.027685  0  -0.09007  -0.129769  0  3.967448  0
C  C178  1  0.02494134  0.34224602  0.02777160  1  -0.027443  0  -0.09004  -0.129713  0  3.967312  0
C  C179  1  0.52494310  0.15775659  0.97223556  1  -0.027946  0  -0.090123  -0.129816  0  3.967353  0
C  C180  1  0.01284589  0.62610388  0.03842133  1  -0.076551  0  -0.008722  0.070396  0  4.021094  0
C  C181  1  0.51284358  0.87389640  0.96157817  1  -0.076517  0  -0.008706  0.070441  0  4.021025  0
C  C182  1  0.98715399  0.37389590  0.96157984  1  -0.075689  0  -0.008699  0.070514  0  4.020782  0
C  C183  1  0.48715544  0.12610530  0.03842402  1  -0.076462  0  -0.008692  0.070583  0  4.020981  0
C  C184  1  0.93794380  0.58137707  0.07905282  1  -0.115927  0  -0.087875  -0.120046  0  4.000472  0
C  C185  1  0.43794159  0.91862378  0.92094734  1  -0.116058  0  -0.087908  -0.120049  0  4.000471  0
C  C186  1  0.06205608  0.41862017  0.92094424  1  -0.116552  0  -0.087886  -0.120093  0  4.000442  0
C  C187  1  0.56205743  0.08137856  0.07905499  1  -0.11604  0  -0.087948  -0.120186  0  4.000596  0
C  C188  1  0.97579087  0.55256200  0.14394861  1  0.0428  0  -0.094903  -0.154018  0  4.000516  0
C  C189  1  0.47578859  0.94743878  0.85605095  1  0.042913  0  -0.094918  -0.154042  0  4.000485  0
C  C190  1  0.02420987  0.44743396  0.85604699  1  0.042386  0  -0.094889  -0.153993  0  4.000494  0
C  C191  1  0.52421043  0.05256228  0.14395051  1  0.042874  0  -0.094885  -0.153978  0  4.000555  0
C  C192  1  0.09041613  0.56758452  0.17126389  1  0.360319  0  0.08713  0.182542  0  3.985928  0
C  C193  1  0.59041453  0.93241500  0.82873542  1  0.360314  0  0.087155  0.182599  0  3.985853  0
C  C194  1  0.90958375  0.43241335  0.82873273  1  0.360261  0  0.08709  0.182479  0  3.985937  0
C  C195  1  0.40958363  0.06758479  0.17126457  1  0.360253  0  0.087111  0.182524  0  3.985952  0
C  C196  1  0.10830413  0.59668172  0.31608534  1  1.405203  0  0.237512  0.461046  0  4.141706  0
C  C197  1  0.60830695  0.90331840  0.68391293  1  1.405174  0  0.237532  0.461147  0  4.141669  0
C  C198  1  0.89169403  0.40331742  0.68391098  1  1.405286  0  0.237552  0.46112  0  4.141855  0
C  C199  1  0.39169379  0.09668075  0.31608750  1  1.405182  0  0.237541  0.461135  0  4.14175  0
C  C200  1  0.13055977  0.56348036  0.38962348  1  -0.05467  0  0.004415  0.017854  0  3.960585  0
C  C201  1  0.63056508  0.93652036  0.61037492  1  -0.054971  0  0.004346  0.017659  0  3.960727  0
C  C202  1  0.86944011  0.43652133  0.61037459  1  -0.054935  0  0.004366  0.017772  0  3.960682  0
C  C203  1  0.36943480  0.06347879  0.38962433  1  -0.055006  0  0.004356  0.017737  0  3.960681  0
C  C204  1  0.14714838  0.62300928  0.46331641  1  0.031606  0  -0.072321  -0.128277  0  3.909272  0
C  C205  1  0.64715217  0.87699077  0.53668243  1  0.031564  0  -0.072256  -0.12813  0  3.909211  0
C  C206  1  0.85284979  0.37699177  0.53667976  1  0.031498  0  -0.072335  -0.128317  0  3.909311  0
C  C207  1  0.35284943  0.12300710  0.46331654  1  0.031592  0  -0.072307  -0.12828  0  3.909324  0
C  C208  1  0.16485625  0.59406257  0.53274597  1  0.414408  0  0.043269  0.088149  0  3.945355  0
C  C209  1  0.66485739  0.90593746  0.46725345  1  0.414299  0  0.043262  0.088136  0  3.945414  0
C  C210  1  0.83514277  0.40593784  0.46725065  1  0.414464  0  0.043283  0.088194  0  3.945381  0
C  C211  1  0.33514249  0.09406042  0.53274669  1  0.414396  0  0.043206  0.088141  0  3.945282  0
C  C212  1  0.15135567  0.45344092  0.46119611  1  0.499834  0  0.04476  0.091979  0  3.948803  0
C  C213  1  0.65135529  0.04655892  0.53880337  1  0.500009  0  0.044744  0.091894  0  3.948885  0
C  C214  1  0.84864507  0.54655949  0.53880109  1  0.500029  0  0.044771  0.092013  0  3.948787  0
C  C215  1  0.34864373  0.95343959  0.46119633  1  0.499994  0  0.044749  0.09186  0  3.948898  0
C  C216  1  0.13200258  0.47693065  0.38900989  1  -0.03503  0  -0.083656  -0.157972  0  3.960158  0
C  C217  1  0.63200654  0.02307114  0.61099003  1  -0.034913  0  -0.083665  -0.157883  0  3.960255  0
C  C218  1  0.86799816  0.52306977  0.61098789  1  -0.034817  0  -0.083647  -0.157999  0  3.960085  0
C  C219  1  0.36799419  0.97692801  0.38900981  1  -0.034893  0  -0.083647  -0.157865  0  3.960174  0
N  N220  1  0.88523593  0.95993712  0.31530020  1  -1.210417  0  -0.313039  -0.212897  0  3.514709  0
N  N221  1  0.38523577  0.54006127  0.68470057  1  -1.210402  0  -0.31298  -0.212794  0  3.51463  0
N  N222  1  0.11476481  0.04006267  0.68470154  1  -1.210381  0  -0.313013  -0.212826  0  3.514566  0
N  N223  1  0.61476325  0.45993915  0.31529897  1  -1.210382  0  -0.313006  -0.212851  0  3.514692  0
N  N224  1  0.21618070  0.75990437  0.24259537  1  -1.285808  0  -0.398446  -0.382978  0  3.62067  0
N  N225  1  0.71618055  0.74009622  0.75740769  1  -1.285767  0  -0.398441  -0.382871  0  3.620455  0
N  N226  1  0.78381918  0.24009605  0.75740301  1  -1.286171  0  -0.398409  -0.382836  0  3.620616  0
N  N227  1  0.28382018  0.25990421  0.24259538  1  -1.285809  0  -0.398463  -0.382952  0  3.620595  0
N  N228  1  0.12245384  0.54236756  0.24310520  1  -1.293387  0  -0.401452  -0.397081  0  3.599434  0
N  N229  1  0.62245305  0.95763063  0.75689380  1  -1.292809  0  -0.401436  -0.397012  0  3.599509  0
N  N230  1  0.87754689  0.45763031  0.75689200  1  -1.292972  0  -0.40142  -0.39689  0  3.599567  0
N  N231  1  0.37754597  0.04236788  0.24310590  1  -1.292753  0  -0.401422  -0.397038  0  3.599514  0
N  N232  1  0.16722165  0.51080800  0.53159805  1  -1.20671  0  -0.309283  -0.208363  0  3.508898  0
N  N233  1  0.66722083  0.98919202  0.46840137  1  -1.206725  0  -0.309247  -0.208334  0  3.509006  0
N  N234  1  0.83277823  0.48919241  0.46839857  1  -1.206947  0  -0.309252  -0.208363  0  3.508948  0
N  N235  1  0.33277819  0.01080649  0.53159892  1  -1.206762  0  -0.309169  -0.208219  0  3.508707  0
Cl  Cl236  1  0.60263497  0.90447990  0.26267444  1  -0.508767  0  -0.237371  -0.381123  0  1.329161  0
Cl  Cl237  1  0.10263291  0.59551959  0.73732310  1  -0.508769  0  -0.237371  -0.381125  0  1.329199  0
Cl  Cl238  1  0.39736835  0.09551924  0.73732423  1  -0.508779  0  -0.237376  -0.381136  0  1.32919  0
Cl  Cl239  1  0.89736611  0.40447955  0.26267322  1  -0.508754  0  -0.237371  -0.381121  0  1.329194  0
Cl  Cl240  1  0.74486774  0.17763590  0.37518874  1  -0.501862  0  -0.296322  -0.404571  0  1.152509  0
Cl  Cl241  1  0.24486761  0.32236442  0.62480908  1  -0.501858  0  -0.296322  -0.404565  0  1.152514  0
Cl  Cl242  1  0.25513128  0.82236325  0.62481111  1  -0.501875  0  -0.296324  -0.404564  0  1.152475  0
Cl  Cl243  1  0.75513056  0.67763663  0.37518944  1  -0.501879  0  -0.296322  -0.404562  0  1.152498  0
O  O244  1  0.28528855  0.87973747  0.21027353  1  -1.17462  0  -0.293871  -0.494485  0  2.200016  0
O  O245  1  0.78528704  0.62025981  0.78972115  1  -1.174543  0  -0.293864  -0.494461  0  2.200015  0
O  O246  1  0.71471390  0.12026295  0.78972543  1  -1.174548  0  -0.293887  -0.494496  0  2.199949  0
O  O247  1  0.21471284  0.37973679  0.21027401  1  -1.174578  0  -0.293808  -0.494399  0  2.200033  0
O  O248  1  0.07785491  0.67244355  0.32490598  1  -1.156385  0  -0.300639  -0.502381  0  2.198442  0
O  O249  1  0.57785710  0.82755535  0.67509025  1  -1.156365  0  -0.300672  -0.502458  0  2.198335  0
O  O250  1  0.92213982  0.32755496  0.67508902  1  -1.156375  0  -0.300653  -0.502433  0  2.198434  0
O  O251  1  0.42214449  0.17244252  0.32490871  1  -1.156356  0  -0.300651  -0.50243  0  2.198423  0
