# generated using pymatgen
data_CdH7C11S2N3O
_symmetry_space_group_name_H-M   'P 1'
_cell_length_a   8.25539331
_cell_length_b   8.30577294
_cell_length_c   11.15827204
_cell_angle_alpha   106.99433296
_cell_angle_beta   92.28850497
_cell_angle_gamma   117.39392284
_symmetry_Int_Tables_number   1
_chemical_formula_structural   CdH7C11S2N3O
_chemical_formula_sum   'Cd2 H14 C22 S4 N6 O2'
_cell_volume   635.78460433
_cell_formula_units_Z   2
loop_
 _symmetry_equiv_pos_site_id
 _symmetry_equiv_pos_as_xyz
  1  'x, y, z'
loop_
 _atom_site_type_symbol
 _atom_site_label
 _atom_site_symmetry_multiplicity
 _atom_site_fract_x
 _atom_site_fract_y
 _atom_site_fract_z
 _atom_site_occupancy
 _atom_site_hle17_bader_spin_density
 _atom_site_hle17_ddec_charge
 _atom_site_hle17_ddec_spin_density
 _atom_site_hle17_ddec_sum_bond_order
 _atom_site_hle17_magmom
 _atom_site_hse06_10hf_bader_spin_density
 _atom_site_hse06_10hf_ddec_charge
 _atom_site_hse06_10hf_ddec_spin_density
 _atom_site_hse06_10hf_ddec_sum_bond_order
 _atom_site_hse06_10hf_magmom
 _atom_site_hse06_bader_spin_density
 _atom_site_hse06_ddec_charge
 _atom_site_hse06_ddec_spin_density
 _atom_site_hse06_ddec_sum_bond_order
 _atom_site_hse06_magmom
 _atom_site_pbe_bader_spin_density
 _atom_site_pbe_cm5_charge
 _atom_site_pbe_ddec_charge
 _atom_site_pbe_ddec_spin_density
 _atom_site_pbe_ddec_sum_bond_order
 _atom_site_pbe_magmom
Cd  Cd0  1  0.74747099  0.37781291  0.02009748  1  0  1.027062  0  1.96527  0  0  0.865725  0  2.437187  0  0  0.910149  0  2.395985  0  0  0.71759  0.835069  0  2.464896  0
Cd  Cd1  1  0.25252827  0.62218549  0.97990385  1  0  1.027058  0  1.965259  0  0  0.865715  0  2.43719  0  0  0.910141  0  2.395987  0  0  0.717573  0.835058  0  2.464897  0
H  H2  1  0.00252207  0.89826700  0.12863505  1  0  0.115162  0  0.961517  0  0  0.11681  0  1.036399  0  0  0.12021  0  1.032595  0  0  0.120027  0.1138  0  1.040301  0
H  H3  1  0.99747963  0.10173141  0.87136367  1  0  0.115097  0  0.961575  0  0  0.116772  0  1.036425  0  0  0.120174  0  1.032622  0  0  0.120014  0.113762  0  1.04033  0
H  H4  1  0.08522242  0.19419754  0.31807029  1  0  0.109906  0  0.962381  0  0  0.118506  0  1.022713  0  0  0.121416  0  1.023183  0  0  0.104055  0.116336  0  1.022724  0
H  H5  1  0.91477686  0.80580087  0.68192835  1  0  0.109883  0  0.962413  0  0  0.118487  0  1.022738  0  0  0.121396  0  1.023211  0  0  0.104054  0.116318  0  1.022748  0
H  H6  1  0.23759145  0.23072227  0.53364297  1  0  0.09814  0  0.959922  0  0  0.104969  0  1.030673  0  0  0.108495  0  1.027508  0  0  0.099343  0.102278  0  1.033094  0
H  H7  1  0.76240609  0.76927758  0.46635773  1  0  0.098154  0  0.959917  0  0  0.104979  0  1.030672  0  0  0.108507  0  1.027504  0  0  0.099349  0.102289  0  1.033094  0
H  H8  1  0.35239938  0.08946739  0.66199804  1  0  0.107404  0  0.950762  0  0  0.113874  0  1.016895  0  0  0.116419  0  1.016629  0  0  0.10275  0.112315  0  1.016779  0
H  H9  1  0.64760006  0.91053391  0.33800303  1  0  0.107406  0  0.950791  0  0  0.113881  0  1.016903  0  0  0.116427  0  1.016637  0  0  0.102752  0.112322  0  1.016788  0
H  H10  1  0.40260900  0.82192697  0.67244923  1  0  0.094586  0  0.980029  0  0  0.100074  0  1.049266  0  0  0.102827  0  1.048681  0  0  0.092657  0.097698  0  1.050739  0
H  H11  1  0.59739165  0.17807433  0.32755188  1  0  0.094621  0  0.979993  0  0  0.100076  0  1.04926  0  0  0.102829  0  1.048675  0  0  0.092653  0.097701  0  1.050735  0
H  H12  1  0.30668622  0.53281605  0.47757965  1  0  0.085741  0  0.951676  0  0  0.097977  0  1.010628  0  0  0.100419  0  1.009569  0  0  0.098635  0.096483  0  1.010852  0
H  H13  1  0.69331876  0.46718669  0.52242012  1  0  0.085732  0  0.951668  0  0  0.097968  0  1.010623  0  0  0.100409  0  1.009563  0  0  0.098628  0.096473  0  1.010847  0
H  H14  1  0.16045207  0.51080970  0.26843341  1  0  0.114654  0  0.992682  0  0  0.117737  0  1.064658  0  0  0.121523  0  1.06241  0  0  0.10026  0.114999  0  1.066382  0
H  H15  1  0.83955222  0.48919160  0.73156692  1  0  0.114642  0  0.992697  0  0  0.117723  0  1.064667  0  0  0.121509  0  1.062418  0  0  0.100233  0.114984  0  1.066392  0
C  C16  1  0.65697341  0.00167587  0.10441450  1  0  0.304281  0  4.004047  0  0  0.286467  0  4.301186  0  0  0.307744  0  4.318254  0  0  0.152988  0.271891  0  4.289158  0
C  C17  1  0.34303986  0.99833410  0.89558889  1  0  0.304406  0  4.004041  0  0  0.286602  0  4.301129  0  0  0.307875  0  4.318191  0  0  0.153108  0.27203  0  4.289107  0
C  C18  1  0.42433776  0.43823080  0.13282267  1  0  0.312681  0  3.973269  0  0  0.296908  0  4.26701  0  0  0.317179  0  4.283513  0  0  0.152056  0.28315  0  4.255404  0
C  C19  1  0.57564978  0.56176330  0.86716929  1  0  0.312572  0  3.973171  0  0  0.296798  0  4.26692  0  0  0.317071  0  4.283427  0  0  0.152006  0.283039  0  4.255311  0
C  C20  1  0.06596232  0.92095344  0.22374826  1  0  0.039941  0  3.581744  0  0  -0.006419  0  3.848439  0  0  0.00579  0  3.856734  0  0  0.052917  -0.01504  0  3.844806  0
C  C21  1  0.93403696  0.07904497  0.77625039  1  0  0.039949  0  3.581792  0  0  -0.00644  0  3.848496  0  0  0.005774  0  3.856768  0  0  0.052922  -0.015065  0  3.844867  0
C  C22  1  0.11561377  0.08546255  0.33131051  1  0  -0.103992  0  3.766023  0  0  -0.115005  0  4.023366  0  0  -0.123143  0  4.042992  0  0  -0.084302  -0.110101  0  4.010849  0
C  C23  1  0.88438430  0.91453586  0.66868900  1  0  -0.103905  0  3.766035  0  0  -0.114922  0  4.023373  0  0  -0.123058  0  4.043003  0  0  -0.084292  -0.110018  0  4.010855  0
C  C24  1  0.19670574  0.10375367  0.44844587  1  0  -0.055049  0  3.70686  0  0  -0.087176  0  3.962935  0  0  -0.081429  0  3.977787  0  0  -0.069349  -0.090827  0  3.953224  0
C  C25  1  0.80329181  0.89624619  0.55155393  1  0  -0.055115  0  3.706914  0  0  -0.087254  0  3.962992  0  0  -0.081511  0  3.977842  0  0  -0.069352  -0.090906  0  3.953285  0
C  C26  1  0.22741009  0.95411943  0.45951274  1  0  0.022035  0  3.820127  0  0  0.045  0  4.041311  0  0  0.04098  0  4.066936  0  0  -0.001978  0.047105  0  4.024353  0
C  C27  1  0.77258919  0.04587898  0.54048591  1  0  0.022129  0  3.820136  0  0  0.045116  0  4.041269  0  0  0.041096  0  4.066897  0  0  -0.001954  0.047215  0  4.024319  0
C  C28  1  0.30932820  0.96219581  0.57675076  1  0  -0.094076  0  3.709732  0  0  -0.113289  0  3.955112  0  0  -0.115892  0  3.978308  0  0  -0.082406  -0.111915  0  3.940236  0
C  C29  1  0.69067055  0.03780405  0.42324998  1  0  -0.094113  0  3.709793  0  0  -0.113334  0  3.955161  0  0  -0.11594  0  3.978358  0  0  -0.082443  -0.111961  0  3.940287  0
C  C30  1  0.33673116  0.81271945  0.58234465  1  0  -0.06078  0  3.753244  0  0  -0.076977  0  4.005495  0  0  -0.079903  0  4.027502  0  0  -0.088076  -0.075153  0  3.991956  0
C  C31  1  0.66326950  0.18728185  0.41765646  1  0  -0.060881  0  3.753401  0  0  -0.077045  0  4.005649  0  0  -0.07997  0  4.027658  0  0  -0.088095  -0.075222  0  3.992112  0
C  C32  1  0.28234281  0.64879359  0.47139424  1  0  -0.038332  0  3.739898  0  0  -0.05189  0  3.987504  0  0  -0.051779  0  4.007636  0  0  -0.081356  -0.051313  0  3.972953  0
C  C33  1  0.71766096  0.35120915  0.52860639  1  0  -0.038263  0  3.739925  0  0  -0.051829  0  3.987522  0  0  -0.051717  0  4.007654  0  0  -0.081333  -0.051253  0  3.972973  0
C  C34  1  0.20204852  0.63473648  0.35514090  1  0  -0.132799  0  3.728239  0  0  -0.15443  0  3.980536  0  0  -0.158429  0  3.999536  0  0  -0.090109  -0.151606  0  3.96717  0
C  C35  1  0.79795646  0.36526627  0.64485977  1  0  -0.132782  0  3.728228  0  0  -0.154402  0  3.980502  0  0  -0.158403  0  3.999504  0  0  -0.090083  -0.151579  0  3.967137  0
C  C36  1  0.17511117  0.78762315  0.34874073  1  0  0.111371  0  3.673937  0  0  0.105665  0  3.907226  0  0  0.110344  0  3.928609  0  0  0.108857  0.103365  0  3.892285  0
C  C37  1  0.82489070  0.21237815  0.65125953  1  0  0.111302  0  3.674023  0  0  0.105606  0  3.907275  0  0  0.110285  0  3.928658  0  0  0.10885  0.103306  0  3.892336  0
S  S38  1  0.86356777  0.16161956  0.09876971  1  0  -0.318603  0  2.231832  0  0  -0.285883  0  2.571059  0  0  -0.30543  0  2.566037  0  0  -0.116056  -0.271356  0  2.575529  0
S  S39  1  0.13643287  0.83838174  0.90123319  1  0  -0.318799  0  2.231398  0  0  -0.286096  0  2.570636  0  0  -0.305646  0  2.565612  0  0  -0.116168  -0.271569  0  2.575108  0
S  S40  1  0.59680218  0.45553585  0.22294184  1  0  -0.344817  0  2.124863  0  0  -0.305815  0  2.436676  0  0  -0.32483  0  2.431938  0  0  -0.136561  -0.292297  0  2.439588  0
S  S41  1  0.40319537  0.54446402  0.77705617  1  0  -0.344776  0  2.125224  0  0  -0.305771  0  2.437041  0  0  -0.324788  0  2.432307  0  0  -0.136559  -0.292258  0  2.439957  0
N  N42  1  0.50780281  0.88866002  0.11293397  1  0  -0.541163  0  2.876397  0  0  -0.485853  0  3.147764  0  0  -0.508061  0  3.156514  0  0  -0.39994  -0.470179  0  3.141101  0
N  N43  1  0.49218901  0.11133549  0.88706740  1  0  -0.541118  0  2.876888  0  0  -0.485819  0  3.148245  0  0  -0.508022  0  3.15699  0  0  -0.399959  -0.47015  0  3.141589  0
N  N44  1  0.29835571  0.42272394  0.06675499  1  0  -0.516891  0  2.843001  0  0  -0.465318  0  3.115102  0  0  -0.485119  0  3.12216  0  0  -0.388365  -0.451779  0  3.110079  0
N  N45  1  0.70164496  0.57726722  0.93324302  1  0  -0.516827  0  2.842573  0  0  -0.465251  0  3.114668  0  0  -0.485054  0  3.121729  0  0  -0.388325  -0.451711  0  3.109643  0
N  N46  1  0.09689254  0.77937014  0.23268500  1  0  0.228306  0  3.645237  0  0  0.276071  0  3.903755  0  0  0.273653  0  3.924202  0  0  -0.111727  0.277057  0  3.890324  0
N  N47  1  0.90310743  0.22062971  0.76731487  1  0  0.228358  0  3.645233  0  0  0.276114  0  3.903749  0  0  0.273699  0  3.924199  0  0  -0.111727  0.277094  0  3.890318  0
O  O48  1  0.05241925  0.62558883  0.12922094  1  0  -0.564739  0  1.984193  0  0  -0.497687  0  2.254466  0  0  -0.523092  0  2.250749  0  0  -0.251883  -0.479939  0  2.256851  0
O  O49  1  0.94757934  0.37440812  0.87077916  1  0  -0.564758  0  1.9842  0  0  -0.497716  0  2.254479  0  0  -0.523122  0  2.250763  0  0  -0.251882  -0.479944  0  2.256844  0
