# generated using pymatgen
data_CdH14C16O7
_symmetry_space_group_name_H-M   'P 1'
_cell_length_a   5.97155779
_cell_length_b   7.91923137
_cell_length_c   15.28911525
_cell_angle_alpha   81.23521883
_cell_angle_beta   90.73591916
_cell_angle_gamma   86.87108162
_symmetry_Int_Tables_number   1
_chemical_formula_structural   CdH14C16O7
_chemical_formula_sum   'Cd2 H28 C32 O14'
_cell_volume   713.35188510
_cell_formula_units_Z   2
loop_
 _symmetry_equiv_pos_site_id
 _symmetry_equiv_pos_as_xyz
  1  'x, y, z'
loop_
 _atom_site_type_symbol
 _atom_site_label
 _atom_site_symmetry_multiplicity
 _atom_site_fract_x
 _atom_site_fract_y
 _atom_site_fract_z
 _atom_site_occupancy
 _atom_site_hle17_bader_spin_density
 _atom_site_hle17_ddec_charge
 _atom_site_hle17_ddec_spin_density
 _atom_site_hle17_ddec_sum_bond_order
 _atom_site_hle17_magmom
 _atom_site_hse06_10hf_bader_spin_density
 _atom_site_hse06_10hf_ddec_charge
 _atom_site_hse06_10hf_ddec_spin_density
 _atom_site_hse06_10hf_ddec_sum_bond_order
 _atom_site_hse06_10hf_magmom
 _atom_site_hse06_bader_spin_density
 _atom_site_hse06_ddec_charge
 _atom_site_hse06_ddec_spin_density
 _atom_site_hse06_ddec_sum_bond_order
 _atom_site_hse06_magmom
 _atom_site_pbe_bader_spin_density
 _atom_site_pbe_cm5_charge
 _atom_site_pbe_ddec_charge
 _atom_site_pbe_ddec_spin_density
 _atom_site_pbe_ddec_sum_bond_order
 _atom_site_pbe_magmom
Cd  Cd0  1  0.22996934  0.06662742  0.05073869  1  0  1.273588  0  1.619125  0  0  1.091765  0  2.07906  0  0  1.150575  0  2.015668  0  0  0.790787  1.04943  0  2.123029  0
Cd  Cd1  1  0.77001285  0.93338065  0.94925117  1  0  1.273479  0  1.619354  0  0  1.091651  0  2.079309  0  0  1.150455  0  2.015926  0  0  0.790764  1.04932  0  2.123268  0
H  H2  1  0.99442856  0.42667139  0.14719854  1  0  0.108199  0  0.952212  0  0  0.117724  0  1.015609  0  0  0.120571  0  1.013205  0  0  0.110286  0.115685  0  1.017394  0
H  H3  1  0.00560950  0.57333432  0.85281727  1  0  0.108062  0  0.9526  0  0  0.117657  0  1.015926  0  0  0.120496  0  1.013514  0  0  0.110278  0.115607  0  1.017727  0
H  H4  1  0.13632848  0.50113753  0.23602730  1  0  0.082302  0  0.948272  0  0  0.095041  0  1.01407  0  0  0.09546  0  1.014411  0  0  0.109288  0.094738  0  1.013972  0
H  H5  1  0.86370015  0.49889133  0.76398581  1  0  0.082304  0  0.948035  0  0  0.094958  0  1.014006  0  0  0.095381  0  1.014338  0  0  0.10922  0.094654  0  1.013908  0
H  H6  1  0.45214077  0.74811861  0.24884376  1  0  0.117658  0  0.950737  0  0  0.126019  0  1.013244  0  0  0.130072  0  1.01095  0  0  0.102933  0.123155  0  1.014912  0
H  H7  1  0.54787321  0.25187932  0.75116119  1  0  0.117694  0  0.950833  0  0  0.126041  0  1.013327  0  0  0.130092  0  1.011036  0  0  0.102921  0.123178  0  1.014995  0
H  H8  1  0.28336567  0.69502754  0.39509325  1  0  0.082675  0  1.00272  0  0  0.093876  0  1.065787  0  0  0.095715  0  1.066263  0  0  0.093411  0.09238  0  1.065956  0
H  H9  1  0.71662172  0.30496186  0.60491073  1  0  0.082528  0  1.002848  0  0  0.093788  0  1.065862  0  0  0.095627  0  1.066337  0  0  0.093361  0.092293  0  1.066029  0
H  H10  1  0.84759146  0.34631603  0.48831944  1  0  0.08546  0  0.981699  0  0  0.096636  0  1.044565  0  0  0.098702  0  1.044317  0  0  0.096293  0.095223  0  1.04464  0
H  H11  1  0.15239129  0.65366189  0.51168432  1  0  0.085431  0  0.981849  0  0  0.096618  0  1.044691  0  0  0.098699  0  1.044393  0  0  0.0963  0.095212  0  1.044765  0
H  H12  1  0.00696235  0.39196292  0.34359113  1  0  0.099774  0  0.999291  0  0  0.108708  0  1.064985  0  0  0.111095  0  1.06571  0  0  0.095502  0.106846  0  1.064977  0
H  H13  1  0.99304018  0.60802622  0.65641341  1  0  0.099681  0  0.999429  0  0  0.108703  0  1.065026  0  0  0.111091  0  1.06575  0  0  0.09552  0.106845  0  1.065006  0
H  H14  1  0.69599550  0.13372262  0.26133743  1  0  0.0955  0  0.955026  0  0  0.106339  0  1.020709  0  0  0.106862  0  1.0215  0  0  0.112982  0.105875  0  1.020444  0
H  H15  1  0.30399848  0.86627871  0.73865034  1  0  0.095459  0  0.95493  0  0  0.106304  0  1.020615  0  0  0.106827  0  1.021413  0  0  0.112931  0.105861  0  1.020334  0
H  H16  1  0.56715658  0.31692835  0.19258738  1  0  0.107055  0  0.91441  0  0  0.115993  0  0.976905  0  0  0.118271  0  0.975083  0  0  0.115348  0.114332  0  0.978334  0
H  H17  1  0.43282940  0.68307597  0.80740607  1  0  0.107066  0  0.914492  0  0  0.115885  0  0.977095  0  0  0.118202  0  0.975238  0  0  0.115306  0.114224  0  0.978525  0
H  H18  1  0.03453186  0.92032252  0.24531722  1  0  0.125825  0  0.963785  0  0  0.133256  0  1.025337  0  0  0.137436  0  1.023159  0  0  0.105897  0.130256  0  1.026991  0
H  H19  1  0.96547954  0.07967100  0.75467506  1  0  0.125827  0  0.96393  0  0  0.133308  0  1.025406  0  0  0.137487  0  1.023235  0  0  0.105961  0.130309  0  1.027064  0
H  H20  1  0.84041829  0.86870940  0.38601612  1  0  0.088594  0  0.976433  0  0  0.098481  0  1.040626  0  0  0.100504  0  1.040813  0  0  0.097804  0.096924  0  1.040849  0
H  H21  1  0.15957517  0.13127558  0.61397840  1  0  0.088583  0  0.976628  0  0  0.098512  0  1.040759  0  0  0.100535  0  1.040947  0  0  0.097774  0.096961  0  1.040964  0
H  H22  1  0.31327454  0.17222815  0.50049596  1  0  0.087907  0  0.977953  0  0  0.098234  0  1.040888  0  0  0.100361  0  1.040977  0  0  0.097843  0.096785  0  1.040758  0
H  H23  1  0.68672567  0.82776328  0.49950184  1  0  0.087887  0  0.97802  0  0  0.098213  0  1.040959  0  0  0.100337  0  1.041056  0  0  0.09784  0.096765  0  1.040829  0
H  H24  1  0.49856049  0.22817628  0.36070941  1  0  0.10423  0  0.991897  0  0  0.112079  0  1.059651  0  0  0.11429  0  1.06053  0  0  0.099601  0.110388  0  1.059421  0
H  H25  1  0.50144798  0.77181623  0.63928757  1  0  0.104192  0  0.991945  0  0  0.112084  0  1.059651  0  0  0.114296  0  1.060532  0  0  0.099614  0.110392  0  1.059427  0
H  H26  1  0.43671116  0.34304179  0.96433277  1  0  0.435742  0  0.864154  0  0  0.401499  0  0.932728  0  0  0.413021  0  0.916093  0  0  0.292506  0.393346  0  0.944462  0
H  H27  1  0.56330377  0.65697274  0.03567064  1  0  0.435803  0  0.864066  0  0  0.401479  0  0.932775  0  0  0.413003  0  0.916135  0  0  0.292505  0.393325  0  0.94451  0
H  H28  1  0.29235363  0.42793708  0.03500807  1  0  0.425833  0  0.878443  0  0  0.39349  0  0.943757  0  0  0.404718  0  0.927793  0  0  0.290038  0.385527  0  0.955048  0
H  H29  1  0.70765286  0.57207627  0.96499421  1  0  0.42582  0  0.878463  0  0  0.393472  0  0.943802  0  0  0.404701  0  0.927836  0  0  0.290051  0.385509  0  0.955093  0
C  C30  1  0.15134703  0.66753405  0.11610039  1  0  0.713314  0  3.849777  0  0  0.654357  0  4.163021  0  0  0.688825  0  4.154361  0  0  0.221407  0.630831  0  4.168201  0
C  C31  1  0.84864768  0.33247949  0.88390131  1  0  0.713382  0  3.849574  0  0  0.654486  0  4.162802  0  0  0.688955  0  4.154136  0  0  0.221477  0.630962  0  4.167981  0
C  C32  1  0.02376700  0.54045362  0.17799710  1  0  -0.079363  0  3.628138  0  0  -0.138656  0  3.888969  0  0  -0.13608  0  3.889671  0  0  -0.071621  -0.14051  0  3.888489  0
C  C33  1  0.97625683  0.45956498  0.82201437  1  0  -0.079004  0  3.627774  0  0  -0.1384  0  3.888706  0  0  -0.135812  0  3.889401  0  0  -0.071412  -0.140246  0  3.888215  0
C  C34  1  0.74032092  0.57551738  0.28523606  1  0  0.264028  0  3.834723  0  0  0.253724  0  4.095693  0  0  0.265624  0  4.11082  0  0  0.078467  0.245551  0  4.085266  0
C  C35  1  0.25968879  0.42447322  0.71477483  1  0  0.264075  0  3.83473  0  0  0.253665  0  4.095794  0  0  0.265565  0  4.110925  0  0  0.078456  0.245485  0  4.085379  0
C  C36  1  0.53524228  0.65851287  0.30210449  1  0  -0.188658  0  3.760235  0  0  -0.210564  0  4.021144  0  0  -0.21524  0  4.038723  0  0  -0.11203  -0.207471  0  4.009354  0
C  C37  1  0.46476235  0.34147649  0.69790525  1  0  -0.188891  0  3.760355  0  0  -0.210745  0  4.021246  0  0  -0.215423  0  4.038827  0  0  -0.112112  -0.20765  0  4.009462  0
C  C38  1  0.44260398  0.62788009  0.38532881  1  0  -0.100544  0  3.777941  0  0  -0.119603  0  4.027352  0  0  -0.119791  0  4.047658  0  0  -0.097492  -0.119389  0  4.01401  0
C  C39  1  0.55738336  0.37210928  0.61467452  1  0  -0.100199  0  3.777886  0  0  -0.119295  0  4.027253  0  0  -0.119483  0  4.047562  0  0  -0.097351  -0.119082  0  4.013908  0
C  C40  1  0.54991198  0.51556138  0.45571361  1  0  0.017768  0  3.808348  0  0  0.032036  0  4.040031  0  0  0.03069  0  4.063717  0  0  -0.025264  0.032945  0  4.02381  0
C  C41  1  0.45007493  0.48442775  0.54428451  1  0  0.0176  0  3.808368  0  0  0.031867  0  4.040072  0  0  0.030521  0  4.063758  0  0  -0.025272  0.032781  0  4.023852  0
C  C42  1  0.75558141  0.43492499  0.43720798  1  0  -0.084577  0  3.75636  0  0  -0.100939  0  4.000213  0  0  -0.10091  0  4.020393  0  0  -0.092235  -0.100665  0  3.986195  0
C  C43  1  0.24440587  0.56506566  0.56279524  1  0  -0.084368  0  3.756543  0  0  -0.100729  0  4.000375  0  0  -0.100682  0  4.020537  0  0  -0.092153  -0.100456  0  3.986346  0
C  C44  1  0.84968078  0.46170398  0.35355825  1  0  -0.216364  0  3.788798  0  0  -0.233463  0  4.03852  0  0  -0.239805  0  4.059552  0  0  -0.117926  -0.229179  0  4.024651  0
C  C45  1  0.15032834  0.53828760  0.64644601  1  0  -0.216555  0  3.788971  0  0  -0.233704  0  4.038705  0  0  -0.240051  0  4.059742  0  0  -0.118101  -0.229415  0  4.024843  0
C  C46  1  0.71732978  0.12247548  0.12379202  1  0  0.709291  0  3.831808  0  0  0.652875  0  4.134279  0  0  0.68879  0  4.125316  0  0  0.221321  0.628285  0  4.139681  0
C  C47  1  0.28265916  0.87753119  0.87619792  1  0  0.709391  0  3.831269  0  0  0.652856  0  4.133929  0  0  0.688772  0  4.124982  0  0  0.221323  0.628274  0  4.139316  0
C  C48  1  0.58972114  0.17616912  0.20195659  1  0  -0.076987  0  3.594347  0  0  -0.131503  0  3.847925  0  0  -0.128728  0  3.848488  0  0  -0.065825  -0.133404  0  3.847458  0
C  C49  1  0.41027440  0.82383867  0.79803254  1  0  -0.07706  0  3.594805  0  0  -0.131502  0  3.848407  0  0  -0.128777  0  3.84897  0  0  -0.065771  -0.133415  0  3.847937  0
C  C50  1  0.27818335  0.07844862  0.29234582  1  0  0.271606  0  3.779126  0  0  0.262011  0  4.038662  0  0  0.272779  0  4.054463  0  0  0.080222  0.254604  0  4.027898  0
C  C51  1  0.72182307  0.92154503  0.70764714  1  0  0.271551  0  3.779  0  0  0.262008  0  4.038457  0  0  0.272764  0  4.054259  0  0  0.080227  0.254613  0  4.027693  0
C  C52  1  0.09132106  0.97798873  0.30141777  1  0  -0.179813  0  3.744033  0  0  -0.200286  0  3.99958  0  0  -0.204612  0  4.017115  0  0  -0.105912  -0.197424  0  3.987797  0
C  C53  1  0.90867886  0.02201433  0.69858158  1  0  -0.179783  0  3.744052  0  0  -0.20036  0  3.999649  0  0  -0.204686  0  4.017178  0  0  -0.106002  -0.197506  0  3.987876  0
C  C54  1  0.98385582  0.94881531  0.38205617  1  0  -0.099554  0  3.748798  0  0  -0.116275  0  3.99834  0  0  -0.116696  0  4.017182  0  0  -0.091342  -0.115945  0  3.985976  0
C  C55  1  0.01614249  0.05117864  0.61794010  1  0  -0.099488  0  3.748834  0  0  -0.11621  0  3.99837  0  0  -0.116633  0  4.017212  0  0  -0.09123  -0.115878  0  3.986014  0
C  C56  1  0.05771305  0.01631540  0.45703683  1  0  0.024594  0  3.783338  0  0  0.036347  0  4.019956  0  0  0.035456  0  4.043821  0  0  -0.019206  0.03699  0  4.003701  0
C  C57  1  0.94228700  0.98367332  0.54295795  1  0  0.024561  0  3.783315  0  0  0.036233  0  4.020006  0  0  0.035344  0  4.04387  0  0  -0.019211  0.036877  0  4.003749  0
C  C58  1  0.24649858  0.11551367  0.44580767  1  0  -0.077022  0  3.726915  0  0  -0.093605  0  3.971727  0  0  -0.094609  0  3.992524  0  0  -0.086953  -0.092692  0  3.957274  0
C  C59  1  0.75349492  0.88447919  0.55419070  1  0  -0.077031  0  3.726865  0  0  -0.093572  0  3.971686  0  0  -0.094579  0  3.992484  0  0  -0.086961  -0.092659  0  3.957232  0
C  C60  1  0.35538881  0.14803683  0.36508796  1  0  -0.201191  0  3.75902  0  0  -0.218787  0  4.008532  0  0  -0.223999  0  4.029005  0  0  -0.110217  -0.215276  0  3.995011  0
C  C61  1  0.64461155  0.85195338  0.63491126  1  0  -0.201094  0  3.759121  0  0  -0.218773  0  4.008636  0  0  -0.223987  0  4.029113  0  0  -0.110237  -0.215265  0  3.995118  0
O  O62  1  0.81612279  0.61649772  0.20137727  1  0  -0.242806  0  2.366547  0  0  -0.17238  0  2.600447  0  0  -0.189062  0  2.602675  0  0  -0.177203  -0.160563  0  2.598471  0
O  O63  1  0.18389966  0.38350536  0.79863107  1  0  -0.242815  0  2.366337  0  0  -0.172254  0  2.600215  0  0  -0.188939  0  2.602447  0  0  -0.177152  -0.160434  0  2.598238  0
O  O64  1  0.37725517  0.09974094  0.21034560  1  0  -0.2995  0  2.399602  0  0  -0.219436  0  2.638815  0  0  -0.238602  0  2.640362  0  0  -0.184065  -0.205874  0  2.637347  0
O  O65  1  0.62272616  0.90025845  0.78965031  1  0  -0.299551  0  2.399723  0  0  -0.21937  0  2.638766  0  0  -0.238517  0  2.640316  0  0  -0.184103  -0.205836  0  2.637316  0
O  O66  1  0.09001649  0.82503010  0.11094596  1  0  -0.675479  0  2.108578  0  0  -0.607217  0  2.391267  0  0  -0.638324  0  2.376818  0  0  -0.32577  -0.585258  0  2.400404  0
O  O67  1  0.90997509  0.17498101  0.88905730  1  0  -0.675558  0  2.108466  0  0  -0.607311  0  2.391138  0  0  -0.63842  0  2.376683  0  0  -0.32582  -0.585353  0  2.400283  0
O  O68  1  0.31658619  0.60431890  0.07856771  1  0  -0.645305  0  2.020853  0  0  -0.581188  0  2.246154  0  0  -0.607425  0  2.234643  0  0  -0.308918  -0.56287  0  2.253583  0
O  O69  1  0.68340431  0.39570076  0.92142626  1  0  -0.645327  0  2.020929  0  0  -0.581278  0  2.246245  0  0  -0.607515  0  2.234734  0  0  -0.308985  -0.562957  0  2.253673  0
O  O70  1  0.91080746  0.17677609  0.11416434  1  0  -0.627094  0  2.035929  0  0  -0.564605  0  2.294372  0  0  -0.594851  0  2.283494  0  0  -0.30875  -0.54342  0  2.301215  0
O  O71  1  0.08916992  0.82323220  0.88582816  1  0  -0.62703  0  2.035594  0  0  -0.564514  0  2.294128  0  0  -0.594757  0  2.283242  0  0  -0.308711  -0.543326  0  2.300962  0
O  O72  1  0.62298144  0.02715276  0.07560264  1  0  -0.682824  0  2.121793  0  0  -0.602767  0  2.397031  0  0  -0.635613  0  2.381211  0  0  -0.323207  -0.57957  0  2.407015  0
O  O73  1  0.37701778  0.97284859  0.92438771  1  0  -0.682799  0  2.121469  0  0  -0.602743  0  2.396847  0  0  -0.635555  0  2.380947  0  0  -0.323259  -0.579553  0  2.406829  0
O  O74  1  0.29280243  0.33551996  0.99690618  1  0  -0.843841  0  1.880578  0  0  -0.769145  0  2.0841  0  0  -0.79542  0  2.049598  0  0  -0.587984  -0.750523  0  2.108015  0
O  O75  1  0.70720942  0.66448955  0.00309837  1  0  -0.843848  0  1.880542  0  0  -0.769103  0  2.084077  0  0  -0.795382  0  2.049574  0  0  -0.588007  -0.750481  0  2.10799  0
