# generated using pymatgen
data_ZnH7C5N3Cl2
_symmetry_space_group_name_H-M   'P 1'
_cell_length_a   6.31870749
_cell_length_b   9.25779214
_cell_length_c   13.80639188
_cell_angle_alpha   93.18091218
_cell_angle_beta   89.99996071
_cell_angle_gamma   90.00010256
_symmetry_Int_Tables_number   1
_chemical_formula_structural   ZnH7C5N3Cl2
_chemical_formula_sum   'Zn4 H28 C20 N12 Cl8'
_cell_volume   806.39205819
_cell_formula_units_Z   4
loop_
 _symmetry_equiv_pos_site_id
 _symmetry_equiv_pos_as_xyz
  1  'x, y, z'
loop_
 _atom_site_type_symbol
 _atom_site_label
 _atom_site_symmetry_multiplicity
 _atom_site_fract_x
 _atom_site_fract_y
 _atom_site_fract_z
 _atom_site_occupancy
 _atom_site_pbe_bader_spin_density
 _atom_site_pbe_cm5_charge
 _atom_site_pbe_ddec_charge
 _atom_site_pbe_ddec_spin_density
 _atom_site_pbe_ddec_sum_bond_order
 _atom_site_pbe_magmom
Zn  Zn0  1  0.31640280  0.02214114  0.66651796  1  0  0.562984  0.685695  0  2.546027  0
Zn  Zn1  1  0.18359985  0.52213549  0.16651696  1  0  0.562999  0.68574  0  2.546086  0
Zn  Zn2  1  0.68359976  0.97786162  0.33348393  1  0  0.562993  0.685711  0  2.546034  0
Zn  Zn3  1  0.81640271  0.47786078  0.83348397  1  0  0.562983  0.685699  0  2.546082  0
H  H4  1  0.18877282  0.39231063  0.62773305  1  0  0.096907  0.115758  0  1.028737  0
H  H5  1  0.31123094  0.89231054  0.12773729  1  0  0.096912  0.115753  0  1.028721  0
H  H6  1  0.81122500  0.60768996  0.37226513  1  0  0.096913  0.115751  0  1.028769  0
H  H7  1  0.68877638  0.10769005  0.87226090  1  0  0.096916  0.115737  0  1.02877  0
H  H8  1  0.22536292  0.54491802  0.48241363  1  0  0.095757  0.11653  0  1.028383  0
H  H9  1  0.27464562  0.04491174  0.98241928  1  0  0.095822  0.116638  0  1.028292  0
H  H10  1  0.77463649  0.45508365  0.51758460  1  0  0.095773  0.116572  0  1.028358  0
H  H11  1  0.72536644  0.95508994  0.01758184  1  0  0.09579  0.116594  0  1.028348  0
H  H12  1  0.24445103  0.81266110  0.51055401  1  0  0.09898  0.076634  0  1.039133  0
H  H13  1  0.25555269  0.31265567  0.01055140  1  0  0.098963  0.076591  0  1.038997  0
H  H14  1  0.75555312  0.18734058  0.48944783  1  0  0.098967  0.07659  0  1.039053  0
H  H15  1  0.74445146  0.68734492  0.98944751  1  0  0.098962  0.07656  0  1.039087  0
H  H16  1  0.19107923  0.91141580  0.83258353  1  0  0.278179  0.2916  0  1.022883  0
H  H17  1  0.30892108  0.41141259  0.33258171  1  0  0.2782  0.291632  0  1.022871  0
H  H18  1  0.80892017  0.08858588  0.16741832  1  0  0.278186  0.291593  0  1.022888  0
H  H19  1  0.69107674  0.58858367  0.66741705  1  0  0.278168  0.291559  0  1.022928  0
H  H20  1  0.18661919  0.74942750  0.89070157  1  0  0.287424  0.306413  0  0.989018  0
H  H21  1  0.31337741  0.24942647  0.39070127  1  0  0.287405  0.306381  0  0.989096  0
H  H22  1  0.81337863  0.25057201  0.10929875  1  0  0.287416  0.306368  0  0.989089  0
H  H23  1  0.68662041  0.75056980  0.60929893  1  0  0.287421  0.306366  0  0.989095  0
H  H24  1  0.21742899  0.53212224  0.87440496  1  0  0.276111  0.282695  0  0.99227  0
H  H25  1  0.28256860  0.03212119  0.37441047  1  0  0.276076  0.282703  0  0.992367  0
H  H26  1  0.78257041  0.46787835  0.12559250  1  0  0.276089  0.282666  0  0.992282  0
H  H27  1  0.71742922  0.96787724  0.62559054  1  0  0.276096  0.282707  0  0.992367  0
H  H28  1  0.19481347  0.38750433  0.79785878  1  0  0.274755  0.290751  0  0.986502  0
H  H29  1  0.30518209  0.88750316  0.29786442  1  0  0.274742  0.290748  0  0.986513  0
H  H30  1  0.80518435  0.61249518  0.20213864  1  0  0.274736  0.290716  0  0.986512  0
H  H31  1  0.69481890  0.11249311  0.70213651  1  0  0.274731  0.290697  0  0.986569  0
C  C32  1  0.20664078  0.73015593  0.74010341  1  0  0.222109  0.361299  0  4.061529  0
C  C33  1  0.29335917  0.23015380  0.24010453  1  0  0.222077  0.361259  0  4.061459  0
C  C34  1  0.79335387  0.26984575  0.25989699  1  0  0.222009  0.361086  0  4.061554  0
C  C35  1  0.70664339  0.76984355  0.75989571  1  0  0.222008  0.361123  0  4.061604  0
C  C36  1  0.18974313  0.57682667  0.72869883  1  0  0.068301  0.112958  0  3.975232  0
C  C37  1  0.31025166  0.07682456  0.22870139  1  0  0.068341  0.113119  0  3.974917  0
C  C38  1  0.81025785  0.42317392  0.27130153  1  0  0.06837  0.113131  0  3.975204  0
C  C39  1  0.68974299  0.92317278  0.77129740  1  0  0.068341  0.11312  0  3.974952  0
C  C40  1  0.19959481  0.50993007  0.63667253  1  0  -0.081866  -0.114655  0  3.978955  0
C  C41  1  0.30040469  0.00992471  0.13667570  1  0  -0.081766  -0.114518  0  3.978617  0
C  C42  1  0.80040459  0.49007485  0.36332582  1  0  -0.081795  -0.114532  0  3.978847  0
C  C43  1  0.69959629  0.99007264  0.86332309  1  0  -0.081794  -0.114542  0  3.978542  0
C  C44  1  0.22005171  0.59356039  0.55579010  1  0  -0.109776  -0.148559  0  4.022311  0
C  C45  1  0.27995291  0.09355284  0.05579247  1  0  -0.10995  -0.148783  0  4.022197  0
C  C46  1  0.77994927  0.40644453  0.44421042  1  0  -0.109856  -0.14875  0  4.02231  0
C  C47  1  0.72004966  0.90644451  0.94420922  1  0  -0.109914  -0.148775  0  4.022208  0
C  C48  1  0.23145297  0.74184155  0.57065460  1  0  0.021013  0.079771  0  4.018458  0
C  C49  1  0.26855046  0.24183614  0.07065488  1  0  0.021049  0.079874  0  4.018152  0
C  C50  1  0.76854801  0.25816338  0.42934665  1  0  0.021062  0.07993  0  4.018175  0
C  C51  1  0.73145053  0.75816338  0.92934689  1  0  0.021068  0.079922  0  4.018261  0
N  N52  1  0.22883221  0.80916241  0.66043062  1  0  -0.359347  -0.344036  0  3.549684  0
N  N53  1  0.27116494  0.30916350  0.16043259  1  0  -0.359425  -0.344219  0  3.549738  0
N  N54  1  0.77116403  0.19083710  0.33956897  1  0  -0.35938  -0.344094  0  3.549616  0
N  N55  1  0.72883288  0.69083926  0.83956858  1  0  -0.35934  -0.344069  0  3.549703  0
N  N56  1  0.20464673  0.80126672  0.82824996  1  0  -0.587185  -0.611083  0  3.389298  0
N  N57  1  0.29535170  0.30126676  0.32825260  1  0  -0.587158  -0.61107  0  3.389356  0
N  N58  1  0.79535267  0.19873279  0.17174891  1  0  -0.587178  -0.610983  0  3.389325  0
N  N59  1  0.70464612  0.69873059  0.67174764  1  0  -0.58716  -0.610987  0  3.389456  0
N  N60  1  0.14663762  0.49358841  0.81072898  1  0  -0.59962  -0.549542  0  3.425537  0
N  N61  1  0.35335505  0.99358621  0.31073312  1  0  -0.599571  -0.549613  0  3.425535  0
N  N62  1  0.85335862  0.50641110  0.18926989  1  0  -0.599586  -0.549545  0  3.425553  0
N  N63  1  0.64664435  0.00641222  0.68926643  1  0  -0.599565  -0.549528  0  3.425543  0
Cl  Cl64  1  0.18655669  0.14458133  0.79946158  1  0  -0.265201  -0.467548  0  1.308935  0
Cl  Cl65  1  0.31344451  0.64457799  0.29946063  1  0  -0.2652  -0.467538  0  1.308902  0
Cl  Cl66  1  0.81344429  0.85541926  0.20053878  1  0  -0.265203  -0.467541  0  1.308903  0
Cl  Cl67  1  0.68655331  0.35542044  0.70053965  1  0  -0.265202  -0.467529  0  1.308929  0
Cl  Cl68  1  0.23866248  0.12901835  0.52947308  1  0  -0.27951  -0.484678  0  1.308599  0
Cl  Cl69  1  0.26133595  0.62901279  0.02947351  1  0  -0.279526  -0.484692  0  1.308583  0
Cl  Cl70  1  0.76133850  0.87098225  0.47052800  1  0  -0.279514  -0.484669  0  1.308581  0
Cl  Cl71  1  0.73866662  0.37098348  0.97052669  1  0  -0.279513  -0.484661  0  1.308607  0
