# generated using pymatgen
data_Zn2H15C24Br5(N3O4)2
_symmetry_space_group_name_H-M   'P 1'
_cell_length_a   10.10868503
_cell_length_b   11.05598329
_cell_length_c   12.15626108
_cell_angle_alpha   90.56443078
_cell_angle_beta   106.82101726
_cell_angle_gamma   98.94282518
_symmetry_Int_Tables_number   1
_chemical_formula_structural   Zn2H15C24Br5(N3O4)2
_chemical_formula_sum   'Zn2 H15 C24 Br5 N6 O8'
_cell_volume   1282.50091375
_cell_formula_units_Z   1
loop_
 _symmetry_equiv_pos_site_id
 _symmetry_equiv_pos_as_xyz
  1  'x, y, z'
loop_
 _atom_site_type_symbol
 _atom_site_label
 _atom_site_symmetry_multiplicity
 _atom_site_fract_x
 _atom_site_fract_y
 _atom_site_fract_z
 _atom_site_occupancy
 _atom_site_pbe_bader_charge
 _atom_site_pbe_bader_spin_density
 _atom_site_pbe_cm5_charge
 _atom_site_pbe_ddec_charge
 _atom_site_pbe_ddec_spin_density
 _atom_site_pbe_ddec_sum_bond_order
 _atom_site_pbe_magmom
Zn  Zn0  1  0.87938932  0.50156995  0.52094515  1  1.302409  0  0.669469  0.886132  0  2.389295  0
Zn  Zn1  1  0.13179401  0.51226525  0.45527171  1  1.298312  0  0.672743  0.87673  0  2.324588  0
H  H2  1  0.93146083  0.40117014  0.07358064  1  0.136154  0  0.107934  0.128728  0  0.989908  0
H  H3  1  0.19389987  0.03233780  0.50774219  1  0.439799  0  0.300719  0.296675  0  0.953017  0
H  H4  1  0.25278372  0.89545883  0.54416690  1  0.461168  0  0.304808  0.305405  0  0.946234  0
H  H5  1  0.51529770  0.44487113  0.69687793  1  0.474886  0  0.296147  0.289339  0  0.990586  0
H  H6  1  0.35432632  0.49912266  0.65967902  1  0.560958  0  0.300273  0.327339  0  0.982838  0
H  H7  1  0.21549876  0.19653705  0.71422979  1  0.479384  0  0.288824  0.289878  0  1.006607  0
H  H8  1  0.11593924  0.30137752  0.73859302  1  0.46258  0  0.310464  0.309692  0  0.951084  0
H  H9  1  0.83927299  0.86559671  0.35456836  1  0.086494  0  0.096259  0.125407  0  1.013388  0
H  H10  1  0.68035021  0.59833453  0.57326583  1  0.450775  0  0.328492  0.32437  0  0.870566  0
H  H11  1  0.61525426  0.51523431  0.20078497  1  0.112904  0  0.098895  0.103294  0  1.040747  0
H  H12  1  0.08091516  0.65118058  0.88626727  1  0.115243  0  0.110914  0.119374  0  0.981446  0
H  H13  1  0.46577389  0.61831705  0.14211492  1  0.03698  0  0.098124  0.101177  0  1.028078  0
H  H14  1  0.24337380  0.69986441  0.08640100  1  0.076125  0  0.109293  0.111355  0  0.979127  0
H  H15  1  0.91684297  0.13588381  0.64578434  1  0.434038  0  0.294591  0.286938  0  0.958805  0
H  H16  1  0.93511976  0.99632107  0.59891280  1  0.410633  0  0.294418  0.288976  0  0.954752  0
C  C17  1  0.03289580  0.74187054  0.47611514  1  1.569294  0  0.21928  0.576889  0  4.155283  0
C  C18  1  0.19734251  0.52167063  0.84322007  1  -0.076681  0  -0.014934  -0.067671  0  3.92884  0
C  C19  1  0.04424524  0.87844121  0.46769735  1  0.363531  0  0.088509  0.168411  0  4.067367  0
C  C20  1  0.11794429  0.52326358  0.71781615  1  1.561385  0  0.212336  0.58357  0  4.180263  0
C  C21  1  0.93213280  0.92802509  0.40463548  1  0.071562  0  -0.141015  -0.292886  0  4.076537  0
C  C22  1  0.95904007  0.13448238  0.49395682  1  0.275733  0  0.06091  0.059289  0  4.039637  0
C  C23  1  0.93871365  0.05925584  0.39922120  1  -0.005902  0  -0.050392  0.012918  0  3.998843  0
C  C24  1  0.43779344  0.47689051  0.52723605  1  1.203358  0  0.23923  0.370527  0  4.125638  0
C  C25  1  0.56777797  0.44401565  0.50668535  1  0.729551  0  0.165035  0.237403  0  3.991607  0
C  C26  1  0.97943831  0.27204851  0.49800498  1  1.639179  0  0.211018  0.580531  0  4.181562  0
C  C27  1  0.87438486  0.47264086  0.27249525  1  1.563186  0  0.214121  0.601572  0  4.165939  0
C  C28  1  0.41209877  0.49331767  0.99162935  1  -0.05983  0  -0.001284  0.04752  0  3.968895  0
C  C29  1  0.72227020  0.37177725  0.95565133  1  -0.083768  0  -0.026274  0.0541  0  3.930222  0
C  C30  1  0.77899559  0.45005851  0.15240045  1  -0.06421  0  -0.022343  -0.017597  0  3.989154  0
C  C31  1  0.17089180  0.60466382  0.91804970  1  0.000168  0  -0.079006  -0.084669  0  3.962399  0
C  C32  1  0.26343323  0.63338131  0.02889956  1  -0.04013  0  -0.087233  -0.072244  0  4.014435  0
C  C33  1  0.38568014  0.58335279  0.06226398  1  -0.049991  0  -0.091071  -0.11987  0  3.977969  0
C  C34  1  0.31166830  0.45646825  0.88335967  1  0.069883  0  -0.002838  -0.025016  0  3.907252  0
C  C35  1  0.54443711  0.44726713  0.02238404  1  0.064661  0  -0.009717  0.035724  0  3.97443  0
C  C36  1  0.57729082  0.37669223  0.93670960  1  0.049039  0  -0.017935  0.001579  0  4.023225  0
C  C37  1  0.46075934  0.31700810  0.84466783  1  -0.083482  0  -0.055158  -0.108529  0  3.926412  0
C  C38  1  0.32696733  0.34722437  0.82284319  1  0.508168  0  0.102592  0.234228  0  4.109825  0
C  C39  1  0.64331611  0.47449226  0.13056846  1  -0.058121  0  -0.086492  -0.136917  0  3.958509  0
C  C40  1  0.82145588  0.40675186  0.06100495  1  0.010953  0  -0.092035  -0.14424  0  3.973505  0
Br  Br41  1  0.54970602  0.28435388  0.44417217  1  0.084505  0  0.125528  0.049022  0  1.43904  0
Br  Br42  1  0.34588633  0.50772526  0.29499868  1  0.183859  0  0.153008  0.059938  0  1.589072  0
Br  Br43  1  0.47123139  0.16867152  0.76698834  1  -0.083941  0  0.014927  -0.069166  0  1.552535  0
Br  Br44  1  0.79252394  0.33715286  0.83007611  1  -0.083686  0  0.005787  -0.078704  0  1.528494  0
Br  Br45  1  0.90684998  0.12288501  0.24833922  1  -0.100174  0  -0.029971  -0.10289  0  1.368398  0
N  N46  1  0.32855782  0.49863144  0.44574433  1  -1.055309  0  -0.35875  -0.356407  0  3.218376  0
N  N47  1  0.68547832  0.51522732  0.53765056  1  -1.195129  0  -0.451769  -0.445819  0  3.269182  0
N  N48  1  0.96731548  0.08879517  0.60255530  1  -1.156777  0  -0.597467  -0.57587  0  3.326773  0
N  N49  1  0.17237814  0.94380816  0.52769626  1  -1.238463  0  -0.591855  -0.588203  0  3.372122  0
N  N50  1  0.44488178  0.48688581  0.63895853  1  -1.270942  0  -0.554331  -0.570209  0  3.311776  0
N  N51  1  0.21159998  0.27775239  0.75167361  1  -1.265312  0  -0.586515  -0.57821  0  3.450234  0
O  O52  1  0.91637634  0.68298959  0.48023088  1  -1.173766  0  -0.318949  -0.548748  0  2.314856  0
O  O53  1  0.14314167  0.69684329  0.48016280  1  -1.153254  0  -0.320641  -0.542336  0  2.287374  0
O  O54  1  0.99223752  0.54254696  0.69140982  1  -1.165292  0  -0.318081  -0.539319  0  2.308756  0
O  O55  1  0.18544268  0.51124160  0.64524564  1  -1.184273  0  -0.305136  -0.559701  0  2.379797  0
O  O56  1  0.90995137  0.32204136  0.55330901  1  -1.176734  0  -0.328672  -0.571481  0  2.322523  0
O  O57  1  0.06829303  0.32710363  0.45283928  1  -1.151038  0  -0.309358  -0.532624  0  2.376908  0
O  O58  1  0.81258888  0.45524079  0.35028792  1  -1.164467  0  -0.324734  -0.571229  0  2.398085  0
O  O59  1  0.00533049  0.50624797  0.28920764  1  -1.146184  0  -0.320691  -0.543476  0  2.2975  0
