# generated using pymatgen
data_GdH7C11N3O7
_symmetry_space_group_name_H-M   'P 1'
_cell_length_a   8.18525199
_cell_length_b   11.57651874
_cell_length_c   14.92131052
_cell_angle_alpha   90.00005544
_cell_angle_beta   89.99987234
_cell_angle_gamma   91.82182825
_symmetry_Int_Tables_number   1
_chemical_formula_structural   GdH7C11N3O7
_chemical_formula_sum   'Gd4 H28 C44 N12 O28'
_cell_volume   1413.17979424
_cell_formula_units_Z   4
loop_
 _symmetry_equiv_pos_site_id
 _symmetry_equiv_pos_as_xyz
  1  'x, y, z'
loop_
 _atom_site_type_symbol
 _atom_site_label
 _atom_site_symmetry_multiplicity
 _atom_site_fract_x
 _atom_site_fract_y
 _atom_site_fract_z
 _atom_site_occupancy
 _atom_site_hle17_bader_spin_density
 _atom_site_hle17_ddec_charge
 _atom_site_hle17_ddec_spin_density
 _atom_site_hle17_ddec_sum_bond_order
 _atom_site_hle17_magmom
 _atom_site_hse06_10hf_bader_charge
 _atom_site_hse06_10hf_bader_spin_density
 _atom_site_hse06_10hf_ddec_charge
 _atom_site_hse06_10hf_ddec_spin_density
 _atom_site_hse06_10hf_ddec_sum_bond_order
 _atom_site_hse06_10hf_magmom
 _atom_site_hse06_bader_spin_density
 _atom_site_hse06_ddec_charge
 _atom_site_hse06_ddec_spin_density
 _atom_site_hse06_ddec_sum_bond_order
 _atom_site_hse06_magmom
 _atom_site_pbe_bader_spin_density
 _atom_site_pbe_cm5_charge
 _atom_site_pbe_ddec_charge
 _atom_site_pbe_ddec_spin_density
 _atom_site_pbe_ddec_sum_bond_order
 _atom_site_pbe_magmom
Gd  Gd0  1  0.22284716  0.07403734  0.86886459  1  0  2.166732  0  1.838217  0  2.22054  0  2.073535  0  2.211254  0  0  2.127962  0  2.152637  0  0  1.467231  2.031653  0  2.257481  0
Gd  Gd1  1  0.77715641  0.42596147  0.36886608  1  0  2.16673  0  1.838173  0  2.220582  0  2.073502  0  2.211251  0  0  2.127918  0  2.152653  0  0  1.467234  2.031679  0  2.257374  0
Gd  Gd2  1  0.77715366  0.92596298  0.13113313  1  0  2.166762  0  1.838126  0  2.22059  0  2.073519  0  2.211244  0  0  2.127936  0  2.152645  0  0  1.467201  2.031688  0  2.25738  0
Gd  Gd3  1  0.22284676  0.57403627  0.63113298  1  0  2.166793  0  1.838057  0  2.220545  0  2.07356  0  2.211148  0  0  2.127981  0  2.152544  0  0  1.467207  2.031672  0  2.25739  0
H  H4  1  0.83540117  0.64803661  0.94367623  1  0  0.333471  0  0.828509  0  0.522371  0  0.323514  0  0.872291  0  0  0.331546  0  0.866132  0  0  0.349288  0.317704  0  0.876953  0
H  H5  1  0.16460053  0.85196560  0.44367774  1  0  0.333559  0  0.828466  0  0.522376  0  0.323633  0  0.872207  0  0  0.331663  0  0.866049  0  0  0.349326  0.317823  0  0.876869  0
H  H6  1  0.16459948  0.35195852  0.05632350  1  0  0.33342  0  0.828617  0  0.522378  0  0.323458  0  0.872401  0  0  0.331489  0  0.866244  0  0  0.34925  0.317647  0  0.877062  0
H  H7  1  0.83539811  0.14804249  0.55632333  1  0  0.333488  0  0.828486  0  0.52233  0  0.323553  0  0.872241  0  0  0.331587  0  0.866079  0  0  0.349266  0.317741  0  0.876906  0
H  H8  1  0.46475699  0.03813958  0.72652506  1  0  0.432122  0  0.83253  0  0.614488  0  0.409572  0  0.892108  0  0  0.418801  0  0.878583  0  0  0.314545  0.402954  0  0.901837  0
H  H9  1  0.53524599  0.46186079  0.22652821  1  0  0.432131  0  0.832468  0  0.614486  0  0.409578  0  0.892086  0  0  0.418806  0  0.878563  0  0  0.314537  0.40296  0  0.901816  0
H  H10  1  0.53524493  0.96185729  0.27347266  1  0  0.432182  0  0.832437  0  0.614461  0  0.409626  0  0.892029  0  0  0.418856  0  0.878502  0  0  0.314561  0.403008  0  0.901759  0
H  H11  1  0.46475495  0.53814299  0.77347219  1  0  0.432157  0  0.832503  0  0.61445  0  0.409608  0  0.892052  0  0  0.418837  0  0.878529  0  0  0.31455  0.402991  0  0.901781  0
H  H12  1  0.53189048  0.16084519  0.77291107  1  0  0.394914  0  0.928593  0  0.641453  0  0.349625  0  1.015542  0  0  0.361582  0  0.998835  0  0  0.283649  0.341254  0  1.027184  0
H  H13  1  0.46811106  0.33915437  0.27291354  1  0  0.394927  0  0.928571  0  0.641446  0  0.349633  0  1.01553  0  0  0.361591  0  0.998821  0  0  0.283659  0.341262  0  1.027171  0
H  H14  1  0.46810900  0.83915167  0.22708665  1  0  0.394898  0  0.928623  0  0.641447  0  0.349591  0  1.015599  0  0  0.361548  0  0.998891  0  0  0.283642  0.341221  0  1.027239  0
H  H15  1  0.53188985  0.66084855  0.72708619  1  0  0.394907  0  0.928605  0  0.641437  0  0.349601  0  1.015581  0  0  0.361558  0  0.998874  0  0  0.283645  0.34123  0  1.027223  0
H  H16  1  0.91399657  0.40170557  0.93911818  1  0  0.109384  0  0.941879  0  0.078039  0  0.119038  0  1.001004  0  0  0.122604  0  0.999793  0  0  0.109541  0.116468  0  1.002039  0
H  H17  1  0.08600556  0.09829505  0.43911892  1  0  0.109379  0  0.941838  0  0.078053  0  0.119023  0  1.000995  0  0  0.12258  0  0.999782  0  0  0.109522  0.116453  0  1.002029  0
H  H18  1  0.08600419  0.59829302  0.06087954  1  0  0.109381  0  0.941898  0  0.078262  0  0.119046  0  1.001021  0  0  0.122603  0  0.999807  0  0  0.109541  0.116478  0  1.002052  0
H  H19  1  0.91399532  0.90170700  0.56088014  1  0  0.109381  0  0.941843  0  0.078001  0  0.119039  0  1.000979  0  0  0.122602  0  0.999768  0  0  0.109526  0.11647  0  1.002013  0
H  H20  1  0.74623712  0.22058075  0.91683263  1  0  0.098426  0  0.933414  0  0.128395  0  0.105885  0  0.99615  0  0  0.109136  0  0.992957  0  0  0.124727  0.103428  0  0.998634  0
H  H21  1  0.25376390  0.27942071  0.41683264  1  0  0.098423  0  0.933434  0  0.128361  0  0.105885  0  0.996173  0  0  0.109136  0  0.992979  0  0  0.124728  0.103429  0  0.998656  0
H  H22  1  0.25376966  0.77941529  0.08316642  1  0  0.098392  0  0.933413  0  0.128431  0  0.10586  0  0.99615  0  0  0.109111  0  0.992955  0  0  0.124704  0.103403  0  0.998634  0
H  H23  1  0.74623092  0.72058304  0.58316642  1  0  0.098378  0  0.933424  0  0.128414  0  0.10585  0  0.99615  0  0  0.109103  0  0.992949  0  0  0.124699  0.103392  0  0.998638  0
H  H24  1  0.58633498  0.32839215  0.66777757  1  0  0.092252  0  0.913934  0  0.102322  0  0.103193  0  0.969984  0  0  0.10573  0  0.968362  0  0  0.125691  0.101294  0  0.971287  0
H  H25  1  0.41366583  0.17160900  0.16777797  1  0  0.092254  0  0.913917  0  0.10231  0  0.103194  0  0.969969  0  0  0.105731  0  0.968348  0  0  0.1257  0.101295  0  0.971274  0
H  H26  1  0.41365484  0.67160811  0.33222417  1  0  0.092271  0  0.91394  0  0.102488  0  0.10318  0  0.970023  0  0  0.105715  0  0.968405  0  0  0.125723  0.101282  0  0.971325  0
H  H27  1  0.58634236  0.82839222  0.83222444  1  0  0.092272  0  0.913936  0  0.102471  0  0.103171  0  0.970029  0  0  0.105706  0  0.968407  0  0  0.125701  0.101271  0  0.971333  0
H  H28  1  0.74932946  0.51519840  0.67924570  1  0  0.126488  0  0.936428  0  0.109618  0  0.13715  0  0.991817  0  0  0.140214  0  0.990951  0  0  0.122341  0.134902  0  0.992671  0
H  H29  1  0.25067088  0.98480436  0.17924453  1  0  0.126487  0  0.936538  0  0.109497  0  0.137162  0  0.991907  0  0  0.140224  0  0.991041  0  0  0.122361  0.134914  0  0.99276  0
H  H30  1  0.25065791  0.48480185  0.32075537  1  0  0.126496  0  0.936469  0  0.10965  0  0.137137  0  0.991894  0  0  0.140196  0  0.991024  0  0  0.122323  0.134888  0  0.992747  0
H  H31  1  0.74933980  0.01519861  0.82075520  1  0  0.126467  0  0.936458  0  0.109659  0  0.137153  0  0.991832  0  0  0.140211  0  0.990963  0  0  0.122336  0.134904  0  0.992686  0
C  C32  1  0.96217888  0.85957379  0.93374547  1  0  0.706122  0  3.914833  0  1.711672  0  0.656736  0  4.218424  0  0  0.692521  0  4.206295  0  0  0.238407  0.632417  0  4.22581  0
C  C33  1  0.03782154  0.64042582  0.43375032  1  0  0.706151  0  3.915005  0  1.711239  0  0.656674  0  4.218751  0  0  0.692457  0  4.206622  0  0  0.23831  0.632353  0  4.226139  0
C  C34  1  0.03783028  0.14042053  0.06625359  1  0  0.705958  0  3.915069  0  1.711386  0  0.65666  0  4.218553  0  0  0.692443  0  4.206428  0  0  0.238375  0.632341  0  4.225937  0
C  C35  1  0.96217081  0.35957705  0.56625745  1  0  0.705895  0  3.914961  0  1.711708  0  0.656527  0  4.218527  0  0  0.692303  0  4.206415  0  0  0.238301  0.632207  0  4.22591  0
C  C36  1  0.99528079  0.76092988  0.87362669  1  0  0.025444  0  3.6454  0  0.384793  0  0.013161  0  3.901398  0  0  0.011898  0  3.918986  0  0  0.099724  0.013813  0  3.889827  0
C  C37  1  0.00471880  0.73907397  0.37363032  1  0  0.025405  0  3.645132  0  0.38499  0  0.013145  0  3.901149  0  0  0.011881  0  3.918739  0  0  0.099718  0.013799  0  3.88958  0
C  C38  1  0.00472602  0.23906702  0.12637639  1  0  0.025531  0  3.645399  0  0.385272  0  0.013148  0  3.901441  0  0  0.011887  0  3.919031  0  0  0.099707  0.013799  0  3.88987  0
C  C39  1  0.99527248  0.26093321  0.62637879  1  0  0.025358  0  3.645573  0  0.385212  0  0.013124  0  3.901517  0  0  0.011866  0  3.91911  0  0  0.099676  0.013775  0  3.889947  0
C  C40  1  0.07251226  0.74543034  0.79153795  1  0  0.020515  0  3.714434  0  0.477927  0  0.015753  0  3.974006  0  0  0.014002  0  3.994141  0  0  0.097036  0.016799  0  3.9605  0
C  C41  1  0.92748635  0.75457081  0.29154046  1  0  0.020474  0  3.714314  0  0.477864  0  0.015737  0  3.973813  0  0  0.013984  0  3.993949  0  0  0.097013  0.01678  0  3.960312  0
C  C42  1  0.92749082  0.25456481  0.20846513  1  0  0.020338  0  3.714749  0  0.477468  0  0.015634  0  3.974229  0  0  0.013878  0  3.99437  0  0  0.096946  0.01668  0  3.960722  0
C  C43  1  0.07250728  0.24543379  0.70846463  1  0  0.020568  0  3.714499  0  0.477466  0  0.015737  0  3.974106  0  0  0.013978  0  3.994251  0  0  0.096984  0.016783  0  3.960597  0
C  C44  1  0.18727159  0.82023438  0.73720555  1  0  0.694725  0  3.907029  0  1.676714  0  0.646264  0  4.210954  0  0  0.681425  0  4.199835  0  0  0.225924  0.622379  0  4.217695  0
C  C45  1  0.81273216  0.67976761  0.23720613  1  0  0.694581  0  3.907375  0  1.676521  0  0.646174  0  4.211187  0  0  0.681335  0  4.200068  0  0  0.22587  0.622292  0  4.217929  0
C  C46  1  0.81273406  0.17976424  0.26279820  1  0  0.694705  0  3.907405  0  1.676605  0  0.646311  0  4.211184  0  0  0.681473  0  4.200066  0  0  0.225985  0.622428  0  4.217926  0
C  C47  1  0.18726630  0.32023530  0.76279695  1  0  0.694703  0  3.907329  0  1.676637  0  0.646284  0  4.211193  0  0  0.681447  0  4.200073  0  0  0.225938  0.6224  0  4.217932  0
C  C48  1  0.93281083  0.58536754  0.81956841  1  0  0.369893  0  3.711422  0  1.051461  0  0.334864  0  3.991334  0  0  0.349935  0  4.002844  0  0  0.238367  0.324973  0  3.983043  0
C  C49  1  0.06719258  0.91463453  0.31956942  1  0  0.369967  0  3.711379  0  1.051636  0  0.334916  0  3.991331  0  0  0.349985  0  4.002843  0  0  0.238332  0.325029  0  3.983037  0
C  C50  1  0.06718870  0.41463104  0.18043132  1  0  0.369812  0  3.711791  0  1.052044  0  0.334839  0  3.991528  0  0  0.34991  0  4.003042  0  0  0.238346  0.324943  0  3.983249  0
C  C51  1  0.93280835  0.08536925  0.68043098  1  0  0.369971  0  3.711721  0  1.051958  0  0.334975  0  3.991484  0  0  0.350048  0  4.002994  0  0  0.238376  0.325081  0  3.983199  0
C  C52  1  0.84371176  0.47404228  0.81059468  1  0  0.035135  0  3.781214  0  -0.005754  0  0.049053  0  4.019895  0  0  0.050489  0  4.040977  0  0  0.016621  0.048139  0  4.005613  0
C  C53  1  0.15629089  0.02595820  0.31059462  1  0  0.035165  0  3.781312  0  -0.005647  0  0.049091  0  4.019989  0  0  0.050527  0  4.04107  0  0  0.016683  0.048176  0  4.005705  0
C  C54  1  0.15628528  0.52595457  0.18940505  1  0  0.035087  0  3.78145  0  -0.006026  0  0.04912  0  4.01991  0  0  0.050557  0  4.040988  0  0  0.016653  0.048207  0  4.005629  0
C  C55  1  0.84371125  0.97404473  0.68940511  1  0  0.035057  0  3.781471  0  -0.005966  0  0.049124  0  4.019894  0  0  0.050561  0  4.040974  0  0  0.016696  0.048211  0  4.005613  0
C  C56  1  0.84202138  0.38990736  0.87818322  1  0  -0.140884  0  3.693949  0  0.019114  0  -0.161238  0  3.942574  0  0  -0.167405  0  3.962625  0  0  -0.07545  -0.157234  0  3.929089  0
C  C57  1  0.15798221  0.11009319  0.37818321  1  0  -0.140884  0  3.69392  0  0.0189  0  -0.161225  0  3.942554  0  0  -0.167379  0  3.962594  0  0  -0.075423  -0.15722  0  3.929067  0
C  C58  1  0.15797938  0.61009123  0.12181584  1  0  -0.140899  0  3.693916  0  0.01898  0  -0.161325  0  3.94256  0  0  -0.167479  0  3.962599  0  0  -0.075498  -0.15732  0  3.929073  0
C  C59  1  0.84201867  0.88990886  0.62181584  1  0  -0.140878  0  3.69391  0  0.019314  0  -0.161302  0  3.942524  0  0  -0.167467  0  3.962573  0  0  -0.075476  -0.157296  0  3.929036  0
C  C60  1  0.75049988  0.28756742  0.86540755  1  0  0.147008  0  3.668869  0  0.520001  0  0.113583  0  3.92861  0  0  0.120378  0  3.94386  0  0  0.062274  0.109132  0  3.918375  0
C  C61  1  0.24950013  0.21243396  0.36540751  1  0  0.147031  0  3.668823  0  0.520007  0  0.113586  0  3.928556  0  0  0.120384  0  3.943804  0  0  0.062266  0.109135  0  3.91832  0
C  C62  1  0.24950085  0.71243031  0.13459084  1  0  0.147022  0  3.668848  0  0.519869  0  0.113542  0  3.928575  0  0  0.120336  0  3.943823  0  0  0.06228  0.109091  0  3.918341  0
C  C63  1  0.75049711  0.78756893  0.63459155  1  0  0.146999  0  3.668866  0  0.51991  0  0.113534  0  3.928597  0  0  0.120328  0  3.943847  0  0  0.062277  0.109082  0  3.918361  0
C  C64  1  0.66235754  0.34790764  0.72637426  1  0  0.121305  0  3.696772  0  0.504532  0  0.090944  0  3.95365  0  0  0.096419  0  3.970663  0  0  0.053399  0.087356  0  3.942264  0
C  C65  1  0.33764303  0.15209359  0.22637407  1  0  0.121289  0  3.696838  0  0.504514  0  0.090916  0  3.953709  0  0  0.096393  0  3.970725  0  0  0.053367  0.087327  0  3.942323  0
C  C66  1  0.33763466  0.65209091  0.27362614  1  0  0.121403  0  3.696945  0  0.503834  0  0.091018  0  3.953792  0  0  0.096493  0  3.970805  0  0  0.053439  0.08743  0  3.942404  0
C  C67  1  0.66236280  0.84791022  0.77362633  1  0  0.12135  0  3.696952  0  0.503843  0  0.09098  0  3.953815  0  0  0.096455  0  3.970827  0  0  0.053434  0.087392  0  3.942428  0
C  C68  1  0.75107594  0.45198735  0.73304055  1  0  -0.138823  0  3.715932  0  -0.006964  0  -0.159272  0  3.967547  0  0  -0.164641  0  3.987592  0  0  -0.07214  -0.155922  0  3.954354  0
C  C69  1  0.24892583  0.04801389  0.23304039  1  0  -0.138829  0  3.716093  0  -0.00688  0  -0.159281  0  3.967702  0  0  -0.164648  0  3.987746  0  0  -0.072164  -0.15593  0  3.954507  0
C  C70  1  0.24891630  0.54801206  0.26695985  1  0  -0.138772  0  3.71608  0  -0.006497  0  -0.159248  0  3.967646  0  0  -0.164607  0  3.987683  0  0  -0.072115  -0.155895  0  3.954449  0
C  C71  1  0.75108119  0.95198906  0.76695934  1  0  -0.138741  0  3.716117  0  -0.006508  0  -0.159255  0  3.967671  0  0  -0.164614  0  3.987708  0  0  -0.072133  -0.155905  0  3.954477  0
C  C72  1  0.53468411  0.06332625  0.00070741  1  0  0.538079  0  3.969341  0  1.644932  0  0.498406  0  4.274584  0  0  0.527516  0  4.266806  0  0  0.204517  0.478657  0  4.278932  0
C  C73  1  0.46531244  0.43667382  0.50070724  1  0  0.538071  0  3.969254  0  1.644353  0  0.498403  0  4.274486  0  0  0.527514  0  4.266709  0  0  0.204536  0.478651  0  4.278837  0
C  C74  1  0.46532573  0.93668795  0.99928495  1  0  0.537731  0  3.969532  0  1.6244  0  0.498038  0  4.274824  0  0  0.527151  0  4.267047  0  0  0.204423  0.478284  0  4.279174  0
C  C75  1  0.53467318  0.56331086  0.49928579  1  0  0.537775  0  3.969655  0  1.62469  0  0.49809  0  4.274927  0  0  0.5272  0  4.267152  0  0  0.204452  0.478338  0  4.279276  0
N  N76  1  0.91228604  0.65777456  0.89024120  1  0  -0.33351  0  3.395767  0  -1.306532  0  -0.282554  0  3.631681  0  0  -0.297244  0  3.642956  0  0  -0.361345  -0.272662  0  3.624079  0
N  N77  1  0.08771343  0.84222758  0.39024279  1  0  -0.333629  0  3.395712  0  -1.306715  0  -0.282704  0  3.631642  0  0  -0.297392  0  3.642915  0  0  -0.361354  -0.272816  0  3.624042  0
N  N78  1  0.08771586  0.34222145  0.10975987  1  0  -0.333376  0  3.395897  0  -1.306514  0  -0.282429  0  3.631798  0  0  -0.29712  0  3.643076  0  0  -0.36126  -0.272536  0  3.624196  0
N  N79  1  0.91227904  0.15777875  0.60976096  1  0  -0.333502  0  3.395837  0  -1.306493  0  -0.282609  0  3.631712  0  0  -0.297302  0  3.642986  0  0  -0.36129  -0.272715  0  3.624112  0
N  N80  1  0.03163523  0.63649303  0.75916879  1  0  -0.499552  0  3.129278  0  -1.256716  0  -0.468218  0  3.407891  0  0  -0.484128  0  3.423401  0  0  -0.379568  -0.456932  0  3.397186  0
N  N81  1  0.96836840  0.86350812  0.25917134  1  0  -0.499556  0  3.12921  0  -1.256617  0  -0.468235  0  3.407844  0  0  -0.484143  0  3.423351  0  0  -0.379568  -0.456957  0  3.39714  0
N  N82  1  0.96836788  0.36350299  0.24082960  1  0  -0.499476  0  3.129484  0  -1.257044  0  -0.468189  0  3.408039  0  0  -0.484096  0  3.423549  0  0  -0.379541  -0.45691  0  3.397336  0
N  N83  1  0.03163004  0.13649392  0.74082906  1  0  -0.499626  0  3.129358  0  -1.257048  0  -0.468317  0  3.407986  0  0  -0.484225  0  3.423495  0  0  -0.379587  -0.457031  0  3.397283  0
N  N84  1  0.66271192  0.26679938  0.79077340  1  0  -0.287686  0  3.161744  0  -1.26744  0  -0.225423  0  3.410291  0  0  -0.238374  0  3.425479  0  0  -0.296305  -0.216693  0  3.40005  0
N  N85  1  0.33728959  0.23320106  0.29077260  1  0  -0.287707  0  3.161779  0  -1.267469  0  -0.225407  0  3.410302  0  0  -0.238365  0  3.425497  0  0  -0.296298  -0.216677  0  3.400061  0
N  N86  1  0.33728631  0.73319661  0.20922700  1  0  -0.287785  0  3.161964  0  -1.267376  0  -0.225393  0  3.410392  0  0  -0.238345  0  3.425582  0  0  -0.296338  -0.216664  0  3.400151  0
N  N87  1  0.66271132  0.76680185  0.70922713  1  0  -0.287703  0  3.161883  0  -1.267416  0  -0.225336  0  3.410329  0  0  -0.238286  0  3.425516  0  0  -0.296316  -0.216605  0  3.400088  0
O  O88  1  0.88775288  0.83148707  0.00565745  1  0  -0.698132  0  2.016547  0  -1.213033  0  -0.661117  0  2.268865  0  0  -0.685977  0  2.256476  0  0  -0.384519  -0.643256  0  2.276944  0
O  O89  1  0.11224444  0.66851374  0.50566019  1  0  -0.6981  0  2.016725  0  -1.212528  0  -0.661068  0  2.269092  0  0  -0.685928  0  2.256706  0  0  -0.384478  -0.643196  0  2.277172  0
O  O90  1  0.11225635  0.16850898  0.99434429  1  0  -0.698037  0  2.01674  0  -1.212693  0  -0.661056  0  2.26901  0  0  -0.685916  0  2.256625  0  0  -0.384517  -0.643184  0  2.277088  0
O  O91  1  0.88774923  0.33149173  0.49434490  1  0  -0.697984  0  2.016644  0  -1.212971  0  -0.660996  0  2.268963  0  0  -0.685851  0  2.256582  0  0  -0.384493  -0.643131  0  2.277037  0
O  O92  1  0.99622953  0.96116156  0.90743479  1  0  -0.718555  0  2.126445  0  -1.221644  0  -0.679395  0  2.387992  0  0  -0.705806  0  2.377724  0  0  -0.395072  -0.660328  0  2.394365  0
O  O93  1  0.00377356  0.53884149  0.40743760  1  0  -0.718602  0  2.12665  0  -1.221855  0  -0.679392  0  2.388215  0  0  -0.705802  0  2.377953  0  0  -0.39502  -0.660331  0  2.394581  0
O  O94  1  0.00377600  0.03883361  0.09256494  1  0  -0.7185  0  2.126497  0  -1.221887  0  -0.67936  0  2.388014  0  0  -0.705771  0  2.377753  0  0  -0.395048  -0.660303  0  2.394388  0
O  O95  1  0.99622508  0.46116660  0.59257017  1  0  -0.718474  0  2.126422  0  -1.221754  0  -0.679292  0  2.38792  0  0  -0.705705  0  2.37767  0  0  -0.394998  -0.660226  0  2.394298  0
O  O96  1  0.23021170  0.92032440  0.76425814  1  0  -0.712275  0  2.065251  0  -1.230623  0  -0.671609  0  2.321501  0  0  -0.697565  0  2.30945  0  0  -0.391235  -0.653072  0  2.329452  0
O  O97  1  0.76979197  0.57967848  0.26426005  1  0  -0.712208  0  2.06535  0  -1.230568  0  -0.671534  0  2.32151  0  0  -0.697488  0  2.30946  0  0  -0.391178  -0.653004  0  2.329455  0
O  O98  1  0.76978793  0.07967678  0.23574427  1  0  -0.712225  0  2.065242  0  -1.230571  0  -0.671577  0  2.321432  0  0  -0.697531  0  2.309382  0  0  -0.391227  -0.653046  0  2.329376  0
O  O99  1  0.23021007  0.42032185  0.73574236  1  0  -0.712246  0  2.065308  0  -1.230598  0  -0.671579  0  2.321505  0  0  -0.697532  0  2.309454  0  0  -0.391193  -0.65304  0  2.329454  0
O  O100  1  0.23557207  0.77584631  0.66435533  1  0  -0.672552  0  1.973048  0  -1.197317  0  -0.637418  0  2.216475  0  0  -0.660746  0  2.203139  0  0  -0.387023  -0.620792  0  2.225351  0
O  O101  1  0.76443314  0.72415387  0.16435735  1  0  -0.6725  0  1.973203  0  -1.197249  0  -0.637395  0  2.216603  0  0  -0.660723  0  2.203266  0  0  -0.387042  -0.620776  0  2.225474  0
O  O102  1  0.76443960  0.22414975  0.33564641  1  0  -0.672541  0  1.973256  0  -1.197341  0  -0.637444  0  2.216651  0  0  -0.660773  0  2.203316  0  0  -0.387072  -0.620828  0  2.225523  0
O  O103  1  0.23556288  0.27584902  0.83564573  1  0  -0.672543  0  1.973206  0  -1.197318  0  -0.637427  0  2.216607  0  0  -0.660756  0  2.20327  0  0  -0.387052  -0.620803  0  2.225483  0
O  O104  1  0.43386298  0.10527934  0.76091953  1  0  -0.910502  0  1.945613  0  -1.268477  0  -0.864397  0  2.149006  0  0  -0.885081  0  2.117677  0  0  -0.64792  -0.849275  0  2.17101  0
O  O105  1  0.56613861  0.39472021  0.26092192  1  0  -0.910499  0  1.945494  0  -1.268492  0  -0.864401  0  2.148949  0  0  -0.885084  0  2.117619  0  0  -0.64792  -0.849288  0  2.170946  0
O  O106  1  0.56613286  0.89471837  0.23907618  1  0  -0.91052  0  1.945528  0  -1.26845  0  -0.864407  0  2.148957  0  0  -0.885091  0  2.117628  0  0  -0.647917  -0.849292  0  2.170957  0
O  O107  1  0.43386346  0.60528098  0.73907512  1  0  -0.910513  0  1.945552  0  -1.268418  0  -0.864407  0  2.148969  0  0  -0.885092  0  2.11764  0  0  -0.647913  -0.849285  0  2.170974  0
O  O108  1  0.45784847  0.13680505  0.95602304  1  0  -0.639201  0  2.044141  0  -1.210227  0  -0.603145  0  2.283793  0  0  -0.62546  0  2.273583  0  0  -0.368055  -0.587233  0  2.290526  0
O  O109  1  0.54215103  0.36319212  0.45602409  1  0  -0.639225  0  2.044016  0  -1.209634  0  -0.603167  0  2.283667  0  0  -0.625481  0  2.273457  0  0  -0.36807  -0.58726  0  2.2904  0
O  O110  1  0.54216367  0.86320484  0.04396597  1  0  -0.639085  0  2.044238  0  -1.210546  0  -0.60304  0  2.28394  0  0  -0.625358  0  2.273737  0  0  -0.368053  -0.587132  0  2.290673  0
O  O111  1  0.45783701  0.63679172  0.54396424  1  0  -0.639108  0  2.044275  0  -1.210538  0  -0.603064  0  2.283977  0  0  -0.625381  0  2.273775  0  0  -0.368077  -0.587148  0  2.290714  0
O  O112  1  0.66332388  0.08217045  0.04661416  1  0  -0.660326  0  2.033482  0  -1.213139  0  -0.626461  0  2.27787  0  0  -0.649696  0  2.268209  0  0  -0.374594  -0.609903  0  2.284169  0
O  O113  1  0.33666757  0.41782879  0.54661146  1  0  -0.660341  0  2.03345  0  -1.213194  0  -0.626485  0  2.277846  0  0  -0.649721  0  2.268185  0  0  -0.37463  -0.609923  0  2.284163  0
O  O114  1  0.33667980  0.91784199  0.95338020  1  0  -0.660185  0  2.033525  0  -1.213109  0  -0.626295  0  2.277879  0  0  -0.649533  0  2.26822  0  0  -0.374571  -0.609733  0  2.284191  0
O  O115  1  0.66331916  0.58215245  0.45338492  1  0  -0.66015  0  2.033571  0  -1.213327  0  -0.626277  0  2.277946  0  0  -0.649509  0  2.268284  0  0  -0.374547  -0.609729  0  2.284268  0
