# generated using pymatgen
data_ZnH15C19N3O4
_symmetry_space_group_name_H-M   'P 1'
_cell_length_a   7.88032859
_cell_length_b   10.35762463
_cell_length_c   11.24345718
_cell_angle_alpha   70.62706797
_cell_angle_beta   84.09418605
_cell_angle_gamma   73.75476659
_symmetry_Int_Tables_number   1
_chemical_formula_structural   ZnH15C19N3O4
_chemical_formula_sum   'Zn2 H30 C38 N6 O8'
_cell_volume   831.12838982
_cell_formula_units_Z   2
loop_
 _symmetry_equiv_pos_site_id
 _symmetry_equiv_pos_as_xyz
  1  'x, y, z'
loop_
 _atom_site_type_symbol
 _atom_site_label
 _atom_site_symmetry_multiplicity
 _atom_site_fract_x
 _atom_site_fract_y
 _atom_site_fract_z
 _atom_site_occupancy
 _atom_site_hle17_bader_spin_density
 _atom_site_hle17_ddec_charge
 _atom_site_hle17_ddec_spin_density
 _atom_site_hle17_ddec_sum_bond_order
 _atom_site_hle17_magmom
 _atom_site_hse06_10hf_bader_spin_density
 _atom_site_hse06_10hf_ddec_charge
 _atom_site_hse06_10hf_ddec_spin_density
 _atom_site_hse06_10hf_ddec_sum_bond_order
 _atom_site_hse06_10hf_magmom
 _atom_site_hse06_bader_spin_density
 _atom_site_hse06_ddec_charge
 _atom_site_hse06_ddec_spin_density
 _atom_site_hse06_ddec_sum_bond_order
 _atom_site_hse06_magmom
 _atom_site_pbe_bader_spin_density
 _atom_site_pbe_cm5_charge
 _atom_site_pbe_ddec_charge
 _atom_site_pbe_ddec_spin_density
 _atom_site_pbe_ddec_sum_bond_order
 _atom_site_pbe_magmom
Zn  Zn0  1  0.15313008  0.34272975  0.21634985  1  0  0.999144  0  1.883025  0  0  0.812793  0  2.354229  0  0  0.858534  0  2.300613  0  0  0.706973  0.777361  0  2.394577  0
Zn  Zn1  1  0.84686497  0.65727201  0.78364668  1  0  0.999124  0  1.883006  0  0  0.812783  0  2.354207  0  0  0.85855  0  2.300591  0  0  0.70696  0.777395  0  2.394487  0
H  H2  1  0.93340728  0.35877889  0.57789195  1  0  0.298914  0  0.94212  0  0  0.282686  0  1.005215  0  0  0.290615  0  0.998792  0  0  0.299023  0.276947  0  1.009916  0
H  H3  1  0.06659873  0.64121642  0.42210929  1  0  0.298997  0  0.942196  0  0  0.282772  0  1.00527  0  0  0.290703  0  0.998844  0  0  0.299099  0.277033  0  1.009974  0
H  H4  1  0.83345817  0.46739895  0.09035990  1  0  0.089178  0  0.961357  0  0  0.096442  0  1.027566  0  0  0.099946  0  1.023553  0  0  0.114729  0.093611  0  1.031068  0
H  H5  1  0.16652888  0.53260390  0.90964132  1  0  0.089163  0  0.96133  0  0  0.096448  0  1.02752  0  0  0.099932  0  1.023528  0  0  0.114705  0.093621  0  1.031014  0
H  H6  1  0.54874368  0.63636749  0.11344519  1  0  0.106064  0  0.976175  0  0  0.115809  0  1.036659  0  0  0.118443  0  1.037342  0  0  0.102117  0.113865  0  1.036446  0
H  H7  1  0.45124405  0.36363318  0.88656553  1  0  0.106065  0  0.976156  0  0  0.115787  0  1.036666  0  0  0.118423  0  1.037348  0  0  0.1021  0.113848  0  1.036456  0
H  H8  1  0.46628899  0.66711460  0.32778784  1  0  0.086084  0  0.955591  0  0  0.097634  0  1.017392  0  0  0.099684  0  1.015866  0  0  0.101283  0.09614  0  1.018388  0
H  H9  1  0.53370902  0.33288176  0.67222433  1  0  0.08606  0  0.955573  0  0  0.097596  0  1.017409  0  0  0.099647  0  1.01588  0  0  0.101289  0.096101  0  1.018405  0
H  H10  1  0.67320097  0.52634144  0.50748637  1  0  0.124652  0  0.955861  0  0  0.133417  0  1.016819  0  0  0.137051  0  1.016313  0  0  0.10718  0.130791  0  1.017472  0
H  H11  1  0.32680782  0.47366122  0.49251690  1  0  0.124581  0  0.955933  0  0  0.133399  0  1.016826  0  0  0.137034  0  1.016318  0  0  0.107192  0.130775  0  1.017468  0
H  H12  1  0.05736618  0.15670659  0.43534578  1  0  0.095244  0  0.963485  0  0  0.108515  0  1.028701  0  0  0.110526  0  1.026392  0  0  0.115095  0.107028  0  1.030291  0
H  H13  1  0.94263343  0.84328879  0.56465323  1  0  0.095211  0  0.963568  0  0  0.108475  0  1.0288  0  0  0.110477  0  1.026495  0  0  0.115098  0.106987  0  1.03039  0
H  H14  1  0.08271211  0.12735908  0.59773635  1  0  0.090814  0  0.924487  0  0  0.105433  0  0.986084  0  0  0.106864  0  0.984543  0  0  0.112662  0.104367  0  0.987226  0
H  H15  1  0.91728784  0.87263523  0.40226384  1  0  0.090859  0  0.924471  0  0  0.105466  0  0.986109  0  0  0.106895  0  0.984565  0  0  0.112684  0.104399  0  0.987254  0
H  H16  1  0.36993571  0.10836372  0.66889540  1  0  0.103995  0  0.963989  0  0  0.11901  0  1.017035  0  0  0.121428  0  1.01703  0  0  0.10895  0.117043  0  1.01746  0
H  H17  1  0.63006918  0.89164323  0.33110331  1  0  0.103954  0  0.96405  0  0  0.118945  0  1.017124  0  0  0.121384  0  1.01709  0  0  0.108945  0.116979  0  1.01755  0
H  H18  1  0.69212181  0.08630717  0.61233693  1  0  0.109544  0  0.966218  0  0  0.119321  0  1.024503  0  0  0.122081  0  1.022748  0  0  0.109471  0.117185  0  1.025876  0
H  H19  1  0.30788335  0.91370299  0.38765456  1  0  0.109473  0  0.966287  0  0  0.119274  0  1.02456  0  0  0.122037  0  1.022801  0  0  0.109435  0.117139  0  1.025932  0
H  H20  1  0.77581032  0.17606132  0.38256048  1  0  0.118092  0  0.953636  0  0  0.127537  0  1.011701  0  0  0.130326  0  1.011861  0  0  0.112486  0.125452  0  1.011913  0
H  H21  1  0.22418660  0.82394261  0.61742548  1  0  0.117992  0  0.953716  0  0  0.127463  0  1.011754  0  0  0.130278  0  1.011883  0  0  0.112465  0.125379  0  1.011965  0
H  H22  1  0.53323925  0.29353367  0.22430352  1  0  0.075055  0  0.954548  0  0  0.084957  0  1.019071  0  0  0.086691  0  1.017726  0  0  0.119752  0.083464  0  1.020369  0
H  H23  1  0.46674389  0.70647348  0.77569135  1  0  0.075104  0  0.954356  0  0  0.084974  0  1.018914  0  0  0.086722  0  1.017562  0  0  0.119711  0.08348  0  1.020214  0
H  H24  1  0.29150612  0.70984398  0.92832137  1  0  0.08966  0  0.966602  0  0  0.097913  0  1.034354  0  0  0.101  0  1.031786  0  0  0.101642  0.095612  0  1.036329  0
H  H25  1  0.70848159  0.29015678  0.07167598  1  0  0.089627  0  0.966699  0  0  0.0979  0  1.034436  0  0  0.10099  0  1.031861  0  0  0.101649  0.095601  0  1.036404  0
H  H26  1  0.34483723  0.94643036  0.81493144  1  0  0.071734  0  0.990352  0  0  0.081816  0  1.054807  0  0  0.084718  0  1.05397  0  0  0.09189  0.079911  0  1.05532  0
H  H27  1  0.65516555  0.05356709  0.18506850  1  0  0.071703  0  0.990381  0  0  0.081793  0  1.054828  0  0  0.084693  0  1.053994  0  0  0.09187  0.079889  0  1.05534  0
H  H28  1  0.28010103  0.13201909  0.92363569  1  0  0.101364  0  0.945861  0  0  0.110269  0  1.00877  0  0  0.1136  0  1.006859  0  0  0.104095  0.107753  0  1.010275  0
H  H29  1  0.71990720  0.86797727  0.07636508  1  0  0.101319  0  0.945881  0  0  0.110241  0  1.008758  0  0  0.113568  0  1.006859  0  0  0.10407  0.107727  0  1.010261  0
H  H30  1  0.12153245  0.83832188  0.25590245  1  0  0.092478  0  0.979101  0  0  0.098484  0  1.051969  0  0  0.102847  0  1.047736  0  0  0.100904  0.095306  0  1.05522  0
H  H31  1  0.87847089  0.16168191  0.74409643  1  0  0.092534  0  0.979021  0  0  0.098538  0  1.051906  0  0  0.102907  0  1.04766  0  0  0.100922  0.095358  0  1.055153  0
C  C32  1  0.79163116  0.48263025  0.18153441  1  0  0.132771  0  3.722661  0  0  0.101754  0  3.973698  0  0  0.110979  0  3.990265  0  0  0.036728  0.095769  0  3.962613  0
C  C33  1  0.20836612  0.51737252  0.81846788  1  0  0.132769  0  3.722705  0  0  0.101756  0  3.973716  0  0  0.110993  0  3.990295  0  0  0.036747  0.095769  0  3.962641  0
C  C34  1  0.63357498  0.57677096  0.19448319  1  0  -0.158849  0  3.770574  0  0  -0.174454  0  4.026934  0  0  -0.184007  0  4.048835  0  0  -0.109511  -0.168563  0  4.012651  0
C  C35  1  0.36641908  0.42323392  0.80552225  1  0  -0.158876  0  3.770662  0  0  -0.174448  0  4.026998  0  0  -0.184002  0  4.048893  0  0  -0.109475  -0.168565  0  4.012722  0
C  C36  1  0.59047990  0.59416289  0.31364486  1  0  0.006292  0  3.77429  0  0  -0.013681  0  4.026355  0  0  -0.005989  0  4.043218  0  0  -0.076019  -0.018238  0  4.014933  0
C  C37  1  0.40951927  0.40584195  0.68636023  1  0  0.006346  0  3.774198  0  0  -0.013641  0  4.026284  0  0  -0.005952  0  4.04315  0  0  -0.076056  -0.018197  0  4.014861  0
C  C38  1  0.70355961  0.51688816  0.41349857  1  0  -0.229909  0  3.692819  0  0  -0.244513  0  3.947282  0  0  -0.255992  0  3.966805  0  0  -0.100514  -0.237591  0  3.93501  0
C  C39  1  0.29644751  0.48311980  0.58650501  1  0  -0.229834  0  3.692901  0  0  -0.24445  0  3.947322  0  0  -0.255927  0  3.96684  0  0  -0.100453  -0.237526  0  3.935049  0
C  C40  1  0.86203263  0.41872973  0.39502074  1  0  0.429253  0  3.810256  0  0  0.395001  0  4.074787  0  0  0.416065  0  4.08774  0  0  0.229085  0.380976  0  4.065627  0
C  C41  1  0.13796881  0.58127196  0.60497891  1  0  0.42914  0  3.810342  0  0  0.394892  0  4.074897  0  0  0.415958  0  4.087848  0  0  0.229061  0.380868  0  4.06574  0
C  C42  1  0.09418824  0.20086767  0.50265873  1  0  -0.040522  0  3.676811  0  0  -0.105479  0  3.932265  0  0  -0.10094  0  3.940231  0  0  -0.056621  -0.108408  0  3.926634  0
C  C43  1  0.90581393  0.79912769  0.49734010  1  0  -0.040497  0  3.67705  0  0  -0.105529  0  3.932548  0  0  -0.100974  0  3.940501  0  0  -0.056656  -0.108454  0  3.926905  0
C  C44  1  0.28628373  0.20154996  0.47647519  1  0  0.243938  0  3.695529  0  0  0.242957  0  3.941702  0  0  0.251174  0  3.961502  0  0  0.126321  0.237537  0  3.928533  0
C  C45  1  0.71371710  0.79844964  0.52352157  1  0  0.243749  0  3.695626  0  0  0.242981  0  3.941542  0  0  0.251221  0  3.961347  0  0  0.126266  0.237564  0  3.928377  0
C  C46  1  0.41263916  0.14511478  0.57113042  1  0  -0.159255  0  3.718424  0  0  -0.177921  0  3.965201  0  0  -0.186453  0  3.987892  0  0  -0.07812  -0.172824  0  3.950913  0
C  C47  1  0.58736551  0.85488478  0.42886875  1  0  -0.159134  0  3.71851  0  0  -0.17782  0  3.965209  0  0  -0.186368  0  3.987886  0  0  -0.078073  -0.172726  0  3.950924  0
C  C48  1  0.59072230  0.13481110  0.53977164  1  0  0.008195  0  3.684957  0  0  -0.009315  0  3.933121  0  0  -0.00503  0  3.951091  0  0  -0.06351  -0.011684  0  3.921261  0
C  C49  1  0.40928069  0.86519381  0.46021892  1  0  0.008243  0  3.684965  0  0  -0.009321  0  3.933179  0  0  -0.005036  0  3.951159  0  0  -0.063482  -0.011691  0  3.921323  0
C  C50  1  0.63843455  0.18508882  0.41308138  1  0  -0.113526  0  3.705125  0  0  -0.125944  0  3.95649  0  0  -0.133929  0  3.979439  0  0  -0.079717  -0.121237  0  3.941686  0
C  C51  1  0.36156466  0.81491187  0.58691250  1  0  -0.113468  0  3.705182  0  0  -0.125889  0  3.956527  0  0  -0.133895  0  3.979463  0  0  -0.079807  -0.121181  0  3.941719  0
C  C52  1  0.50541195  0.24703475  0.32391464  1  0  0.134912  0  3.702023  0  0  0.100216  0  3.956096  0  0  0.107353  0  3.975032  0  0  0.051032  0.095876  0  3.94313  0
C  C53  1  0.49457987  0.75296919  0.67607702  1  0  0.134778  0  3.701956  0  0  0.10013  0  3.956006  0  0  0.107276  0  3.974974  0  0  0.051104  0.095793  0  3.943042  0
C  C54  1  0.18324228  0.61345061  0.17174464  1  0  0.641874  0  3.91133  0  0  0.592689  0  4.20192  0  0  0.626163  0  4.196007  0  0  0.204981  0.569611  0  4.205326  0
C  C55  1  0.81675028  0.38654689  0.82826135  1  0  0.641864  0  3.911083  0  0  0.592681  0  4.201683  0  0  0.626149  0  4.195769  0  0  0.204953  0.569602  0  4.205095  0
C  C56  1  0.20474657  0.75842485  0.09925986  1  0  -0.075611  0  3.772381  0  0  -0.048166  0  4.00146  0  0  -0.05771  0  4.025103  0  0  -0.018993  -0.042084  0  3.986065  0
C  C57  1  0.79525883  0.24156834  0.90074295  1  0  -0.075527  0  3.772397  0  0  -0.048077  0  4.001467  0  0  -0.057618  0  4.025113  0  0  -0.018976  -0.041996  0  3.986068  0
C  C58  1  0.26566535  0.79111326  0.97411575  1  0  -0.052579  0  3.719325  0  0  -0.079549  0  3.96916  0  0  -0.076678  0  3.987143  0  0  -0.080063  -0.080346  0  3.956297  0
C  C59  1  0.73433387  0.20888737  0.02588615  1  0  -0.052605  0  3.719259  0  0  -0.079622  0  3.969138  0  0  -0.076749  0  3.987114  0  0  -0.080105  -0.080415  0  3.956275  0
C  C60  1  0.29417417  0.92410956  0.91140486  1  0  -0.077334  0  3.77584  0  0  -0.089764  0  4.031922  0  0  -0.094721  0  4.053213  0  0  -0.092333  -0.086604  0  4.016715  0
C  C61  1  0.70583184  0.07588575  0.08859638  1  0  -0.077251  0  3.775906  0  0  -0.089695  0  4.031997  0  0  -0.09465  0  4.053291  0  0  -0.092315  -0.086535  0  4.016791  0
C  C62  1  0.25894310  0.02731754  0.97138389  1  0  -0.045162  0  3.704544  0  0  -0.070949  0  3.950511  0  0  -0.06843  0  3.969801  0  0  -0.076038  -0.071578  0  3.936884  0
C  C63  1  0.74106830  0.97268089  0.02861781  1  0  -0.045248  0  3.70473  0  0  -0.071026  0  3.950686  0  0  -0.068512  0  3.969977  0  0  -0.076028  -0.071658  0  3.937061  0
C  C64  1  0.19428012  0.99677243  0.09580283  1  0  -0.072104  0  3.760067  0  0  -0.04405  0  3.987263  0  0  -0.054406  0  4.013041  0  0  -0.018927  -0.037495  0  3.970598  0
C  C65  1  0.80572327  0.00322713  0.90419821  1  0  -0.071949  0  3.759925  0  0  -0.043902  0  3.987099  0  0  -0.054253  0  4.012877  0  0  -0.018882  -0.037344  0  3.970433  0
C  C66  1  0.16926225  0.86216536  0.15875698  1  0  -0.073151  0  3.721082  0  0  -0.107453  0  3.964886  0  0  -0.10523  0  3.984644  0  0  -0.079291  -0.1091  0  3.95256  0
C  C67  1  0.83074304  0.13783630  0.84124330  1  0  -0.073225  0  3.721122  0  0  -0.107533  0  3.964903  0  0  -0.105307  0  3.98465  0  0  -0.079279  -0.109178  0  3.952576  0
C  C68  1  0.15279505  0.10407470  0.16465507  1  0  0.633641  0  3.926745  0  0  0.586232  0  4.217548  0  0  0.619832  0  4.211551  0  0  0.200262  0.563047  0  4.221091  0
C  C69  1  0.84720706  0.89592487  0.83534517  1  0  0.633534  0  3.926589  0  0  0.586146  0  4.217366  0  0  0.619744  0  4.211369  0  0  0.200218  0.562958  0  4.220919  0
N  N70  1  0.90489442  0.40585835  0.27846305  1  0  -0.463177  0  3.293415  0  0  -0.376472  0  3.57242  0  0  -0.399845  0  3.583131  0  0  -0.358443  -0.360291  0  3.56448  0
N  N71  1  0.09510574  0.59414335  0.72153669  1  0  -0.463126  0  3.293315  0  0  -0.376468  0  3.572392  0  0  -0.399838  0  3.583085  0  0  -0.358489  -0.360295  0  3.564459  0
N  N72  1  0.96960089  0.33703341  0.49437834  1  0  -0.414429  0  3.277972  0  0  -0.357025  0  3.528632  0  0  -0.377906  0  3.53789  0  0  -0.427555  -0.342368  0  3.521916  0
N  N73  1  0.03039967  0.66296300  0.50562296  1  0  -0.414403  0  3.278129  0  0  -0.357005  0  3.528827  0  0  -0.377895  0  3.538087  0  0  -0.427566  -0.34235  0  3.522115  0
N  N74  1  0.33452335  0.25298965  0.35484821  1  0  -0.365049  0  3.309036  0  0  -0.284055  0  3.582754  0  0  -0.302984  0  3.595382  0  0  -0.330871  -0.271012  0  3.573847  0
N  N75  1  0.66547115  0.74700577  0.64515116  1  0  -0.364843  0  3.308865  0  0  -0.283964  0  3.582576  0  0  -0.302958  0  3.595261  0  0  -0.330799  -0.270936  0  3.573687  0
O  O76  1  0.20853088  0.52404333  0.10950780  1  0  -0.644911  0  2.015094  0  0  -0.568053  0  2.274895  0  0  -0.59694  0  2.261045  0  0  -0.328472  -0.546407  0  2.285092  0
O  O77  1  0.79145610  0.47596381  0.89048414  1  0  -0.644929  0  2.015234  0  0  -0.567985  0  2.274904  0  0  -0.596911  0  2.261148  0  0  -0.328397  -0.546348  0  2.285107  0
O  O78  1  0.14559638  0.58335941  0.28740453  1  0  -0.622943  0  1.991063  0  0  -0.576244  0  2.222715  0  0  -0.59972  0  2.216395  0  0  -0.317145  -0.558953  0  2.226066  0
O  O79  1  0.85440740  0.41663487  0.71259540  1  0  -0.623042  0  1.990701  0  0  -0.576369  0  2.222381  0  0  -0.599843  0  2.216059  0  0  -0.317262  -0.559079  0  2.225733  0
O  O80  1  0.08928601  0.07273069  0.27472684  1  0  -0.637271  0  1.945268  0  0  -0.592731  0  2.176142  0  0  -0.615405  0  2.167152  0  0  -0.328919  -0.576069  0  2.18122  0
O  O81  1  0.91073219  0.92726235  0.72528399  1  0  -0.637183  0  1.945157  0  0  -0.592672  0  2.176071  0  0  -0.615342  0  2.167085  0  0  -0.328907  -0.576013  0  2.18115  0
O  O82  1  0.18910102  0.22425947  0.10540583  1  0  -0.637088  0  2.003871  0  0  -0.565052  0  2.269078  0  0  -0.593583  0  2.255501  0  0  -0.335584  -0.543793  0  2.278954  0
O  O83  1  0.81088764  0.77574233  0.89459381  1  0  -0.637072  0  2.003778  0  0  -0.565037  0  2.268956  0  0  -0.593574  0  2.25539  0  0  -0.335549  -0.543783  0  2.278834  0
