# generated using pymatgen
data_CuH12C12S(NO3)2
_symmetry_space_group_name_H-M   'P 1'
_cell_length_a   7.16473576
_cell_length_b   10.07272397
_cell_length_c   10.07261337
_cell_angle_alpha   85.85618057
_cell_angle_beta   74.70942151
_cell_angle_gamma   74.70938336
_symmetry_Int_Tables_number   1
_chemical_formula_structural   CuH12C12S(NO3)2
_chemical_formula_sum   'Cu2 H24 C24 S2 N4 O12'
_cell_volume   676.36726290
_cell_formula_units_Z   2
loop_
 _symmetry_equiv_pos_site_id
 _symmetry_equiv_pos_as_xyz
  1  'x, y, z'
loop_
 _atom_site_type_symbol
 _atom_site_label
 _atom_site_symmetry_multiplicity
 _atom_site_fract_x
 _atom_site_fract_y
 _atom_site_fract_z
 _atom_site_occupancy
 _atom_site_hle17_ddec_charge
 _atom_site_hle17_ddec_spin_density
 _atom_site_hle17_ddec_sum_bond_order
 _atom_site_hle17_magmom
 _atom_site_hse06_10hf_ddec_charge
 _atom_site_hse06_10hf_ddec_spin_density
 _atom_site_hse06_10hf_ddec_sum_bond_order
 _atom_site_hse06_10hf_magmom
 _atom_site_hse06_ddec_charge
 _atom_site_hse06_ddec_spin_density
 _atom_site_hse06_ddec_sum_bond_order
 _atom_site_hse06_magmom
 _atom_site_pbe_cm5_charge
 _atom_site_pbe_ddec_charge
 _atom_site_pbe_ddec_spin_density
 _atom_site_pbe_ddec_sum_bond_order
 _atom_site_pbe_magmom
Cu  Cu0  1  0.24999712  0.19720316  0.80279470  1  0.932802  -0.718876  1.744041  -0.543  0.910182  -0.795515  2.12665  -0.65  0.988641  -0.852716  2.066977  -0.726  0.752391  0.861207  -0.75688  2.169256  -0.602
Cu  Cu1  1  0.74999986  0.80279485  0.19720307  1  0.932809  -0.718883  1.744037  -0.543  0.910198  -0.795506  2.12657  -0.65  0.988603  -0.852724  2.066985  -0.726  0.752394  0.861219  -0.756881  2.169196  -0.602
H  H2  1  0.11332498  0.99607355  0.82146881  1  0.416982  0.000764  0.898501  0.002  0.383845  2.4e-05  0.967315  0.0  0.395655  0.000201  0.950511  0.0  0.285694  0.375618  -0.000115  0.978954  0.0
H  H3  1  0.38666271  0.17852933  0.00392744  1  0.416958  0.000765  0.898539  0.002  0.383865  2.4e-05  0.967282  0.0  0.395675  0.000202  0.95048  0.0  0.285755  0.375636  -0.000115  0.978921  0.0
H  H4  1  0.88666218  0.00392765  0.17853142  1  0.417015  0.000767  0.898449  0.002  0.383909  2.5e-05  0.967217  0.0  0.395718  0.000202  0.950414  0.0  0.285773  0.375682  -0.000114  0.978854  0.0
H  H5  1  0.61332232  0.82146983  0.99607133  1  0.417129  0.000767  0.898296  0.002  0.383947  2.5e-05  0.967175  0.0  0.395755  0.000202  0.950369  0.0  0.285723  0.375722  -0.000114  0.978811  0.0
H  H6  1  0.31207645  0.94328262  0.87713929  1  0.426219  0.000644  0.879795  0.001  0.396909  -0.000209  0.941265  0.0  0.408724  -6.8e-05  0.924595  0.0  0.290761  0.38858  -0.000319  0.953027  0.0
H  H7  1  0.18790846  0.12285904  0.05671584  1  0.426213  0.000643  0.8798  0.001  0.396911  -0.000209  0.941257  0.0  0.408729  -6.7e-05  0.924583  0.0  0.290768  0.388579  -0.000319  0.953022  0.0
H  H8  1  0.68790886  0.05671963  0.12286218  1  0.426241  0.000646  0.879771  0.001  0.396954  -0.000209  0.941203  0.0  0.408772  -6.8e-05  0.924528  0.0  0.290781  0.38862  -0.000319  0.95297  0.0
H  H9  1  0.81207629  0.87713703  0.94328022  1  0.426212  0.000645  0.879803  0.001  0.396909  -0.000209  0.941261  0.0  0.408724  -6.8e-05  0.924591  0.0  0.290764  0.38858  -0.000319  0.953023  0.0
H  H10  1  0.28095979  0.01531529  0.55566754  1  0.090813  -0.001644  0.930413  -0.003  0.100299  -0.001208  0.989472  -0.002  0.101957  -0.000822  0.987599  -0.002  0.123883  0.099632  -0.001402  0.989382  -0.002
H  H11  1  0.21903620  0.44432761  0.98469017  1  0.090964  -0.001642  0.9304  -0.003  0.100445  -0.001208  0.989421  -0.002  0.1021  -0.000821  0.987557  -0.002  0.123899  0.099779  -0.001401  0.989327  -0.002
H  H12  1  0.71904530  0.98468467  0.44432470  1  0.090924  -0.00164  0.930402  -0.003  0.100414  -0.001208  0.989425  -0.002  0.102068  -0.000821  0.987561  -0.002  0.123934  0.099748  -0.001402  0.989332  -0.002
H  H13  1  0.78095195  0.55567051  0.01531310  1  0.090916  -0.001645  0.930475  -0.003  0.100403  -0.001208  0.98949  -0.002  0.102058  -0.000821  0.987625  -0.002  0.123915  0.099739  -0.001401  0.989395  -0.002
H  H14  1  0.29147452  0.06508111  0.30745153  1  0.128234  -0.000709  0.976668  -0.001  0.133561  -0.000639  1.038189  -0.001  0.13666  -0.00047  1.037242  0.0  0.109602  0.130883  -0.000661  1.039849  -0.001
H  H15  1  0.20852588  0.69254057  0.93492842  1  0.128248  -0.00071  0.976666  -0.001  0.133568  -0.000639  1.038208  -0.001  0.136666  -0.00047  1.037264  0.0  0.109598  0.13089  -0.000662  1.039867  -0.001
H  H16  1  0.70853271  0.93492500  0.69254188  1  0.128205  -0.000711  0.97668  -0.001  0.133547  -0.00064  1.038201  -0.001  0.136647  -0.00047  1.037254  0.0  0.109585  0.130866  -0.000662  1.039867  -0.001
H  H17  1  0.79147452  0.30745950  0.06507555  1  0.128278  -0.000708  0.976708  -0.001  0.133581  -0.00064  1.038234  -0.001  0.13668  -0.00047  1.037285  0.0  0.109617  0.130903  -0.000662  1.039893  -0.001
H  H18  1  0.28188072  0.30547960  0.21764676  1  0.109052  -0.000632  0.935954  -0.001  0.121548  -0.000291  0.992997  0.0  0.124545  -0.000157  0.990607  0.0  0.111986  0.119756  -0.000481  0.993827  0.0
H  H19  1  0.21812073  0.78234723  0.69452763  1  0.109038  -0.000635  0.935847  -0.001  0.121506  -0.00029  0.992929  0.0  0.124503  -0.000157  0.990544  0.0  0.111977  0.119716  -0.000481  0.993758  0.0
H  H20  1  0.71812272  0.69452452  0.78235241  1  0.10908  -0.000634  0.936  -0.001  0.121585  -0.000291  0.993022  0.0  0.124585  -0.000158  0.990631  0.0  0.112011  0.119795  -0.000481  0.993849  0.0
H  H21  1  0.78189412  0.21764860  0.30547612  1  0.109058  -0.000636  0.935873  -0.001  0.121573  -0.000291  0.992911  0.0  0.124572  -0.000157  0.990517  0.0  0.111967  0.119782  -0.000481  0.993741  0.0
H  H22  1  0.25809775  0.55907722  0.27341793  1  0.119332  -0.000476  0.949245  -0.001  0.129943  -0.000299  1.007668  0.0  0.132702  -0.000196  1.006608  0.0  0.106872  0.127932  -0.000376  1.008296  0.0
H  H23  1  0.24191170  0.72657602  0.44092480  1  0.119415  -0.000473  0.949124  -0.001  0.129972  -0.000299  1.007605  0.0  0.132731  -0.000197  1.006544  0.0  0.106899  0.127961  -0.000376  1.008233  0.0
H  H24  1  0.74191425  0.44092684  0.72658473  1  0.119378  -0.000469  0.94908  -0.001  0.12993  -0.000299  1.007576  0.0  0.132694  -0.000196  1.006509  0.0  0.106875  0.127919  -0.000376  1.008203  0.0
H  H25  1  0.75810100  0.27342189  0.55907818  1  0.1194  -0.000468  0.94918  -0.001  0.129999  -0.000299  1.007609  0.0  0.132758  -0.000196  1.006549  0.0  0.106898  0.127987  -0.000376  1.008236  0.0
C  C26  1  0.27546346  0.11860923  0.51357197  1  0.152842  0.013969  3.657093  0.009  0.124909  0.003345  3.914128  0.002  0.135524  0.004995  3.931534  0.003  0.064989  0.117751  0.002168  3.90179  0.001
C  C27  1  0.22452962  0.48642336  0.88139908  1  0.152516  0.013946  3.657151  0.009  0.124628  0.003348  3.914171  0.002  0.135237  0.004991  3.931571  0.003  0.06503  0.11747  0.002168  3.901833  0.001
C  C28  1  0.72454118  0.88139178  0.48642325  1  0.152589  0.013956  3.657195  0.009  0.124689  0.003344  3.91424  0.002  0.135303  0.004994  3.931645  0.003  0.064963  0.11753  0.002168  3.901897  0.001
C  C29  1  0.77546654  0.51357673  0.11860166  1  0.152621  0.013971  3.657221  0.009  0.124697  0.003349  3.914226  0.002  0.135307  0.00499  3.931626  0.003  0.064999  0.117538  0.002168  3.901891  0.001
C  C30  1  0.28169947  0.14829070  0.37416376  1  -0.100767  -0.010784  3.678566  -0.012  -0.113859  -0.004436  3.930782  -0.005  -0.121206  -0.00374  3.950758  -0.005  -0.077748  -0.109648  -0.005132  3.918725  -0.006
C  C31  1  0.21829250  0.62583053  0.85171307  1  -0.100781  -0.010778  3.678724  -0.012  -0.113888  -0.004437  3.930961  -0.005  -0.121232  -0.003738  3.950932  -0.005  -0.077754  -0.109682  -0.005131  3.918917  -0.006
C  C32  1  0.71830738  0.85171234  0.62582994  1  -0.100622  -0.010788  3.678646  -0.012  -0.11376  -0.004435  3.930895  -0.005  -0.121101  -0.00374  3.950862  -0.005  -0.077687  -0.109555  -0.005131  3.91885  -0.006
C  C33  1  0.78170326  0.37416650  0.14828895  1  -0.100847  -0.010787  3.678756  -0.012  -0.113911  -0.004437  3.93098  -0.005  -0.121257  -0.00374  3.950955  -0.005  -0.077765  -0.109702  -0.005132  3.918926  -0.006
C  C34  1  0.27639966  0.28102772  0.32566205  1  -0.033712  0.014838  3.649863  0.009  -0.058962  0.004922  3.897412  0.003  -0.055308  0.00554  3.913889  0.003  -0.05701  -0.061291  0.004817  3.886422  0.003
C  C35  1  0.22360330  0.67432959  0.71897913  1  -0.033627  0.014832  3.649862  0.009  -0.058853  0.004923  3.89743  0.003  -0.055199  0.005539  3.913906  0.003  -0.057028  -0.061187  0.004817  3.88645  0.003
C  C36  1  0.72360626  0.71897741  0.67433860  1  -0.033889  0.014868  3.649923  0.009  -0.059095  0.004921  3.897521  0.003  -0.055447  0.005544  3.914008  0.003  -0.057139  -0.061425  0.004818  3.886537  0.003
C  C37  1  0.77640718  0.32566629  0.28102537  1  -0.033612  0.014859  3.649972  0.009  -0.058958  0.004922  3.897453  0.003  -0.055302  0.005543  3.913928  0.003  -0.057011  -0.061287  0.004817  3.886462  0.003
C  C38  1  0.26331628  0.38507427  0.41702142  1  0.024356  -0.005705  3.805403  -0.007  0.040106  -0.002479  4.038657  -0.003  0.03735  -0.001954  4.063091  -0.003  0.002093  0.04141  -0.002713  4.022515  -0.003
C  C39  1  0.23668533  0.58297457  0.61492894  1  0.024321  -0.005701  3.805362  -0.007  0.040084  -0.00248  4.038577  -0.003  0.037335  -0.001955  4.063025  -0.003  0.002127  0.04139  -0.002714  4.022438  -0.003
C  C40  1  0.73669476  0.61492465  0.58297681  1  0.024349  -0.005717  3.805408  -0.007  0.040011  -0.00248  4.03883  -0.003  0.037238  -0.001956  4.063268  -0.003  0.002141  0.041317  -0.002714  4.022685  -0.003
C  C41  1  0.76332278  0.41702438  0.38507079  1  0.024129  -0.005711  3.805504  -0.007  0.040125  -0.002479  4.038446  -0.003  0.037357  -0.001957  4.062884  -0.003  0.002048  0.041432  -0.002714  4.022304  -0.003
C  C42  1  0.25720608  0.34547878  0.55548943  1  0.125077  0.003612  3.778723  0.002  0.120923  0.000217  4.017871  0.0  0.126285  0.001457  4.040085  0.001  0.115297  0.117004  -0.000417  4.002884  -0.001
C  C43  1  0.24279240  0.44450808  0.65452434  1  0.125032  0.003611  3.778957  0.002  0.120917  0.000216  4.018096  0.0  0.126223  0.001458  4.040354  0.001  0.115201  0.116997  -0.000416  4.003108  -0.001
C  C44  1  0.74280031  0.65452120  0.44450755  1  0.125146  0.00363  3.778898  0.002  0.12096  0.000215  4.018217  0.0  0.126355  0.001455  4.040352  0.001  0.115347  0.117039  -0.000416  4.003225  -0.001
C  C45  1  0.75721525  0.55549192  0.34547838  1  0.125124  0.003615  3.778786  0.002  0.120882  0.000216  4.017988  0.0  0.126237  0.001458  4.040152  0.001  0.115214  0.116963  -0.000416  4.003001  -0.001
C  C46  1  0.25594796  0.52597259  0.37927192  1  -0.091236  -0.001301  3.697483  -0.001  -0.117745  -0.000694  3.95921  -0.001  -0.121199  -0.000552  3.982746  -0.001  -0.082127  -0.115552  -0.000748  3.943749  -0.001
C  C47  1  0.24405971  0.62072507  0.47402692  1  -0.091266  -0.001317  3.697299  -0.001  -0.117744  -0.000693  3.959041  -0.001  -0.121196  -0.000553  3.982575  -0.001  -0.082183  -0.115552  -0.000747  3.943579  -0.001
C  C48  1  0.74406239  0.47402838  0.62072529  1  -0.091156  -0.001322  3.697545  -0.001  -0.117589  -0.000694  3.95931  -0.001  -0.121046  -0.00055  3.982853  -0.001  -0.082156  -0.115398  -0.000747  3.943846  -0.001
C  C49  1  0.75595337  0.37927590  0.52597577  1  -0.091292  -0.001319  3.69756  -0.001  -0.117855  -0.000694  3.959209  -0.001  -0.121307  -0.000553  3.982748  -0.001  -0.08214  -0.115664  -0.000748  3.943746  -0.001
S  S50  1  0.74999588  0.14160175  0.85839899  1  1.56301  0.000996  5.808627  0.001  1.446763  0.00059  6.345417  0.0  1.502025  0.000503  6.308753  0.0  0.558966  1.408624  0.000468  6.369665  0.0
S  S51  1  0.24999448  0.85839840  0.14160275  1  1.562981  0.000977  5.808815  0.001  1.446683  0.000587  6.345665  0.0  1.50194  0.00051  6.309014  0.0  0.558889  1.408552  0.000469  6.369912  0.0
N  N52  1  0.26439220  0.21463891  0.60140257  1  -0.311251  -0.084739  3.316341  -0.111  -0.274466  -0.055485  3.613015  -0.077  -0.304212  -0.044807  3.634754  -0.067  -0.336746  -0.255486  -0.062845  3.599334  -0.083
N  N53  1  0.23560973  0.39859227  0.78536056  1  -0.311039  -0.084729  3.316447  -0.111  -0.274279  -0.055488  3.613105  -0.077  -0.303993  -0.044807  3.634844  -0.067  -0.336729  -0.255299  -0.062847  3.599421  -0.083
N  N54  1  0.73561381  0.78535800  0.39859470  1  -0.31111  -0.08475  3.316418  -0.111  -0.274313  -0.055487  3.613104  -0.077  -0.304066  -0.044807  3.634841  -0.067  -0.336765  -0.255323  -0.062847  3.599415  -0.083
N  N55  1  0.76439335  0.60140467  0.21463821  1  -0.311083  -0.08474  3.316346  -0.111  -0.27427  -0.055491  3.612997  -0.077  -0.304002  -0.044809  3.634734  -0.067  -0.336706  -0.255295  -0.06285  3.599324  -0.083
O  O56  1  0.25949332  0.99836749  0.80099577  1  -0.813027  -0.068053  1.95936  -0.094  -0.785496  -0.045813  2.190922  -0.068  -0.819442  -0.034812  2.158725  -0.056  -0.585936  -0.76165  -0.053584  2.212284  -0.075
O  O57  1  0.24049558  0.19900357  0.00163221  1  -0.813072  -0.068055  1.959422  -0.094  -0.785555  -0.045815  2.19092  -0.068  -0.819503  -0.034814  2.158712  -0.056  -0.585997  -0.761725  -0.053586  2.212323  -0.075
O  O58  1  0.74049456  0.00163165  0.19900449  1  -0.813148  -0.068055  1.959357  -0.094  -0.785618  -0.045812  2.190816  -0.068  -0.819553  -0.034811  2.158616  -0.056  -0.586012  -0.761798  -0.053583  2.212242  -0.075
O  O59  1  0.75949239  0.80099555  0.99836506  1  -0.813141  -0.068055  1.959218  -0.094  -0.785617  -0.045814  2.190891  -0.068  -0.819551  -0.034811  2.1587  -0.056  -0.585979  -0.761766  -0.053584  2.212241  -0.075
O  O60  1  0.62972758  0.15888058  0.75713604  1  -0.734767  0.000619  1.947473  -0.001  -0.697365  0.001404  2.213715  0.0  -0.718329  0.001885  2.193971  0.0  -0.362595  -0.682694  0.001024  2.227241  0.0
O  O61  1  0.87026984  0.24285976  0.84112662  1  -0.734761  0.000615  1.947453  -0.001  -0.697318  0.0014  2.21364  0.0  -0.718302  0.001882  2.193937  0.0  -0.362577  -0.682648  0.001024  2.227166  0.0
O  O62  1  0.37026935  0.84112155  0.24286342  1  -0.734805  0.000638  1.947438  -0.001  -0.697362  0.001408  2.21365  0.0  -0.718331  0.001873  2.193933  0.0  -0.362608  -0.682688  0.001023  2.227173  0.0
O  O63  1  0.12972433  0.75714141  0.15888035  1  -0.734701  0.000613  1.947576  -0.001  -0.697296  0.001401  2.213853  0.0  -0.718241  0.001884  2.194077  0.0  -0.362535  -0.682624  0.001023  2.227377  0.0
O  O64  1  0.88854777  0.99742496  0.84662965  1  -0.756116  -0.001444  1.982347  -0.002  -0.682697  -0.000892  2.209413  -0.001  -0.705097  -0.000388  2.190861  -0.001  -0.364652  -0.667226  -0.001008  2.222157  -0.002
O  O65  1  0.61144024  0.15336743  0.00257761  1  -0.756011  -0.001457  1.982191  -0.002  -0.682675  -0.000897  2.20928  -0.001  -0.705081  -0.000388  2.190734  -0.001  -0.364724  -0.667193  -0.001008  2.222019  -0.002
O  O66  1  0.11144413  0.00257516  0.15336884  1  -0.756026  -0.001463  1.982302  -0.002  -0.682648  -0.000897  2.209392  -0.001  -0.705049  -0.000384  2.190843  -0.001  -0.364677  -0.667172  -0.001008  2.222137  -0.002
O  O67  1  0.38854862  0.84662864  0.99742567  1  -0.75614  -0.001447  1.982329  -0.002  -0.682683  -0.000894  2.209407  -0.001  -0.705082  -0.000387  2.190856  -0.001  -0.364641  -0.667219  -0.001008  2.222156  -0.002
