# generated using pymatgen
data_ZnH13C24(NO)4
_symmetry_space_group_name_H-M   'P 1'
_cell_length_a   9.40212160
_cell_length_b   10.26357867
_cell_length_c   11.10840554
_cell_angle_alpha   88.87202602
_cell_angle_beta   72.27311264
_cell_angle_gamma   85.00461325
_symmetry_Int_Tables_number   1
_chemical_formula_structural   ZnH13C24(NO)4
_chemical_formula_sum   'Zn2 H26 C48 N8 O8'
_cell_volume   1017.15224069
_cell_formula_units_Z   2
loop_
 _symmetry_equiv_pos_site_id
 _symmetry_equiv_pos_as_xyz
  1  'x, y, z'
loop_
 _atom_site_type_symbol
 _atom_site_label
 _atom_site_symmetry_multiplicity
 _atom_site_fract_x
 _atom_site_fract_y
 _atom_site_fract_z
 _atom_site_occupancy
 _atom_site_pbe_bader_spin_density
 _atom_site_pbe_cm5_charge
 _atom_site_pbe_ddec_charge
 _atom_site_pbe_ddec_spin_density
 _atom_site_pbe_ddec_sum_bond_order
 _atom_site_pbe_magmom
Zn  Zn0  1  0.39818585  0.37933354  0.53507905  1  0  0.690601  0.812975  0  2.330266  0
Zn  Zn1  1  0.60181462  0.62066624  0.46492270  1  0  0.690602  0.81298  0  2.330245  0
H  H2  1  0.70538125  0.23562964  0.54377497  1  0  0.118197  0.103062  0  1.036774  0
H  H3  1  0.29461833  0.76436817  0.45622706  1  0  0.118232  0.103097  0  1.036805  0
H  H4  1  0.86855273  0.03754762  0.43320148  1  0  0.108963  0.115188  0  0.992336  0
H  H5  1  0.13144697  0.96244921  0.56680054  1  0  0.108974  0.115178  0  0.992381  0
H  H6  1  0.77720963  0.90271509  0.29083410  1  0  0.112925  0.125065  0  0.998162  0
H  H7  1  0.22279159  0.09728765  0.70916380  1  0  0.112922  0.125048  0  0.998165  0
H  H8  1  0.09427924  0.12699313  0.21290961  1  0  0.112067  0.114532  0  0.98001  0
H  H9  1  0.90572506  0.87301161  0.78708384  1  0  0.11209  0.114577  0  0.979976  0
H  H10  1  0.95518808  0.31984101  0.35213129  1  0  0.106383  0.118315  0  1.046057  0
H  H11  1  0.04481413  0.68016272  0.64786543  1  0  0.106379  0.118301  0  1.046081  0
H  H12  1  0.07539031  0.41427897  0.49922249  1  0  0.120287  0.091789  0  0.999137  0
H  H13  1  0.92460903  0.58572080  0.50077776  1  0  0.120296  0.091794  0  0.99912  0
H  H14  1  0.68834881  0.65206715  0.03577307  1  0  0.096353  0.086894  0  1.067789  0
H  H15  1  0.31164777  0.34792768  0.96422980  1  0  0.096342  0.086832  0  1.067957  0
H  H16  1  0.74402323  0.48653926  0.86656919  1  0  0.103195  0.1061  0  1.008285  0
H  H17  1  0.25597236  0.51345458  0.13343576  1  0  0.103178  0.106075  0  1.008247  0
H  H18  1  0.35767947  0.63949484  0.76440575  1  0  0.098378  0.099777  0  1.041768  0
H  H19  1  0.64232210  0.36050496  0.23559391  1  0  0.098376  0.099772  0  1.04181  0
H  H20  1  0.29433956  0.80424936  0.94083707  1  0  0.100967  0.103766  0  1.006705  0
H  H21  1  0.70566511  0.19575244  0.05915994  1  0  0.100982  0.103798  0  1.006699  0
H  H22  1  0.90317641  0.33082872  0.16032474  1  0  0.107303  0.106751  0  1.008068  0
H  H23  1  0.09681523  0.66916996  0.83967667  1  0  0.107344  0.106781  0  1.0081  0
H  H24  1  0.06332412  0.26464239  0.94228643  1  0  0.107037  0.107389  0  0.993  0
H  H25  1  0.93666403  0.73535723  0.05771318  1  0  0.107026  0.107367  0  0.992977  0
H  H26  1  0.64277789  0.79070670  0.17154745  1  0  0.309749  0.289978  0  0.996461  0
H  H27  1  0.35722454  0.20929507  0.82844924  1  0  0.309783  0.289953  0  0.996477  0
C  C28  1  0.67201762  0.17484907  0.47873535  1  0  0.052978  0.100977  0  3.907301  0
C  C29  1  0.32798038  0.82515263  0.52126523  1  0  0.052933  0.10091  0  3.907376  0
C  C30  1  0.76111729  0.06422589  0.41712730  1  0  -0.085506  -0.131434  0  3.99289  0
C  C31  1  0.23888207  0.93577387  0.58287475  1  0  -0.0855  -0.131383  0  3.993095  0
C  C32  1  0.71133840  0.99040168  0.33752290  1  0  -0.065402  -0.063167  0  3.904079  0
C  C33  1  0.28866605  0.00960207  0.66247413  1  0  -0.065394  -0.063164  0  3.904058  0
C  C34  1  0.57097727  0.02768114  0.31968278  1  0  0.00127  -0.011213  0  4.014899  0
C  C35  1  0.42902442  0.97231767  0.68031687  1  0  0.001287  -0.011153  0  4.014862  0
C  C36  1  0.50621960  0.96525842  0.23836089  1  0  0.098489  0.096141  0  4.025532  0
C  C37  1  0.49378171  0.03474334  0.76163520  1  0  0.098487  0.096187  0  4.02547  0
C  C38  1  0.37089596  0.01139573  0.21633679  1  0  0.090129  0.09576  0  4.072597  0
C  C39  1  0.62910226  0.98860402  0.78366376  1  0  0.090077  0.095606  0  4.072695  0
C  C40  1  0.28223969  0.12140102  0.28663085  1  0  0.007874  0.000208  0  3.980967  0
C  C41  1  0.71776065  0.87859974  0.71336912  1  0  0.007924  0.000312  0  3.980999  0
C  C42  1  0.14075819  0.17195376  0.27918890  1  0  -0.061596  -0.063772  0  3.922076  0
C  C43  1  0.85924315  0.82804800  0.72080989  1  0  -0.06163  -0.063866  0  3.922079  0
C  C44  1  0.06405588  0.27665156  0.35542398  1  0  -0.083017  -0.132377  0  3.974473  0
C  C45  1  0.93594534  0.72335117  0.64457482  1  0  -0.082993  -0.132338  0  3.974526  0
C  C46  1  0.13052685  0.33171361  0.43747846  1  0  0.057554  0.114659  0  3.918898  0
C  C47  1  0.86947561  0.66828816  0.56252093  1  0  0.057513  0.114654  0  3.919036  0
C  C48  1  0.34130700  0.18388787  0.37216276  1  0  0.115543  0.111538  0  3.994148  0
C  C49  1  0.65869545  0.81611390  0.62783573  1  0  0.115532  0.111516  0  3.994302  0
C  C50  1  0.48672589  0.14010562  0.38589652  1  0  0.116723  0.113407  0  3.997216  0
C  C51  1  0.51327568  0.85989418  0.61410314  1  0  0.116687  0.113309  0  3.997337  0
C  C52  1  0.45966547  0.84343920  0.09500522  1  0  0.228915  0.322161  0  3.986304  0
C  C53  1  0.54033722  0.15656061  0.90499505  1  0  0.228859  0.322108  0  3.986226  0
C  C54  1  0.48770973  0.74154055  0.99918756  1  0  0.000888  0.024602  0  3.997852  0
C  C55  1  0.51229149  0.25846219  0.00081034  1  0  0.000938  0.024682  0  3.997849  0
C  C56  1  0.61434025  0.65088700  0.97733558  1  0  -0.090202  -0.116919  0  3.962794  0
C  C57  1  0.38565389  0.34910975  0.02266970  1  0  -0.090245  -0.117015  0  3.962971  0
C  C58  1  0.64707375  0.55766018  0.88197358  1  0  -0.081439  -0.080324  0  3.979018  0
C  C59  1  0.35292697  0.44233764  0.11803085  1  0  -0.081386  -0.08022  0  3.978907  0
C  C60  1  0.55570995  0.55407801  0.80353556  1  0  -0.023882  -0.048384  0  3.980603  0
C  C61  1  0.44429101  0.44591785  0.19646883  1  0  -0.023852  -0.048388  0  3.980457  0
C  C62  1  0.42819023  0.64323065  0.82575184  1  0  -0.092323  -0.107403  0  3.991236  0
C  C63  1  0.57181268  0.35676721  0.17424750  1  0  -0.0923  -0.10733  0  3.991266  0
C  C64  1  0.39315265  0.73488843  0.92328830  1  0  -0.086107  -0.108945  0  3.959801  0
C  C65  1  0.60684902  0.26511039  0.07670956  1  0  -0.086153  -0.109067  0  3.959948  0
C  C66  1  0.59529352  0.45476166  0.69905449  1  0  0.209379  0.577638  0  4.170783  0
C  C67  1  0.40470828  0.54523618  0.30094515  1  0  0.209397  0.577622  0  4.170704  0
C  C68  1  0.94692310  0.40420318  0.08971569  1  0  -0.077157  -0.087546  0  3.964361  0
C  C69  1  0.05306728  0.59579647  0.91028333  1  0  -0.077161  -0.087505  0  3.964367  0
C  C70  1  0.03517351  0.36762036  0.96839914  1  0  -0.079013  -0.091168  0  3.970962  0
C  C71  1  0.96481676  0.63238027  0.03159900  1  0  -0.079054  -0.091255  0  3.97087  0
C  C72  1  0.08923618  0.46311721  0.87790008  1  0  -0.010943  -0.026018  0  3.968599  0
C  C73  1  0.91075867  0.53688249  0.12209866  1  0  -0.010922  -0.02596  0  3.968444  0
C  C74  1  0.19209521  0.42388341  0.75040860  1  0  0.202406  0.560193  0  4.204141  0
C  C75  1  0.80789966  0.57611630  0.24959193  1  0  0.202403  0.560209  0  4.204178  0
N  N76  1  0.53885042  0.21043393  0.46299305  1  0  -0.320782  -0.262634  0  3.561018  0
N  N77  1  0.46114882  0.78956682  0.53700811  1  0  -0.320781  -0.262603  0  3.560855  0
N  N78  1  0.26515739  0.28721481  0.44423396  1  0  -0.323192  -0.272289  0  3.58246  0
N  N79  1  0.73484332  0.71278302  0.55576866  1  0  -0.323178  -0.272302  0  3.582607  0
N  N80  1  0.55971303  0.85879051  0.16109237  1  0  -0.376865  -0.29903  0  3.58349  0
N  N81  1  0.44028842  0.14121027  0.83890641  1  0  -0.37685  -0.298974  0  3.583378  0
N  N82  1  0.34442888  0.93568657  0.12618539  1  0  -0.340728  -0.400886  0  3.15211  0
N  N83  1  0.65557379  0.06431325  0.87381308  1  0  -0.340719  -0.400827  0  3.152054  0
O  O84  1  0.67963852  0.35558211  0.70129938  1  0  -0.302403  -0.497545  0  2.112924  0
O  O85  1  0.32036641  0.64441773  0.29870030  1  0  -0.302386  -0.497494  0  2.112952  0
O  O86  1  0.53448115  0.48162120  0.60740009  1  0  -0.349269  -0.599687  0  2.492333  0
O  O87  1  0.46551834  0.51837759  0.39260285  1  0  -0.349304  -0.599731  0  2.492316  0
O  O88  1  0.26879507  0.31267275  0.73802791  1  0  -0.3167  -0.572469  0  2.257604  0
O  O89  1  0.73120418  0.68732799  0.26197505  1  0  -0.316754  -0.572564  0  2.257631  0
O  O90  1  0.20662131  0.50195527  0.65780983  1  0  -0.308029  -0.525604  0  2.21153  0
O  O91  1  0.79337792  0.49804548  0.34219133  1  0  -0.307995  -0.52558  0  2.2116  0
