# generated using pymatgen
data_CoH17C30(NO2)3
_symmetry_space_group_name_H-M   'P 1'
_cell_length_a   10.03523270
_cell_length_b   12.45920561
_cell_length_c   29.39013461
_cell_angle_alpha   89.99853070
_cell_angle_beta   89.99881912
_cell_angle_gamma   109.97559286
_symmetry_Int_Tables_number   1
_chemical_formula_structural   CoH17C30(NO2)3
_chemical_formula_sum   'Co4 H68 C120 N12 O24'
_cell_volume   3453.60355493
_cell_formula_units_Z   4
loop_
 _symmetry_equiv_pos_site_id
 _symmetry_equiv_pos_as_xyz
  1  'x, y, z'
loop_
 _atom_site_type_symbol
 _atom_site_label
 _atom_site_symmetry_multiplicity
 _atom_site_fract_x
 _atom_site_fract_y
 _atom_site_fract_z
 _atom_site_occupancy
 _atom_site_pbe_bader_charge
 _atom_site_pbe_bader_spin_density
 _atom_site_pbe_cm5_charge
 _atom_site_pbe_ddec_charge
 _atom_site_pbe_ddec_spin_density
 _atom_site_pbe_ddec_sum_bond_order
 _atom_site_pbe_magmom
Co  Co0  1  0.04355967  0.36151115  0.05956781  1  1.211751  2.548056  0.685023  0.789882  2.785675  2.56195  2.497
Co  Co1  1  0.45644627  0.63849691  0.55957165  1  1.211539  2.548057  0.685083  0.789894  2.785673  2.562003  2.497
Co  Co2  1  0.95644108  0.63849189  0.94043571  1  1.211515  2.548082  0.684934  0.789764  2.7857  2.561984  2.497
Co  Co3  1  0.54356557  0.36150644  0.44043120  1  1.211395  2.548109  0.685057  0.789999  2.785727  2.561597  2.497
H  H4  1  0.40406901  0.85591149  0.80807749  1  0.631566  -6e-06  0.353279  0.391517  -1.5e-05  0.833128  0.0
H  H5  1  0.09590999  0.14407118  0.30807059  1  0.631791  -6e-06  0.353334  0.391649  -1.5e-05  0.832977  0.0
H  H6  1  0.59590789  0.14408918  0.19191821  1  0.63136  -6e-06  0.353243  0.391516  -1.5e-05  0.833097  0.0
H  H7  1  0.90407397  0.85596852  0.69191218  1  0.63179  -6e-06  0.353335  0.391664  -1.5e-05  0.83302  0.0
H  H8  1  0.71925137  0.27436108  0.95533000  1  0.067619  0.000513  0.102515  0.104832  0.000143  1.029618  0.0
H  H9  1  0.78076105  0.72562352  0.45533160  1  0.068206  0.000513  0.10262  0.104949  0.000143  1.029593  0.0
H  H10  1  0.28075076  0.72563777  0.04466706  1  0.067683  0.000513  0.102504  0.104795  0.000143  1.0297  0.0
H  H11  1  0.21925179  0.27437985  0.54466615  1  0.067912  0.000512  0.102568  0.104863  0.000143  1.029701  0.0
H  H12  1  0.30151949  0.30290172  0.94820688  1  0.082241  0.00067  0.102749  0.103213  0.000321  1.0314  0.0
H  H13  1  0.19849466  0.69708311  0.44821109  1  0.082213  0.00067  0.102729  0.103203  0.000321  1.031499  0.0
H  H14  1  0.69847361  0.69709181  0.05179120  1  0.082331  0.00067  0.102782  0.103222  0.000322  1.03146  0.0
H  H15  1  0.80152051  0.30292371  0.55179243  1  0.082312  0.00067  0.102767  0.103266  0.000321  1.031443  0.0
H  H16  1  0.54038164  0.38027620  0.07208471  1  0.144874  0.000286  0.10578  0.115565  0.00014  1.006218  0.0
H  H17  1  0.95962169  0.61973538  0.57209180  1  0.144846  0.000286  0.105865  0.11571  0.00014  1.006039  0.0
H  H18  1  0.45961050  0.61971224  0.92791405  1  0.145083  0.000286  0.105792  0.115546  0.00014  1.006189  0.0
H  H19  1  0.04038201  0.38027533  0.42791241  1  0.145005  0.000286  0.105824  0.11562  0.00014  1.006163  0.0
H  H20  1  0.34085990  0.32276519  0.87868976  1  0.072102  1.8e-05  0.105065  0.106853  -5e-06  1.008157  0.0
H  H21  1  0.15915715  0.67721615  0.37868530  1  0.071877  1.8e-05  0.105116  0.106856  -5e-06  1.008052  0.0
H  H22  1  0.65912579  0.67722982  0.12131241  1  0.072183  1.8e-05  0.105048  0.106887  -5e-06  1.008169  0.0
H  H23  1  0.84085337  0.32278379  0.62131278  1  0.071791  1.8e-05  0.105098  0.106889  -5e-06  1.007917  0.0
H  H24  1  0.32139139  0.26178729  0.79906992  1  0.053863  -9e-06  0.098712  0.098432  -1.2e-05  1.012252  0.0
H  H25  1  0.17861494  0.73820280  0.29906259  1  0.053542  -9e-06  0.09876  0.098492  -1.2e-05  1.012075  0.0
H  H26  1  0.67860931  0.73822080  0.20093021  1  0.053821  -9e-06  0.098672  0.098349  -1.2e-05  1.012181  0.0
H  H27  1  0.82139481  0.26180808  0.70093481  1  0.053542  -9e-06  0.098754  0.098523  -1.2e-05  1.012126  0.0
H  H28  1  0.63827520  0.10471481  0.82170614  1  0.038281  -1.1e-05  0.100849  0.104128  -9e-06  1.012573  0.0
H  H29  1  0.86172765  0.89527036  0.32170558  1  0.038802  -1.1e-05  0.100909  0.10426  -9e-06  1.012584  0.0
H  H30  1  0.36171113  0.89528444  0.17829535  1  0.038637  -1.1e-05  0.100803  0.104065  -9e-06  1.012658  0.0
H  H31  1  0.13827879  0.10473452  0.67829420  1  0.038746  -1.1e-05  0.100883  0.104192  -9e-06  1.012654  0.0
H  H32  1  0.64790315  0.15638179  0.90213076  1  0.06839  -4e-06  0.106707  0.111714  -1.3e-05  0.996478  0.0
H  H33  1  0.85210865  0.84359535  0.40213051  1  0.068413  -4e-06  0.10678  0.111702  -1.3e-05  0.996416  0.0
H  H34  1  0.35208055  0.84361063  0.09787039  1  0.068677  -4e-06  0.106747  0.111813  -1.3e-05  0.996413  0.0
H  H35  1  0.14789716  0.15640530  0.59786961  1  0.068432  -4e-06  0.106773  0.111733  -1.4e-05  0.996462  0.0
H  H36  1  0.46107057  0.32111235  0.73927520  1  0.087866  3.2e-05  0.107317  0.116529  2e-06  1.018114  0.0
H  H37  1  0.03893402  0.67887669  0.23927296  1  0.08773  3.2e-05  0.107296  0.116501  2e-06  1.018072  0.0
H  H38  1  0.53892204  0.67889805  0.26072288  1  0.087993  3.2e-05  0.107323  0.116522  2e-06  1.018257  0.0
H  H39  1  0.96107253  0.32111553  0.76072886  1  0.08766  3.2e-05  0.107333  0.116552  2e-06  1.018072  0.0
H  H40  1  0.70266571  0.02958000  0.62720126  1  0.126708  0.000819  0.110981  0.121534  0.000348  1.005099  0.0
H  H41  1  0.79736220  0.97040834  0.12719421  1  0.127485  0.000819  0.111048  0.121634  0.000348  1.005115  0.0
H  H42  1  0.29735853  0.97042708  0.37279615  1  0.127424  0.000818  0.111033  0.121615  0.000348  1.005138  0.0
H  H43  1  0.20263847  0.02956599  0.87279230  1  0.12663  0.000818  0.111043  0.121619  0.000348  1.005155  0.0
H  H44  1  0.67410059  0.85584189  0.57996288  1  0.124446  0.002206  0.124848  0.09821  0.000748  0.988482  0.001
H  H45  1  0.82591121  0.14415409  0.07995803  1  0.124451  0.002206  0.124877  0.098301  0.000748  0.988532  0.001
H  H46  1  0.32590925  0.14415887  0.42003452  1  0.124643  0.002206  0.124874  0.09826  0.000748  0.988544  0.001
H  H47  1  0.17409237  0.85583299  0.92003495  1  0.124613  0.002206  0.124886  0.098274  0.000748  0.988547  0.001
H  H48  1  0.27748349  0.68577968  0.63445295  1  0.134273  0.00191  0.121789  0.101077  0.000647  1.024548  0.002
H  H49  1  0.22251231  0.31423207  0.13445105  1  0.134151  0.001911  0.121792  0.101149  0.000647  1.024568  0.002
H  H50  1  0.72251721  0.31422841  0.36554275  1  0.134303  0.001911  0.12177  0.101086  0.000647  1.024646  0.002
H  H51  1  0.77747505  0.68576468  0.86555690  1  0.134605  0.00191  0.121812  0.101068  0.000647  1.024791  0.002
H  H52  1  0.29609202  0.84654785  0.68784303  1  0.10492  0.000748  0.111518  0.127631  0.000329  0.994174  0.0
H  H53  1  0.20390587  0.15345704  0.18784442  1  0.104473  0.000748  0.111435  0.127493  0.000329  0.994031  0.0
H  H54  1  0.70391773  0.15346303  0.31215301  1  0.104522  0.000748  0.111486  0.127611  0.000329  0.994073  0.0
H  H55  1  0.79607856  0.84652949  0.81216183  1  0.104542  0.000748  0.111471  0.12753  0.000329  0.994258  0.0
H  H56  1  0.57622685  0.28112252  0.59072822  1  0.11017  0.000965  0.113424  0.122032  0.000374  1.007623  0.001
H  H57  1  0.92375225  0.71888346  0.09072985  1  0.110116  0.000966  0.113424  0.122113  0.000374  1.00742  0.001
H  H58  1  0.42377622  0.71888395  0.40927293  1  0.110103  0.000965  0.113421  0.121994  0.000374  1.007581  0.001
H  H59  1  0.07623943  0.28111931  0.90927163  1  0.110143  0.000965  0.113425  0.122178  0.000374  1.007609  0.001
H  H60  1  0.55848467  0.44097040  0.54335843  1  0.148802  0.002297  0.124558  0.10174  0.000881  1.009929  0.002
H  H61  1  0.94149788  0.55903704  0.04336104  1  0.148851  0.002296  0.124523  0.1016  0.00088  1.010132  0.002
H  H62  1  0.44151770  0.55903943  0.45664441  1  0.148711  0.002297  0.124506  0.101625  0.00088  1.010019  0.002
H  H63  1  0.05851972  0.44096057  0.95664079  1  0.148873  0.002297  0.124568  0.101681  0.000881  1.010013  0.002
H  H64  1  0.30462120  0.52228476  0.63920094  1  0.098488  0.002415  0.121601  0.091637  0.000846  1.011074  0.002
H  H65  1  0.19538131  0.47771666  0.13919503  1  0.098523  0.002415  0.121574  0.091494  0.000846  1.011134  0.002
H  H66  1  0.69536951  0.47771293  0.36080361  1  0.098714  0.002414  0.121593  0.091591  0.000845  1.011092  0.002
H  H67  1  0.80462297  0.52226705  0.86080986  1  0.09874  0.002413  0.121635  0.09154  0.000845  1.01124  0.002
H  H68  1  0.32323107  0.37329623  0.69238621  1  0.087985  0.000851  0.107029  0.113048  0.000355  1.001531  0.0
H  H69  1  0.17676542  0.62670319  0.19237674  1  0.087874  0.00085  0.107048  0.113068  0.000355  1.001631  0.0
H  H70  1  0.67676604  0.62669994  0.30761800  1  0.08774  0.000851  0.107027  0.113001  0.000355  1.001605  0.0
H  H71  1  0.82322735  0.37328949  0.80762543  1  0.088118  0.000851  0.107048  0.113009  0.000355  1.001591  0.0
C  C72  1  0.76730244  0.32902076  0.04381379  1  1.496885  0.00239  0.192899  0.548023  0.002309  4.242403  0.0
C  C73  1  0.73270512  0.67096625  0.54381755  1  1.49618  0.002388  0.192814  0.54759  0.00231  4.242647  0.0
C  C74  1  0.23270166  0.67098322  0.95618225  1  1.496197  0.00239  0.192848  0.547804  0.002311  4.242563  0.0
C  C75  1  0.26730461  0.32904717  0.45617815  1  1.496575  0.002387  0.192846  0.547711  0.002311  4.242678  0.0
C  C76  1  0.64063249  0.32506446  0.01618664  1  -0.069945  0.004063  -0.018532  -0.023702  0.002014  3.989989  0.003
C  C77  1  0.85937884  0.67494350  0.51619079  1  -0.070179  0.004062  -0.018403  -0.023344  0.002014  3.990115  0.003
C  C78  1  0.35936587  0.67494273  0.98381144  1  -0.069934  0.004062  -0.018464  -0.023578  0.002014  3.990199  0.003
C  C79  1  0.14062155  0.32506121  0.48380798  1  -0.070109  0.004062  -0.018394  -0.023241  0.002013  3.989915  0.003
C  C80  1  0.62993134  0.29201944  0.97050744  1  -0.017901  0.00077  -0.075203  -0.120675  0.000292  3.900652  0.0
C  C81  1  0.87007823  0.70797312  0.47051197  1  -0.018129  0.00077  -0.075401  -0.12094  0.000292  3.900943  0.0
C  C82  1  0.37007105  0.70798786  0.02948929  1  -0.017895  0.000769  -0.07526  -0.120713  0.000291  3.900891  0.0
C  C83  1  0.12992697  0.29202075  0.52948645  1  -0.017979  0.00077  -0.075338  -0.120873  0.000292  3.900929  0.0
C  C84  1  0.50832962  0.28263996  0.94492656  1  -0.084408  0.000299  -0.009328  0.058408  7e-05  4.009353  0.0
C  C85  1  0.99168068  0.71735304  0.44492806  1  -0.084742  0.000298  -0.009243  0.058537  7e-05  4.008715  0.0
C  C86  1  0.49166681  0.71735705  0.05507424  1  -0.084488  0.000299  -0.009382  0.058307  7e-05  4.009384  0.0
C  C87  1  0.00832886  0.28264433  0.55507241  1  -0.084735  0.000299  -0.009356  0.058358  7e-05  4.009133  0.0
C  C88  1  0.39938913  0.31092004  0.96613766  1  -0.013839  0.001164  -0.07425  -0.121752  0.000631  3.905604  0.001
C  C89  1  0.10061762  0.68906395  0.46613860  1  -0.013426  0.001164  -0.074282  -0.121851  0.000631  3.905553  0.001
C  C90  1  0.60060726  0.68908202  0.03386178  1  -0.013939  0.001164  -0.074176  -0.121641  0.000631  3.905644  0.001
C  C91  1  0.89939956  0.31094292  0.53386527  1  -0.013872  0.001165  -0.074205  -0.121739  0.000631  3.905691  0.001
C  C92  1  0.41167902  0.34795254  0.01134355  1  0.012656  0.00292  -0.018735  -0.027332  0.001547  4.002512  0.002
C  C93  1  0.08833277  0.65206048  0.51135130  1  0.012124  0.00292  -0.01874  -0.027452  0.001548  4.002839  0.002
C  C94  1  0.58831408  0.65204099  0.98865623  1  0.013073  0.002918  -0.018698  -0.027344  0.001546  4.002455  0.002
C  C95  1  0.91167799  0.34795043  0.48865529  1  0.012835  0.00292  -0.018789  -0.027527  0.001547  4.002469  0.002
C  C96  1  0.53191106  0.35396283  0.03657127  1  0.017258  0.001762  -0.071799  -0.096023  0.000929  3.916325  0.001
C  C97  1  0.96808897  0.64603975  0.53657664  1  0.016937  0.001762  -0.071916  -0.096239  0.000929  3.91628  0.001
C  C98  1  0.46808434  0.64603667  0.96342681  1  0.016808  0.001761  -0.071869  -0.096068  0.000928  3.916237  0.001
C  C99  1  0.03190612  0.35395637  0.46342382  1  0.016822  0.001762  -0.071918  -0.096228  0.000929  3.916483  0.001
C  C100  1  0.29401187  0.37475772  0.03397592  1  1.5494  -0.000262  0.199181  0.556213  -0.000878  4.209787  -0.002
C  C101  1  0.20598750  0.62523958  0.53398311  1  1.550687  -0.000262  0.199197  0.556264  -0.000879  4.209934  -0.002
C  C102  1  0.70599648  0.62525988  0.96602488  1  1.549181  -0.000265  0.199357  0.556389  -0.00088  4.209684  -0.002
C  C103  1  0.79398783  0.37474922  0.46602450  1  1.54975  -0.000268  0.199483  0.55663  -0.000884  4.209109  -0.002
C  C104  1  0.49602734  0.24468758  0.89703047  1  -0.018515  -2e-06  0.000338  0.081031  -3.6e-05  3.984486  0.0
C  C105  1  0.00397587  0.75529438  0.39703002  1  -0.018536  -2e-06  0.000146  0.080926  -3.6e-05  3.984048  0.0
C  C106  1  0.50396668  0.75531610  0.10296965  1  -0.0186  -2e-06  0.000339  0.081057  -3.7e-05  3.984368  0.0
C  C107  1  0.99602365  0.24469511  0.60297078  1  -0.018408  -2e-06  0.000317  0.081062  -3.6e-05  3.984412  0.0
C  C108  1  0.40420661  0.27266416  0.86677458  1  -0.049801  5.3e-05  -0.086888  -0.122708  2.3e-05  3.976016  0.0
C  C109  1  0.09579615  0.72731184  0.36677173  1  -0.049913  5.3e-05  -0.086841  -0.122636  2.3e-05  3.975378  0.0
C  C110  1  0.59579177  0.72734049  0.13322418  1  -0.049682  5.3e-05  -0.08687  -0.12279  2.3e-05  3.976021  0.0
C  C111  1  0.90421238  0.27268551  0.63322737  1  -0.049701  5.3e-05  -0.086896  -0.122665  2.3e-05  3.975635  0.0
C  C112  1  0.39531745  0.24016757  0.82140277  1  -0.060392  3e-06  -0.091598  -0.124116  -1e-05  3.996063  0.0
C  C113  1  0.10468586  0.75981301  0.32139813  1  -0.06069  3e-06  -0.091604  -0.12413  -1e-05  3.995812  0.0
C  C114  1  0.60468262  0.75983629  0.17859565  1  -0.059773  3e-06  -0.091587  -0.123933  -1e-05  3.995921  0.0
C  C115  1  0.89531861  0.24018675  0.67859996  1  -0.060089  3e-06  -0.091619  -0.124299  -1e-05  3.996047  0.0
C  C116  1  0.47934390  0.17953656  0.80395375  1  0.014919  -8e-06  -0.016878  0.047256  -3e-06  4.018106  0.0
C  C117  1  0.02065506  0.82043774  0.30394871  1  0.015971  -8e-06  -0.017013  0.047234  -3e-06  4.01777  0.0
C  C118  1  0.52066684  0.82047689  0.19604434  1  0.015001  -7e-06  -0.01684  0.047169  -3e-06  4.017935  0.0
C  C119  1  0.97933471  0.17955232  0.69604734  1  0.015316  -7e-06  -0.016977  0.047286  -3e-06  4.01787  0.0
C  C120  1  0.56939273  0.14969208  0.83414807  1  -0.031697  -2.5e-05  -0.091903  -0.125379  -3.1e-05  4.003223  0.0
C  C121  1  0.93061336  0.85028794  0.33414615  1  -0.018321  -2.5e-05  -0.091956  -0.125632  -3.1e-05  4.003284  0.0
C  C122  1  0.43059894  0.85031070  0.16585172  1  -0.032712  -2.5e-05  -0.091887  -0.12528  -3.1e-05  4.003146  0.0
C  C123  1  0.06939179  0.14971099  0.66585262  1  -0.017647  -2.5e-05  -0.091881  -0.125465  -3.1e-05  4.003339  0.0
C  C124  1  0.57659588  0.18090652  0.87973868  1  -0.020903  2.6e-05  -0.087179  -0.126366  -1.7e-05  3.975897  0.0
C  C125  1  0.92340864  0.81906887  0.37973784  1  -0.034731  2.6e-05  -0.087143  -0.126221  -1.7e-05  3.97612  0.0
C  C126  1  0.42339514  0.81909455  0.12026043  1  -0.02126  2.6e-05  -0.087211  -0.126499  -1.7e-05  3.975775  0.0
C  C127  1  0.07659956  0.18092762  0.62026229  1  -0.035089  2.6e-05  -0.087252  -0.126376  -1.7e-05  3.976275  0.0
C  C128  1  0.47857383  0.15764172  0.75468394  1  -0.019703  -6.4e-05  0.016464  0.107246  -0.000174  3.975697  0.0
C  C129  1  0.02143704  0.84234792  0.25467967  1  -0.019644  -6.5e-05  0.016417  0.107123  -0.000174  3.975713  0.0
C  C130  1  0.52143128  0.84236228  0.24531653  1  -0.019976  -6.5e-05  0.016453  0.107211  -0.000174  3.975554  0.0
C  C131  1  0.97857819  0.15765130  0.74531842  1  -0.019887  -6.5e-05  0.016368  0.107194  -0.000174  3.975326  0.0
C  C132  1  0.46839144  0.24262865  0.72507731  1  -0.047013  -0.001764  -0.086627  -0.229475  -0.001894  3.937372  -0.001
C  C133  1  0.03160476  0.75735964  0.22507425  1  -0.046891  -0.001764  -0.086557  -0.229355  -0.001894  3.937424  -0.001
C  C134  1  0.53160525  0.75737680  0.27492214  1  -0.046815  -0.001763  -0.086596  -0.229412  -0.001893  3.937545  -0.001
C  C135  1  0.96839143  0.24262638  0.77492860  1  -0.046822  -0.001762  -0.08656  -0.229521  -0.001891  3.937373  -0.001
C  C136  1  0.47504612  0.23042328  0.67799216  1  0.506676  -0.000825  0.119795  0.210282  -0.000946  4.048228  0.0
C  C137  1  0.02494237  0.76957118  0.17799072  1  0.5067  -0.000825  0.11977  0.210177  -0.000946  4.048478  0.0
C  C138  1  0.52495829  0.76958407  0.32200864  1  0.50677  -0.000825  0.119835  0.210299  -0.000947  4.048161  0.0
C  C139  1  0.97504407  0.23041541  0.82201349  1  0.507083  -0.000824  0.119879  0.210464  -0.000946  4.048173  0.0
C  C140  1  0.50158715  0.05490629  0.68674870  1  0.561896  0.000385  0.134713  0.198617  1.5e-05  3.981641  0.001
C  C141  1  0.99842468  0.94508599  0.18674319  1  0.562272  0.000384  0.13477  0.198726  1.5e-05  3.981926  0.001
C  C142  1  0.49843069  0.94510229  0.31325142  1  0.561831  0.000385  0.13472  0.198693  1.5e-05  3.981888  0.001
C  C143  1  0.00157118  0.05489918  0.81325660  1  0.561875  0.000384  0.134767  0.198762  1.5e-05  3.981694  0.001
C  C144  1  0.49288313  0.05900586  0.73465084  1  0.007501  -0.002892  -0.0041  -0.154216  -0.003099  3.860206  -0.002
C  C145  1  0.00713970  0.94098577  0.23464388  1  0.007797  -0.002892  -0.00397  -0.15406  -0.003099  3.860077  -0.002
C  C146  1  0.50712568  0.94099740  0.26535303  1  0.007734  -0.002891  -0.004011  -0.154045  -0.003098  3.860316  -0.002
C  C147  1  0.99288029  0.05900768  0.76535353  1  0.007868  -0.002889  -0.004107  -0.154321  -0.003097  3.859995  -0.002
C  C148  1  0.50241275  0.96118654  0.76250241  1  1.536868  -0.000237  0.231089  0.580565  -0.000278  4.160544  0.0
C  C149  1  0.99760777  0.03880146  0.26249611  1  1.537064  -0.000238  0.230947  0.580246  -0.000278  4.160208  0.0
C  C150  1  0.49758765  0.03881817  0.23750555  1  1.536677  -0.000238  0.231143  0.580374  -0.000278  4.160265  0.0
C  C151  1  0.00239176  0.96118803  0.73750163  1  1.536336  -0.000238  0.231007  0.580416  -0.000278  4.160319  0.0
C  C152  1  0.50164307  0.95122701  0.66172885  1  -0.00538  -0.005442  0.017444  0.093858  -0.005947  3.973259  -0.004
C  C153  1  0.99837174  0.04877163  0.16172516  1  -0.005161  -0.005439  0.017482  0.093816  -0.005943  3.973411  -0.004
C  C154  1  0.49837175  0.04878149  0.33827127  1  -0.005127  -0.005434  0.017503  0.093882  -0.005938  3.973307  -0.004
C  C155  1  0.00162046  0.95120921  0.83827496  1  -0.004998  -0.005443  0.017619  0.094049  -0.005948  3.97348  -0.004
C  C156  1  0.60847357  0.95374335  0.63074628  1  -0.060335  0.004436  -0.07202  -0.143613  0.002089  3.913329  0.004
C  C157  1  0.89154349  0.04625621  0.13074204  1  -0.061235  0.004435  -0.072148  -0.143727  0.002089  3.913713  0.004
C  C158  1  0.39153686  0.04626671  0.36925112  1  -0.060924  0.004434  -0.072189  -0.143782  0.002088  3.913608  0.004
C  C159  1  0.10846283  0.95372503  0.86924788  1  -0.060114  0.004435  -0.072134  -0.143651  0.002089  3.91377  0.004
C  C160  1  0.59251852  0.85827259  0.60398109  1  0.489534  -0.001553  0.05443  0.102617  -0.001876  3.919227  0.0
C  C161  1  0.90748597  0.14172375  0.10397703  1  0.48947  -0.00155  0.054376  0.102527  -0.001873  3.919531  0.0
C  C162  1  0.40749227  0.14173580  0.39601700  1  0.489508  -0.001549  0.054417  0.102538  -0.001871  3.919456  0.0
C  C163  1  0.09251259  0.85826065  0.89601799  1  0.489406  -0.001557  0.054367  0.102459  -0.001879  3.919674  0.0
C  C164  1  0.37267536  0.76119522  0.63569138  1  0.452142  -0.001715  0.046717  0.09224  -0.00254  3.939685  -0.001
C  C165  1  0.12731691  0.23882308  0.13569135  1  0.451665  -0.001716  0.046877  0.092282  -0.002541  3.939969  -0.001
C  C166  1  0.62733102  0.23881725  0.36430535  1  0.452324  -0.001711  0.046777  0.092186  -0.002537  3.940478  -0.001
C  C167  1  0.87266740  0.76117611  0.86431115  1  0.451012  -0.001715  0.04683  0.092291  -0.002541  3.940185  -0.001
C  C168  1  0.38314200  0.85153844  0.66474650  1  -0.015057  0.004291  -0.080933  -0.166698  0.001972  3.933049  0.004
C  C169  1  0.11685739  0.14846671  0.16474382  1  -0.014108  0.004292  -0.080941  -0.16663  0.001972  3.932883  0.004
C  C170  1  0.61686534  0.14847913  0.33525124  1  -0.015033  0.004289  -0.080927  -0.166783  0.001971  3.933322  0.004
C  C171  1  0.88312809  0.85151479  0.83525562  1  -0.014804  0.004291  -0.081084  -0.166807  0.001972  3.933389  0.004
C  C172  1  0.45905127  0.31829910  0.64697350  1  -0.017361  -0.004727  0.009224  0.073899  -0.005191  3.981758  -0.003
C  C173  1  0.04095253  0.68170172  0.14697360  1  -0.017506  -0.004725  0.009216  0.073833  -0.00519  3.981698  -0.003
C  C174  1  0.54095517  0.68170578  0.35302866  1  -0.017423  -0.004727  0.009183  0.073883  -0.005192  3.981665  -0.003
C  C175  1  0.95904733  0.31828863  0.85303265  1  -0.017636  -0.004716  0.009128  0.073754  -0.00518  3.981556  -0.003
C  C176  1  0.51933405  0.33536797  0.60341469  1  0.005938  0.003455  -0.071427  -0.146272  0.001456  3.896693  0.003
C  C177  1  0.98065098  0.66462954  0.10341549  1  0.006838  0.003451  -0.07144  -0.146403  0.001455  3.896253  0.003
C  C178  1  0.48066503  0.66463333  0.39658577  1  0.00604  0.003455  -0.071439  -0.146277  0.001455  3.896635  0.003
C  C179  1  0.01934488  0.33535562  0.89658463  1  0.006727  0.00345  -0.071528  -0.146584  0.001454  3.896852  0.003
C  C180  1  0.50798434  0.42363493  0.57660627  1  0.488449  -0.000602  0.060535  0.12172  -0.00119  3.896279  0.0
C  C181  1  0.99198874  0.57636613  0.07660593  1  0.487034  -0.000598  0.060743  0.122149  -0.001189  3.896184  0.0
C  C182  1  0.49201066  0.57637132  0.42339590  1  0.488442  -0.000604  0.060755  0.12207  -0.001193  3.896314  0.0
C  C183  1  0.00801583  0.42362350  0.92339318  1  0.487536  -0.000596  0.060969  0.122361  -0.001188  3.896279  0.0
C  C184  1  0.36887445  0.47022895  0.63084649  1  0.466664  -0.000562  0.049106  0.096628  -0.001446  3.955505  0.0
C  C185  1  0.13111672  0.52977536  0.13084047  1  0.466673  -0.000562  0.049296  0.096912  -0.001446  3.955193  0.0
C  C186  1  0.63111957  0.52977473  0.36915772  1  0.466417  -0.000564  0.049222  0.096852  -0.001448  3.95555  0.0
C  C187  1  0.86888304  0.47022511  0.86916101  1  0.466355  -0.000556  0.049245  0.097021  -0.001441  3.955468  0.0
C  C188  1  0.37989959  0.38678384  0.66011183  1  -0.02997  0.002588  -0.084757  -0.171194  0.001051  3.974098  0.003
C  C189  1  0.12009020  0.61321635  0.16010973  1  -0.029669  0.002587  -0.084851  -0.171221  0.00105  3.974105  0.003
C  C190  1  0.62009046  0.61321214  0.33988863  1  -0.0295  0.002587  -0.084801  -0.171182  0.00105  3.97415  0.003
C  C191  1  0.87990520  0.38678315  0.83989788  1  -0.029739  0.002583  -0.084797  -0.171136  0.001049  3.974018  0.003
N  N192  1  0.49569247  0.13883497  0.65917710  1  -1.16609  -0.00206  -0.30772  -0.335347  -0.002159  3.269359  -0.002
N  N193  1  0.00429447  0.86115508  0.15917479  1  -1.1668  -0.002059  -0.307727  -0.335276  -0.002158  3.269732  -0.002
N  N194  1  0.50431700  0.86117000  0.34082098  1  -1.166311  -0.002059  -0.307734  -0.335343  -0.002158  3.269468  -0.002
N  N195  1  0.99567656  0.13882515  0.84082397  1  -1.166528  -0.002057  -0.307846  -0.335472  -0.002156  3.269681  -0.002
N  N196  1  0.47504285  0.76371626  0.60541960  1  -1.226371  0.065134  -0.332131  -0.246022  0.034469  3.617273  0.046
N  N197  1  0.02495883  0.23628285  0.10541764  1  -1.226291  0.06515  -0.332098  -0.245965  0.034472  3.617662  0.046
N  N198  1  0.52496833  0.23628539  0.39457474  1  -1.226542  0.065125  -0.332074  -0.245791  0.034466  3.617385  0.046
N  N199  1  0.97503699  0.76370738  0.89458078  1  -1.226091  0.065145  -0.332052  -0.245863  0.03447  3.61751  0.046
N  N200  1  0.43570632  0.49157570  0.59029612  1  -1.235127  0.06841  -0.337174  -0.244004  0.036158  3.648425  0.047
N  N201  1  0.06427962  0.50842673  0.09029186  1  -1.23479  0.068397  -0.337412  -0.244407  0.036154  3.648562  0.047
N  N202  1  0.56429204  0.50843148  0.40970911  1  -1.235123  0.068401  -0.337347  -0.24444  0.036158  3.648849  0.047
N  N203  1  0.93572032  0.49155349  0.90970861  1  -1.235168  0.068392  -0.33748  -0.244667  0.036153  3.648589  0.047
O  O204  1  0.87737559  0.32708572  0.02057703  1  -1.138963  0.108661  -0.334607  -0.552607  0.056012  2.327275  0.084
O  O205  1  0.62263438  0.67291424  0.52058396  1  -1.139687  0.108671  -0.334649  -0.552543  0.056019  2.327233  0.084
O  O206  1  0.12262079  0.67291635  0.97941663  1  -1.139169  0.108668  -0.334685  -0.552536  0.056018  2.327222  0.084
O  O207  1  0.37736869  0.32709223  0.47941515  1  -1.140005  0.10866  -0.334606  -0.55254  0.056014  2.327327  0.084
O  O208  1  0.76551012  0.33385069  0.08632872  1  -1.112909  0.029983  -0.335536  -0.563799  0.014747  2.08165  0.024
O  O209  1  0.73447841  0.66612469  0.58633252  1  -1.111232  0.029985  -0.335455  -0.563553  0.014748  2.081781  0.024
O  O210  1  0.23449834  0.66615425  0.91366732  1  -1.111945  0.029967  -0.335358  -0.563554  0.014737  2.081754  0.024
O  O211  1  0.26550606  0.33385678  0.41366250  1  -1.11135  0.02997  -0.335526  -0.563699  0.014739  2.081735  0.024
O  O212  1  0.17654908  0.35407257  0.01141311  1  -1.134543  0.110059  -0.32652  -0.536651  0.056322  2.284589  0.087
O  O213  1  0.32345163  0.64593760  0.51142057  1  -1.134715  0.110051  -0.326442  -0.536607  0.056322  2.28496  0.087
O  O214  1  0.82346422  0.64595530  0.98858803  1  -1.134753  0.110061  -0.326654  -0.53667  0.056322  2.284489  0.087
O  O215  1  0.67655244  0.35406890  0.48859759  1  -1.134923  0.110019  -0.326574  -0.536798  0.0563  2.284398  0.087
O  O216  1  0.30592700  0.41126852  0.07426981  1  -1.169034  0.050668  -0.31229  -0.556081  0.025401  2.175921  0.043
O  O217  1  0.19408094  0.58873669  0.57427851  1  -1.169845  0.050672  -0.312372  -0.556122  0.025403  2.175628  0.043
O  O218  1  0.69408057  0.58872373  0.92573508  1  -1.168752  0.050658  -0.312389  -0.556235  0.025396  2.176003  0.043
O  O219  1  0.80588832  0.41125447  0.42572910  1  -1.169267  0.050696  -0.312515  -0.556324  0.025416  2.175742  0.043
O  O220  1  0.60142323  0.92513116  0.76071831  1  -1.134568  -0.000462  -0.287755  -0.49043  -0.000493  2.099726  0.0
O  O221  1  0.89857865  0.07485477  0.26070315  1  -1.134845  -0.000462  -0.287768  -0.490377  -0.000493  2.099084  0.0
O  O222  1  0.39856101  0.07487563  0.23928760  1  -1.13476  -0.000461  -0.287921  -0.49052  -0.000493  2.099228  0.0
O  O223  1  0.10141792  0.92512704  0.73928847  1  -1.134205  -0.000462  -0.287829  -0.490481  -0.000493  2.099053  0.0
O  O224  1  0.38848173  0.91683900  0.79001502  1  -1.121238  -8e-05  -0.319822  -0.463677  -7.3e-05  2.251058  0.0
O  O225  1  0.11152136  0.08315935  0.29000665  1  -1.121291  -8e-05  -0.31984  -0.463726  -7.3e-05  2.251226  0.0
O  O226  1  0.61149507  0.08317433  0.20998952  1  -1.120801  -8e-05  -0.319793  -0.463599  -7.3e-05  2.251328  0.0
O  O227  1  0.88849257  0.91687276  0.70998701  1  -1.121369  -8e-05  -0.319806  -0.463733  -7.3e-05  2.25151  0.0
