# generated using pymatgen
data_CdH26C25S2(NO)4
_symmetry_space_group_name_H-M   'P 1'
_cell_length_a   12.32766708
_cell_length_b   12.32772056
_cell_length_c   25.81231032
_cell_angle_alpha   90.00016188
_cell_angle_beta   89.99991461
_cell_angle_gamma   89.99973098
_symmetry_Int_Tables_number   1
_chemical_formula_structural   CdH26C25S2(NO)4
_chemical_formula_sum   'Cd4 H104 C100 S8 N16 O16'
_cell_volume   3922.74932459
_cell_formula_units_Z   4
loop_
 _symmetry_equiv_pos_site_id
 _symmetry_equiv_pos_as_xyz
  1  'x, y, z'
loop_
 _atom_site_type_symbol
 _atom_site_label
 _atom_site_symmetry_multiplicity
 _atom_site_fract_x
 _atom_site_fract_y
 _atom_site_fract_z
 _atom_site_occupancy
 _atom_site_pbe_bader_charge
 _atom_site_pbe_bader_spin_density
 _atom_site_pbe_cm5_charge
 _atom_site_pbe_ddec_charge
 _atom_site_pbe_ddec_spin_density
 _atom_site_pbe_ddec_sum_bond_order
 _atom_site_pbe_magmom
Cd  Cd0  1  0.25000037  0.24999962  0.07566553  1  1.058996  0  0.601278  0.617541  0  2.46458  0
Cd  Cd1  1  0.74999975  0.74999989  0.57566510  1  1.059017  0  0.601319  0.617551  0  2.46452  0
Cd  Cd2  1  0.75000002  0.75000010  0.92433478  1  1.059013  0  0.601284  0.617493  0  2.464552  0
Cd  Cd3  1  0.25000064  0.25000226  0.42433482  1  1.058871  0  0.601301  0.61757  0  2.464537  0
H  H4  1  0.07379867  0.42115754  0.12676652  1  0.08091  0  0.100392  0.066152  0  1.051804  0
H  H5  1  0.42620191  0.07883876  0.12676732  1  0.08106  0  0.100403  0.06619  0  1.051748  0
H  H6  1  0.57883956  0.57379349  0.62676741  1  0.080992  0  0.100398  0.066206  0  1.0518  0
H  H7  1  0.92116222  0.92619928  0.62676752  1  0.081104  0  0.10041  0.066236  0  1.051792  0
H  H8  1  0.92620254  0.57883813  0.87323224  1  0.081044  0  0.1004  0.0662  0  1.051787  0
H  H9  1  0.57380091  0.92116258  0.87323377  1  0.081062  0  0.100382  0.066191  0  1.0518  0
H  H10  1  0.42116326  0.42620055  0.37323291  1  0.081067  0  0.100381  0.066191  0  1.051821  0
H  H11  1  0.07883817  0.07380287  0.37323473  1  0.08096  0  0.100384  0.066216  0  1.051806  0
H  H12  1  0.05267337  0.57472225  0.19081592  1  0.110279  0  0.11146  0.132579  0  0.982955  0
H  H13  1  0.44732791  0.92527356  0.19081679  1  0.11023  0  0.111495  0.132601  0  0.982998  0
H  H14  1  0.42527761  0.55267335  0.69081634  1  0.110246  0  0.111465  0.132593  0  0.983009  0
H  H15  1  0.07472698  0.94732458  0.69081712  1  0.110234  0  0.111447  0.132606  0  0.982947  0
H  H16  1  0.94732459  0.42527584  0.80918362  1  0.110278  0  0.111444  0.13256  0  0.982998  0
H  H17  1  0.55267167  0.07472616  0.80918546  1  0.110157  0  0.111428  0.132531  0  0.983042  0
H  H18  1  0.57472359  0.44732313  0.30918397  1  0.110305  0  0.111459  0.132584  0  0.982998  0
H  H19  1  0.92527260  0.05267595  0.30918435  1  0.11021  0  0.111449  0.132565  0  0.982966  0
H  H20  1  0.37344462  0.49326946  0.24749219  1  0.078741  0  0.103265  0.118152  0  1.044455  0
H  H21  1  0.12655234  0.00672998  0.24749233  1  0.078737  0  0.103261  0.11813  0  1.044511  0
H  H22  1  0.50673095  0.87343903  0.74749182  1  0.07874  0  0.103312  0.118171  0  1.044614  0
H  H23  1  0.99326640  0.62655526  0.74749225  1  0.078971  0  0.103276  0.118146  0  1.044514  0
H  H24  1  0.62655577  0.50673188  0.75250696  1  0.07871  0  0.103277  0.118161  0  1.044533  0
H  H25  1  0.87344400  0.99326812  0.75250527  1  0.078716  0  0.103262  0.118117  0  1.04449  0
H  H26  1  0.49326539  0.12655826  0.25250733  1  0.078726  0  0.103275  0.118107  0  1.044589  0
H  H27  1  0.00673723  0.37344365  0.25250613  1  0.078947  0  0.103264  0.118103  0  1.044528  0
H  H28  1  0.38198196  0.35152203  0.17913634  1  0.096654  0  0.104735  0.08874  0  1.006814  0
H  H29  1  0.11801684  0.14848106  0.17913745  1  0.096719  0  0.10469  0.088675  0  1.006788  0
H  H30  1  0.64847642  0.88197698  0.67913601  1  0.096732  0  0.104686  0.088662  0  1.006796  0
H  H31  1  0.85151708  0.61802016  0.67913692  1  0.096647  0  0.104711  0.088704  0  1.006756  0
H  H32  1  0.61802087  0.64847931  0.82086359  1  0.096673  0  0.104724  0.088727  0  1.006786  0
H  H33  1  0.88198355  0.85151866  0.82086170  1  0.096712  0  0.104693  0.088643  0  1.006778  0
H  H34  1  0.35151829  0.11802193  0.32086352  1  0.096658  0  0.104738  0.088759  0  1.006808  0
H  H35  1  0.14848736  0.38198199  0.32086184  1  0.096676  0  0.104707  0.088641  0  1.006809  0
H  H36  1  0.35858328  0.67340668  0.27142509  1  0.053601  0  0.107224  0.081083  0  0.974732  0
H  H37  1  0.14141450  0.82659528  0.27142604  1  0.053578  0  0.107217  0.081103  0  0.974729  0
H  H38  1  0.32659224  0.85858276  0.77142541  1  0.053633  0  0.107248  0.081143  0  0.974688  0
H  H39  1  0.17340561  0.64141564  0.77142571  1  0.053606  0  0.107225  0.081119  0  0.974718  0
H  H40  1  0.64141630  0.32659141  0.72857523  1  0.053595  0  0.107233  0.081124  0  0.974694  0
H  H41  1  0.85858427  0.17340362  0.72857466  1  0.053605  0  0.107216  0.081105  0  0.974728  0
H  H42  1  0.67340653  0.14141615  0.22857451  1  0.053611  0  0.107242  0.081121  0  0.974688  0
H  H43  1  0.82659316  0.35858651  0.22857345  1  0.053588  0  0.107208  0.081112  0  0.974731  0
H  H44  1  0.29974747  0.58214515  0.31823178  1  0.101462  0  0.103481  0.077594  0  1.021346  0
H  H45  1  0.20025179  0.91785627  0.31823321  1  0.101507  0  0.103482  0.077595  0  1.0215  0
H  H46  1  0.41785612  0.79974699  0.81823246  1  0.101542  0  0.10347  0.077587  0  1.0214  0
H  H47  1  0.08214320  0.70025169  0.81823329  1  0.101514  0  0.103474  0.077598  0  1.021427  0
H  H48  1  0.70025292  0.41785456  0.68176814  1  0.101471  0  0.103477  0.077605  0  1.021392  0
H  H49  1  0.79974698  0.08214263  0.68176749  1  0.101456  0  0.103497  0.077639  0  1.021367  0
H  H50  1  0.58214265  0.20025192  0.18176746  1  0.101521  0  0.10348  0.07761  0  1.021416  0
H  H51  1  0.91785475  0.29974803  0.18176664  1  0.10154  0  0.103472  0.077568  0  1.021431  0
H  H52  1  0.40771215  0.82704668  0.33672580  1  0.065004  0  0.104592  0.081047  0  0.971484  0
H  H53  1  0.09228705  0.67295729  0.33672619  1  0.065029  0  0.104588  0.081038  0  0.971506  0
H  H54  1  0.17295062  0.90770999  0.83672767  1  0.064837  0  0.10457  0.081055  0  0.971528  0
H  H55  1  0.32704865  0.59228879  0.83672702  1  0.064983  0  0.104569  0.081048  0  0.971521  0
H  H56  1  0.59229149  0.17295142  0.66327180  1  0.064868  0  0.104567  0.081056  0  0.971481  0
H  H57  1  0.90771415  0.32704648  0.66327528  1  0.064958  0  0.104581  0.081005  0  0.971534  0
H  H58  1  0.82704815  0.09228973  0.16327303  1  0.064983  0  0.104582  0.081035  0  0.971554  0
H  H59  1  0.67295256  0.40771012  0.16327175  1  0.064849  0  0.104576  0.08107  0  0.971559  0
H  H60  1  0.31571002  0.84652023  0.38907606  1  0.118143  0  0.095266  0.087027  0  1.046947  0
H  H61  1  0.18429064  0.65348080  0.38907559  1  0.118147  0  0.095255  0.087004  0  1.046972  0
H  H62  1  0.15347992  0.81570697  0.88907783  1  0.118092  0  0.095271  0.087023  0  1.046963  0
H  H63  1  0.34652000  0.68429212  0.88907729  1  0.118099  0  0.095276  0.087029  0  1.046993  0
H  H64  1  0.68429442  0.15348111  0.61092193  1  0.118081  0  0.095302  0.087091  0  1.046987  0
H  H65  1  0.81571219  0.34651973  0.61092511  1  0.118229  0  0.095266  0.087033  0  1.046945  0
H  H66  1  0.84651804  0.18429031  0.11092248  1  0.118168  0  0.095262  0.087017  0  1.046934  0
H  H67  1  0.65347877  0.31570598  0.11092264  1  0.118062  0  0.09529  0.087061  0  1.047031  0
H  H68  1  0.58357874  0.89353837  0.50529535  1  0.115666  0  0.097122  0.073189  0  1.042523  0
H  H69  1  0.91642342  0.60646343  0.50529465  1  0.115685  0  0.097132  0.073202  0  1.042538  0
H  H70  1  0.10646763  0.08358294  0.00529478  1  0.115751  0  0.09712  0.073237  0  1.04248  0
H  H71  1  0.39353738  0.41642076  0.00529529  1  0.115672  0  0.097125  0.073202  0  1.042519  0
H  H72  1  0.41641678  0.10647108  0.49470535  1  0.115809  0  0.097114  0.073207  0  1.042555  0
H  H73  1  0.08357779  0.39353791  0.49470412  1  0.115666  0  0.097119  0.073187  0  1.042529  0
H  H74  1  0.89353114  0.91641597  0.99470553  1  0.115771  0  0.097121  0.073216  0  1.042508  0
H  H75  1  0.60646057  0.58357896  0.99470463  1  0.115647  0  0.097098  0.073148  0  1.042561  0
H  H76  1  0.45081003  0.88783100  0.43231006  1  0.157152  0  0.095314  0.123424  0  1.064901  0
H  H77  1  0.04919130  0.61217190  0.43231041  1  0.157032  0  0.095259  0.123322  0  1.064973  0
H  H78  1  0.11216920  0.95081571  0.93230964  1  0.157044  0  0.095268  0.123382  0  1.065034  0
H  H79  1  0.38783139  0.54918931  0.93231043  1  0.157096  0  0.095301  0.123395  0  1.0649  0
H  H80  1  0.54918468  0.11216953  0.56769103  1  0.157053  0  0.095275  0.123391  0  1.065039  0
H  H81  1  0.95081071  0.38783187  0.56768991  1  0.157116  0  0.09532  0.123432  0  1.064839  0
H  H82  1  0.88783037  0.04918239  0.06769145  1  0.157065  0  0.095262  0.123365  0  1.06504  0
H  H83  1  0.61216657  0.45081041  0.06768911  1  0.157061  0  0.095316  0.123409  0  1.064903  0
H  H84  1  0.49592483  0.53863657  0.42972887  1  0.059464  0  0.106831  0.125737  0  1.023011  0
H  H85  1  0.00407814  0.96136551  0.42973127  1  0.059483  0  0.106823  0.125653  0  1.023005  0
H  H86  1  0.46136494  0.99591730  0.92972783  1  0.059374  0  0.106807  0.125697  0  1.023102  0
H  H87  1  0.03863566  0.50407716  0.92972920  1  0.059455  0  0.106838  0.125707  0  1.023038  0
H  H88  1  0.50408449  0.46136639  0.57027222  1  0.059341  0  0.106825  0.125704  0  1.023029  0
H  H89  1  0.99592469  0.03863664  0.57026982  1  0.059506  0  0.106846  0.125751  0  1.023017  0
H  H90  1  0.53863302  0.00408242  0.07027209  1  0.05935  0  0.106842  0.12572  0  1.023031  0
H  H91  1  0.96136229  0.49592256  0.07027034  1  0.059491  0  0.106835  0.125695  0  1.023016  0
H  H92  1  0.62828304  0.56167804  0.50223261  1  0.065455  0  0.102676  0.06845  0  1.043808  0
H  H93  1  0.87171589  0.93832212  0.50223317  1  0.065439  0  0.102666  0.068475  0  1.043799  0
H  H94  1  0.43832918  0.12828222  0.00222987  1  0.065658  0  0.102682  0.068483  0  1.043728  0
H  H95  1  0.06167746  0.37171903  0.00223173  1  0.065648  0  0.10269  0.068467  0  1.043768  0
H  H96  1  0.37172222  0.43833060  0.49776964  1  0.065645  0  0.102689  0.0685  0  1.043748  0
H  H97  1  0.12828207  0.06167760  0.49776598  1  0.065425  0  0.102645  0.068416  0  1.043845  0
H  H98  1  0.56166877  0.87171831  0.99776928  1  0.065625  0  0.102683  0.06848  0  1.043713  0
H  H99  1  0.93832050  0.62828312  0.99776859  1  0.065486  0  0.102672  0.068477  0  1.043816  0
H  H100  1  0.50382383  0.22772152  0.05139367  1  -0.03682  0  0.078149  0.125062  0  1.12487  0
H  H101  1  0.99617884  0.27227848  0.05139391  1  -0.036776  0  0.07815  0.125077  0  1.124869  0
H  H102  1  0.77227826  0.00382208  0.55139438  1  -0.036773  0  0.078124  0.125032  0  1.124828  0
H  H103  1  0.72772204  0.49617679  0.55139396  1  -0.036807  0  0.078142  0.125062  0  1.124884  0
H  H104  1  0.49617656  0.77227820  0.94860548  1  -0.036786  0  0.07814  0.125041  0  1.124887  0
H  H105  1  0.00382236  0.72772124  0.94860601  1  -0.036795  0  0.078135  0.125054  0  1.124899  0
H  H106  1  0.22772213  0.99617926  0.44860593  1  -0.036772  0  0.078146  0.125062  0  1.124844  0
H  H107  1  0.27227835  0.50382374  0.44860596  1  -0.036798  0  0.078159  0.125067  0  1.124861  0
C  C108  1  0.13898366  0.44333512  0.15346811  1  0.482135  0  0.03571  0.098024  0  4.0184  0
C  C109  1  0.36101765  0.05665890  0.15346777  1  0.481749  0  0.0357  0.098084  0  4.018232  0
C  C110  1  0.55665917  0.63897680  0.65346828  1  0.556967  0  0.035669  0.097967  0  4.018138  0
C  C111  1  0.94334009  0.86101856  0.65346946  1  0.481744  0  0.035674  0.097987  0  4.018279  0
C  C112  1  0.86101917  0.55666054  0.84653220  1  0.481989  0  0.035697  0.098025  0  4.018332  0
C  C113  1  0.63898274  0.94333757  0.84653216  1  0.557009  0  0.035673  0.097967  0  4.018398  0
C  C114  1  0.44333959  0.36102048  0.34653242  1  0.481957  0  0.035756  0.098119  0  4.018188  0
C  C115  1  0.05666192  0.13898602  0.34653240  1  0.481923  0  0.035635  0.097857  0  4.018393  0
C  C116  1  0.12655364  0.52625975  0.18929604  1  0.00883  0  -0.105263  -0.258654  0  3.980083  0
C  C117  1  0.37344926  0.97373849  0.18929819  1  0.008803  0  -0.105323  -0.25876  0  3.980214  0
C  C118  1  0.47373835  0.62655144  0.68929811  1  -0.066236  0  -0.10531  -0.258709  0  3.980366  0
C  C119  1  0.02626138  0.87344729  0.68929882  1  0.008842  0  -0.105293  -0.258756  0  3.980213  0
C  C120  1  0.87344432  0.47373753  0.81070234  1  0.008822  0  -0.105282  -0.258662  0  3.980342  0
C  C121  1  0.62654869  0.02626204  0.81070444  1  -0.066158  0  -0.105236  -0.258569  0  3.979932  0
C  C122  1  0.52626204  0.37344341  0.31070259  1  0.008811  0  -0.105301  -0.258703  0  3.980456  0
C  C123  1  0.97373820  0.12655324  0.31070381  1  0.00889  0  -0.105247  -0.258564  0  3.980012  0
C  C124  1  0.21208716  0.54737953  0.22383264  1  0.447924  0  0.099637  0.301962  0  4.065904  0
C  C125  1  0.28791077  0.95261810  0.22383406  1  0.447988  0  0.099813  0.302193  0  4.065828  0
C  C126  1  0.45261650  0.71208484  0.72383518  1  0.447991  0  0.099728  0.302051  0  4.065907  0
C  C127  1  0.04738231  0.78790922  0.72383460  1  0.447974  0  0.099787  0.302165  0  4.065829  0
C  C128  1  0.78791242  0.45261937  0.77616573  1  0.447946  0  0.099752  0.302073  0  4.065943  0
C  C129  1  0.71208800  0.04737919  0.77616548  1  0.448013  0  0.099758  0.302036  0  4.065618  0
C  C130  1  0.54738146  0.28791325  0.27616552  1  0.447952  0  0.099732  0.302034  0  4.065904  0
C  C131  1  0.95261889  0.21208969  0.27616648  1  0.447997  0  0.099736  0.30197  0  4.065854  0
C  C132  1  0.30552105  0.48281587  0.22112533  1  -0.035861  0  -0.110402  -0.276977  0  3.979137  0
C  C133  1  0.19447842  0.01718828  0.22112660  1  -0.035624  0  -0.110412  -0.276973  0  3.979133  0
C  C134  1  0.51718406  0.80552369  0.72112644  1  -0.035862  0  -0.110405  -0.27691  0  3.979058  0
C  C135  1  0.98281256  0.69447774  0.72112658  1  -0.035853  0  -0.110405  -0.276972  0  3.979162  0
C  C136  1  0.69447691  0.51718709  0.77887343  1  -0.035587  0  -0.110419  -0.276973  0  3.979183  0
C  C137  1  0.80551872  0.98281225  0.77887293  1  -0.03538  0  -0.110361  -0.276911  0  3.979262  0
C  C138  1  0.48281147  0.19447683  0.27887310  1  -0.035597  0  -0.110422  -0.276882  0  3.979123  0
C  C139  1  0.01719026  0.30552198  0.27887295  1  -0.035633  0  -0.110377  -0.276874  0  3.97919  0
C  C140  1  0.30996253  0.40253976  0.18318446  1  0.523986  0  0.044486  0.12722  0  3.957753  0
C  C141  1  0.19003869  0.09746174  0.18318507  1  0.523383  0  0.044501  0.127263  0  3.95788  0
C  C142  1  0.59746045  0.80995731  0.68318289  1  0.524048  0  0.04451  0.127283  0  3.957773  0
C  C143  1  0.90253710  0.69004067  0.68318425  1  0.523495  0  0.044431  0.127212  0  3.957895  0
C  C144  1  0.69003949  0.59746077  0.81681624  1  0.523715  0  0.044485  0.127257  0  3.957885  0
C  C145  1  0.80996333  0.90254041  0.81681330  1  0.523368  0  0.044444  0.127296  0  3.957868  0
C  C146  1  0.40253832  0.19003836  0.31681587  1  0.523694  0  0.044459  0.127194  0  3.957856  0
C  C147  1  0.09746329  0.30996473  0.31681296  1  0.523037  0  0.044436  0.127316  0  3.957891  0
C  C148  1  0.28475181  0.65318745  0.29338788  1  0.393282  0  -0.062884  -0.029872  0  3.835426  0
C  C149  1  0.21524591  0.84681384  0.29338919  1  0.39317  0  -0.062924  -0.029992  0  3.835704  0
C  C150  1  0.34681194  0.78475161  0.79338929  1  0.393169  0  -0.062907  -0.029955  0  3.835558  0
C  C151  1  0.15318747  0.71524692  0.79338931  1  0.393155  0  -0.062922  -0.029958  0  3.83572  0
C  C152  1  0.71524858  0.34681065  0.70661166  1  0.393281  0  -0.062945  -0.03004  0  3.835594  0
C  C153  1  0.78475205  0.15318588  0.70661228  1  0.393236  0  -0.062915  -0.029992  0  3.835564  0
C  C154  1  0.65318683  0.21524730  0.20661102  1  0.393152  0  -0.062936  -0.02997  0  3.835628  0
C  C155  1  0.84681211  0.28475361  0.20661139  1  0.393163  0  -0.062878  -0.029921  0  3.835598  0
C  C156  1  0.24999962  0.75000033  0.32676428  1  0.028959  0  -0.018332  0.052844  0  3.809804  0
C  C157  1  0.24999965  0.74999936  0.82676524  1  0.028928  0  -0.018399  0.05281  0  3.809997  0
C  C158  1  0.75000240  0.24999857  0.67323604  1  0.028972  0  -0.018283  0.052915  0  3.809729  0
C  C159  1  0.74999912  0.24999873  0.17323546  1  0.02902  0  -0.018358  0.052856  0  3.809981  0
C  C160  1  0.34524459  0.78712305  0.36056287  1  0.370595  0  -0.066744  -0.033636  0  3.819007  0
C  C161  1  0.15475616  0.71287782  0.36056289  1  0.370139  0  -0.066707  -0.033554  0  3.818926  0
C  C162  1  0.21287718  0.84524262  0.86056392  1  0.370356  0  -0.066706  -0.033639  0  3.819068  0
C  C163  1  0.28712282  0.65475711  0.86056376  1  0.370625  0  -0.066677  -0.033629  0  3.819168  0
C  C164  1  0.65475986  0.21287667  0.63943628  1  0.370871  0  -0.066708  -0.033706  0  3.819012  0
C  C165  1  0.84524666  0.28712271  0.63943781  1  0.370146  0  -0.066747  -0.033564  0  3.819021  0
C  C166  1  0.78712240  0.15475629  0.13943678  1  0.370729  0  -0.066713  -0.033571  0  3.819152  0
C  C167  1  0.71287514  0.34524099  0.13943578  1  0.370737  0  -0.066683  -0.033712  0  3.819212  0
C  C168  1  0.56194226  0.81658334  0.48681420  1  0.473834  0  0.040344  0.122952  0  3.965171  0
C  C169  1  0.93805834  0.68341753  0.48681436  1  0.473854  0  0.040365  0.122854  0  3.965205  0
C  C170  1  0.18342394  0.06194416  0.98681478  1  0.473945  0  0.040474  0.123038  0  3.964969  0
C  C171  1  0.31658370  0.43805717  0.98681344  1  0.473808  0  0.040352  0.122939  0  3.965183  0
C  C172  1  0.43805570  0.18342611  0.51318573  1  0.473978  0  0.040509  0.123073  0  3.965018  0
C  C173  1  0.06194124  0.31658218  0.51318440  1  0.473818  0  0.040362  0.122975  0  3.965177  0
C  C174  1  0.81657564  0.93805556  0.01318553  1  0.473952  0  0.040461  0.123035  0  3.965021  0
C  C175  1  0.68341507  0.56194417  0.01318571  1  0.473799  0  0.040365  0.122947  0  3.965144  0
C  C176  1  0.48828930  0.81277491  0.44588685  1  -0.035796  0  -0.110754  -0.268936  0  3.952507  0
C  C177  1  0.01171199  0.68722646  0.44588578  1  -0.035703  0  -0.110715  -0.268786  0  3.952521  0
C  C178  1  0.18722060  0.98829046  0.94588533  1  -0.035783  0  -0.110782  -0.269025  0  3.952438  0
C  C179  1  0.31277589  0.51170733  0.94588612  1  -0.035785  0  -0.110737  -0.268902  0  3.952537  0
C  C180  1  0.51171190  0.18722319  0.55411501  1  -0.035775  0  -0.110776  -0.268999  0  3.952467  0
C  C181  1  0.98829083  0.31277569  0.55411260  1  -0.035757  0  -0.110789  -0.269021  0  3.952367  0
C  C182  1  0.81277735  0.01170844  0.05411537  1  -0.03576  0  -0.110736  -0.268915  0  3.952479  0
C  C183  1  0.68722125  0.48829319  0.05411380  1  -0.035784  0  -0.110781  -0.268947  0  3.95243  0
C  C184  1  0.46307231  0.71103996  0.42472363  1  0.424979  0  0.098735  0.301786  0  4.059023  0
C  C185  1  0.03693229  0.78896372  0.42472500  1  0.425039  0  0.0987  0.301742  0  4.059224  0
C  C186  1  0.28896257  0.96306409  0.92472522  1  0.424936  0  0.098731  0.301819  0  4.058899  0
C  C187  1  0.21104048  0.53692953  0.92472379  1  0.425018  0  0.098753  0.301815  0  4.059039  0
C  C188  1  0.53693619  0.28896301  0.57527474  1  0.425186  0  0.098743  0.30182  0  4.058917  0
C  C189  1  0.96307215  0.21104087  0.57527531  1  0.424996  0  0.09879  0.301928  0  4.058952  0
C  C190  1  0.71103619  0.03693076  0.07527587  1  0.424951  0  0.098725  0.301769  0  4.059012  0
C  C191  1  0.78895667  0.46307019  0.07527574  1  0.425059  0  0.098867  0.301898  0  4.059109  0
C  C192  1  0.51380959  0.61865623  0.44535557  1  0.020858  0  -0.107659  -0.262275  0  3.98677  0
C  C193  1  0.98619113  0.88134440  0.44535674  1  0.020805  0  -0.107691  -0.262201  0  3.986823  0
C  C194  1  0.38135208  0.01381221  0.94535500  1  0.020482  0  -0.107657  -0.262256  0  3.986698  0
C  C195  1  0.11865650  0.48619131  0.94535581  1  0.020847  0  -0.107635  -0.26223  0  3.986865  0
C  C196  1  0.48618999  0.38135322  0.55464474  1  0.020199  0  -0.10766  -0.262229  0  3.98658  0
C  C197  1  0.01381007  0.11865613  0.55464357  1  0.020854  0  -0.107663  -0.262293  0  3.986767  0
C  C198  1  0.61864669  0.98618589  0.05464492  1  0.020442  0  -0.107692  -0.262262  0  3.986727  0
C  C199  1  0.88134227  0.51380678  0.05464412  1  0.020995  0  -0.107771  -0.262381  0  3.986961  0
C  C200  1  0.58663836  0.63174619  0.48572582  1  0.495839  0  0.033413  0.100564  0  4.01659  0
C  C201  1  0.91336142  0.86825306  0.48572664  1  0.495881  0  0.033416  0.100446  0  4.016592  0
C  C202  1  0.36825610  0.08663928  0.98572378  1  0.496469  0  0.033367  0.100468  0  4.016698  0
C  C203  1  0.13174586  0.41336366  0.98572525  1  0.495606  0  0.033363  0.100531  0  4.016597  0
C  C204  1  0.41336122  0.36825839  0.51427565  1  0.496427  0  0.033314  0.100388  0  4.016713  0
C  C205  1  0.08663815  0.13174585  0.51427289  1  0.495829  0  0.033457  0.100594  0  4.01648  0
C  C206  1  0.63174267  0.91336125  0.01427576  1  0.496451  0  0.033348  0.100497  0  4.016616  0
C  C207  1  0.86825209  0.58663687  0.01427429  1  0.495819  0  0.033382  0.100459  0  4.016762  0
S  S208  1  0.45545599  0.29434719  0.08566382  1  -0.55221  0  -0.37644  -0.618423  0  2.200297  0
S  S209  1  0.04454634  0.20565293  0.08566429  1  -0.552223  0  -0.37645  -0.618427  0  2.200333  0
S  S210  1  0.70565185  0.95545487  0.58566475  1  -0.552244  0  -0.376421  -0.618403  0  2.20026  0
S  S211  1  0.79434681  0.54454415  0.58566405  1  -0.552208  0  -0.376436  -0.618421  0  2.200318  0
S  S212  1  0.54454440  0.70565253  0.91433534  1  -0.552234  0  -0.376439  -0.618394  0  2.200337  0
S  S213  1  0.95545487  0.79434760  0.91433641  1  -0.552209  0  -0.376433  -0.618399  0  2.200341  0
S  S214  1  0.29434773  0.04454647  0.41433556  1  -0.552252  0  -0.376436  -0.618415  0  2.200275  0
S  S215  1  0.20565196  0.45545719  0.41433587  1  -0.552225  0  -0.37646  -0.618434  0  2.200303  0
N  N216  1  0.22938452  0.38285738  0.14964273  1  -1.232025  0  -0.331524  -0.247014  0  3.467682  0
N  N217  1  0.27061679  0.11713743  0.14964409  1  -1.231422  0  -0.33158  -0.24716  0  3.467727  0
N  N218  1  0.61714081  0.72938265  0.64964302  1  -1.231943  0  -0.33157  -0.247121  0  3.467354  0
N  N219  1  0.88285928  0.77061593  0.64964411  1  -1.231482  0  -0.331521  -0.247074  0  3.467599  0
N  N220  1  0.77061587  0.61714072  0.85035642  1  -1.231958  0  -0.33158  -0.24716  0  3.467669  0
N  N221  1  0.72938522  0.88286066  0.85035623  1  -1.231882  0  -0.331517  -0.247093  0  3.467673  0
N  N222  1  0.38285634  0.27061544  0.35035691  1  -1.231925  0  -0.331583  -0.247206  0  3.467465  0
N  N223  1  0.11714111  0.22938703  0.35035543  1  -1.231428  0  -0.331504  -0.247076  0  3.467714  0
N  N224  1  0.61102228  0.72862785  0.50674260  1  -1.223115  0  -0.336156  -0.255647  0  3.483333  0
N  N225  1  0.88897825  0.77137071  0.50674253  1  -1.223153  0  -0.336115  -0.255471  0  3.483277  0
N  N226  1  0.27137549  0.11102640  0.00673979  1  -1.223519  0  -0.336184  -0.255653  0  3.483355  0
N  N227  1  0.22862790  0.38897731  0.00674270  1  -1.223034  0  -0.336192  -0.25569  0  3.48322  0
N  N228  1  0.38897568  0.27137754  0.49325926  1  -1.223368  0  -0.336189  -0.255647  0  3.483369  0
N  N229  1  0.11102295  0.22862739  0.49325623  1  -1.223165  0  -0.336175  -0.25564  0  3.483248  0
N  N230  1  0.72862409  0.88897413  0.99325975  1  -1.223504  0  -0.336164  -0.255667  0  3.483301  0
N  N231  1  0.77137249  0.61102322  0.99325722  1  -1.223198  0  -0.336128  -0.255495  0  3.4833  0
O  O232  1  0.19754239  0.62984990  0.25780254  1  -1.083984  0  -0.173279  -0.195714  0  2.55364  0
O  O233  1  0.30245462  0.87015199  0.25780422  1  -1.083954  0  -0.173269  -0.195717  0  2.55373  0
O  O234  1  0.37014994  0.69754311  0.75780427  1  -1.084054  0  -0.173239  -0.1957  0  2.553792  0
O  O235  1  0.12985038  0.80245521  0.75780520  1  -1.083989  0  -0.173238  -0.195745  0  2.553732  0
O  O236  1  0.80245557  0.37014820  0.74219738  1  -1.084027  0  -0.173234  -0.195669  0  2.553684  0
O  O237  1  0.69754171  0.12985017  0.74219687  1  -1.084013  0  -0.173295  -0.195725  0  2.553614  0
O  O238  1  0.62984882  0.30245579  0.24219566  1  -1.083984  0  -0.173263  -0.195736  0  2.553701  0
O  O239  1  0.87015244  0.19754532  0.24219628  1  -1.083931  0  -0.173254  -0.195683  0  2.553787  0
O  O240  1  0.39227556  0.69362965  0.38543890  1  -1.088961  0  -0.173199  -0.188773  0  2.554976  0
O  O241  1  0.10772754  0.80637217  0.38544025  1  -1.08857  0  -0.173217  -0.188809  0  2.554954  0
O  O242  1  0.30636918  0.89227631  0.88543926  1  -1.088558  0  -0.173186  -0.188713  0  2.555071  0
O  O243  1  0.19363075  0.60772519  0.88543949  1  -1.088968  0  -0.173224  -0.188773  0  2.555011  0
O  O244  1  0.60772483  0.30636925  0.61456102  1  -1.08913  0  -0.173221  -0.188734  0  2.55501  0
O  O245  1  0.89227853  0.19362998  0.61456084  1  -1.08849  0  -0.17326  -0.188905  0  2.554956  0
O  O246  1  0.69363040  0.10772178  0.11456183  1  -1.08913  0  -0.173179  -0.188782  0  2.555105  0
O  O247  1  0.80636802  0.39227047  0.11455888  1  -1.088979  0  -0.173238  -0.188707  0  2.55493  0
