# generated using pymatgen
data_Cd3H38C48(N4O7)2
_symmetry_space_group_name_H-M   'P 1'
_cell_length_a   10.78326958
_cell_length_b   10.78209429
_cell_length_c   11.04007547
_cell_angle_alpha   97.40540581
_cell_angle_beta   95.95648455
_cell_angle_gamma   96.55626230
_symmetry_Int_Tables_number   1
_chemical_formula_structural   Cd3H38C48(N4O7)2
_chemical_formula_sum   'Cd3 H38 C48 N8 O14'
_cell_volume   1255.37761726
_cell_formula_units_Z   1
loop_
 _symmetry_equiv_pos_site_id
 _symmetry_equiv_pos_as_xyz
  1  'x, y, z'
loop_
 _atom_site_type_symbol
 _atom_site_label
 _atom_site_symmetry_multiplicity
 _atom_site_fract_x
 _atom_site_fract_y
 _atom_site_fract_z
 _atom_site_occupancy
 _atom_site_hle17_bader_spin_density
 _atom_site_hle17_ddec_charge
 _atom_site_hle17_ddec_spin_density
 _atom_site_hle17_ddec_sum_bond_order
 _atom_site_hle17_magmom
 _atom_site_hse06_10hf_bader_spin_density
 _atom_site_hse06_10hf_ddec_charge
 _atom_site_hse06_10hf_ddec_spin_density
 _atom_site_hse06_10hf_ddec_sum_bond_order
 _atom_site_hse06_10hf_magmom
 _atom_site_hse06_bader_spin_density
 _atom_site_hse06_ddec_charge
 _atom_site_hse06_ddec_spin_density
 _atom_site_hse06_ddec_sum_bond_order
 _atom_site_hse06_magmom
 _atom_site_pbe_bader_spin_density
 _atom_site_pbe_cm5_charge
 _atom_site_pbe_ddec_charge
 _atom_site_pbe_ddec_spin_density
 _atom_site_pbe_ddec_sum_bond_order
 _atom_site_pbe_magmom
Cd  Cd0  1  0.49999998  0.49999975  0.49999992  1  0  1.319076  0  1.70347  0  0  1.170581  0  2.15652  0  0  1.217708  0  2.098195  0  0  0.812708  1.134636  0  2.197619  0
Cd  Cd1  1  0.71632953  0.70716682  0.70211310  1  0  1.183099  0  1.623464  0  0  1.010548  0  2.064035  0  0  1.072003  0  2.00324  0  0  0.775692  0.966172  0  2.106011  0
Cd  Cd2  1  0.28367066  0.29283456  0.29788609  1  0  1.183058  0  1.623483  0  0  1.010486  0  2.064087  0  0  1.071945  0  2.003291  0  0  0.775683  0.966111  0  2.106065  0
H  H3  1  0.33067882  0.33328828  0.75362158  1  0  0.105001  0  0.947186  0  0  0.113953  0  1.007677  0  0  0.116719  0  1.007091  0  0  0.104658  0.112124  0  1.007804  0
H  H4  1  0.66932113  0.66671122  0.24638008  1  0  0.104996  0  0.947191  0  0  0.113946  0  1.007678  0  0  0.116713  0  1.007092  0  0  0.10466  0.112118  0  1.007805  0
H  H5  1  0.24315932  0.36943667  0.95724951  1  0  0.11767  0  0.956161  0  0  0.125429  0  1.019721  0  0  0.129632  0  1.01673  0  0  0.107673  0.122361  0  1.02213  0
H  H6  1  0.75684076  0.63056378  0.04275227  1  0  0.117642  0  0.956132  0  0  0.125362  0  1.019745  0  0  0.129565  0  1.016755  0  0  0.107679  0.122298  0  1.022156  0
H  H7  1  0.91781800  0.49608647  0.77633432  1  0  0.109917  0  0.965512  0  0  0.114168  0  1.035599  0  0  0.11749  0  1.033865  0  0  0.105111  0.111824  0  1.036958  0
H  H8  1  0.08218194  0.50391302  0.22366462  1  0  0.109919  0  0.965496  0  0  0.114172  0  1.035588  0  0  0.117495  0  1.033852  0  0  0.105115  0.111828  0  1.036947  0
H  H9  1  0.99802553  0.44929349  0.57384404  1  0  0.103775  0  0.959089  0  0  0.113538  0  1.020519  0  0  0.116732  0  1.018493  0  0  0.105692  0.111293  0  1.022035  0
H  H10  1  0.00197523  0.55070507  0.42615577  1  0  0.103757  0  0.959109  0  0  0.113523  0  1.020532  0  0  0.116713  0  1.018515  0  0  0.105677  0.111285  0  1.022032  0
H  H11  1  0.22180536  0.67098795  0.60316853  1  0  0.102379  0  0.948504  0  0  0.111815  0  1.00835  0  0  0.114698  0  1.007409  0  0  0.104033  0.10996  0  1.00868  0
H  H12  1  0.77819460  0.32901155  0.39683222  1  0  0.102377  0  0.948531  0  0  0.111808  0  1.008382  0  0  0.114692  0  1.007439  0  0  0.104028  0.109955  0  1.008712  0
H  H13  1  0.03636114  0.78123448  0.54588601  1  0  0.110213  0  0.993516  0  0  0.109774  0  1.07335  0  0  0.113905  0  1.070628  0  0  0.100486  0.106897  0  1.075283  0
H  H14  1  0.96363894  0.21876597  0.45411668  1  0  0.110198  0  0.993503  0  0  0.10976  0  1.073339  0  0  0.113889  0  1.070619  0  0  0.100491  0.106883  0  1.075273  0
H  H15  1  0.28768771  0.12173211  0.53996847  1  0  0.115878  0  0.95886  0  0  0.122815  0  1.02458  0  0  0.126259  0  1.022776  0  0  0.10458  0.120044  0  1.026486  0
H  H16  1  0.71231223  0.87826738  0.46002957  1  0  0.115872  0  0.958851  0  0  0.122812  0  1.024561  0  0  0.126256  0  1.022758  0  0  0.104577  0.120037  0  1.026478  0
H  H17  1  0.47084667  0.01114435  0.60109822  1  0  0.101939  0  0.964527  0  0  0.111623  0  1.027126  0  0  0.114036  0  1.026446  0  0  0.106504  0.109958  0  1.027366  0
H  H18  1  0.52915234  0.98885514  0.39889972  1  0  0.101954  0  0.964544  0  0  0.111636  0  1.027148  0  0  0.114052  0  1.026463  0  0  0.106508  0.10997  0  1.02739  0
H  H19  1  0.63277960  0.21110421  0.68081953  1  0  0.104197  0  0.944441  0  0  0.114307  0  1.003309  0  0  0.117352  0  1.002361  0  0  0.104295  0.112338  0  1.003603  0
H  H20  1  0.36722047  0.78889623  0.31917954  1  0  0.104219  0  0.944422  0  0  0.114331  0  1.003285  0  0  0.117375  0  1.00234  0  0  0.104308  0.112361  0  1.003579  0
H  H21  1  0.57978597  0.02849017  0.79523725  1  0  0.118791  0  0.983245  0  0  0.11854  0  1.060224  0  0  0.123188  0  1.056357  0  0  0.104402  0.115148  0  1.063327  0
H  H22  1  0.42021317  0.97151027  0.20476172  1  0  0.118779  0  0.983253  0  0  0.118534  0  1.06022  0  0  0.123181  0  1.056354  0  0  0.104397  0.115144  0  1.063321  0
H  H23  1  0.53921872  0.29027211  0.11468298  1  0  0.115262  0  0.951156  0  0  0.122202  0  1.015865  0  0  0.125649  0  1.014117  0  0  0.105445  0.119417  0  1.017679  0
H  H24  1  0.46078147  0.70972927  0.88531712  1  0  0.115241  0  0.951197  0  0  0.12219  0  1.015897  0  0  0.125632  0  1.014152  0  0  0.105455  0.119405  0  1.01771  0
H  H25  1  0.59721934  0.47034262  0.00109657  1  0  0.096699  0  0.975161  0  0  0.105768  0  1.039172  0  0  0.108135  0  1.03865  0  0  0.103471  0.104178  0  1.039326  0
H  H26  1  0.40278166  0.52965781  0.99890259  1  0  0.096644  0  0.975194  0  0  0.105737  0  1.039189  0  0  0.108103  0  1.038667  0  0  0.103461  0.104146  0  1.039344  0
H  H27  1  0.01792678  0.78320951  0.83644962  1  0  0.046787  0  0.91122  0  0  0.056115  0  0.979284  0  0  0.058322  0  0.973641  0  0  0.128119  0.054394  0  0.983306  0
H  H28  1  0.98207317  0.21678999  0.16355023  1  0  0.0468  0  0.911225  0  0  0.056129  0  0.979284  0  0  0.058338  0  0.973641  0  0  0.128121  0.054409  0  0.983307  0
H  H29  1  0.90113897  0.07907919  0.81190083  1  0  0.121388  0  0.932076  0  0  0.141284  0  0.989188  0  0  0.143009  0  0.988265  0  0  0.113953  0.139949  0  0.990008  0
H  H30  1  0.09886110  0.92092126  0.18809915  1  0  0.121392  0  0.932076  0  0  0.14129  0  0.989188  0  0  0.143016  0  0.988266  0  0  0.113951  0.139955  0  0.990007  0
H  H31  1  0.04691532  0.13893790  0.76239916  1  0  0.104519  0  0.940082  0  0  0.12308  0  1.005495  0  0  0.122512  0  1.007782  0  0  0.105449  0.123443  0  1.003967  0
H  H32  1  0.95308382  0.86106254  0.23760163  1  0  0.10449  0  0.940092  0  0  0.123074  0  1.005495  0  0  0.122508  0  1.00778  0  0  0.105448  0.123436  0  1.003967  0
H  H33  1  0.02796938  0.16105061  0.92175366  1  0  0.094202  0  0.947464  0  0  0.11365  0  1.014419  0  0  0.11358  0  1.014587  0  0  0.101979  0.113767  0  1.014142  0
H  H34  1  0.97202964  0.83894890  0.07824700  1  0  0.0942  0  0.947409  0  0  0.113646  0  1.014372  0  0  0.113577  0  1.014539  0  0  0.101968  0.113763  0  1.014095  0
H  H35  1  0.20698592  0.88083590  0.87737124  1  0  0.100981  0  0.942178  0  0  0.119881  0  1.007765  0  0  0.120102  0  1.008545  0  0  0.108208  0.119617  0  1.007264  0
H  H36  1  0.79301403  0.11916359  0.12262861  1  0  0.100992  0  0.94219  0  0  0.119898  0  1.007768  0  0  0.12012  0  1.008548  0  0  0.108209  0.119632  0  1.007271  0
H  H37  1  0.21562121  0.03107565  0.97011079  1  0  0.110642  0  0.928861  0  0  0.130002  0  0.989934  0  0  0.130731  0  0.990078  0  0  0.105914  0.129412  0  0.98988  0
H  H38  1  0.78437874  0.96892386  0.02988996  1  0  0.110696  0  0.928864  0  0  0.130058  0  0.989924  0  0  0.130786  0  0.990067  0  0  0.105936  0.129468  0  0.989869  0
H  H39  1  0.23611284  0.02157262  0.81027659  1  0  0.104489  0  0.942877  0  0  0.122582  0  1.009009  0  0  0.12229  0  1.011392  0  0  0.103832  0.122649  0  1.007462  0
H  H40  1  0.76388711  0.97842688  0.18972326  1  0  0.104501  0  0.942873  0  0  0.122594  0  1.009003  0  0  0.122303  0  1.011386  0  0  0.103831  0.122661  0  1.007456  0
C  C41  1  0.21921758  0.36407116  0.53143114  1  0  0.645526  0  3.905368  0  0  0.592655  0  4.20044  0  0  0.628545  0  4.193023  0  0  0.204944  0.568599  0  4.203774  0
C  C42  1  0.78078319  0.63592740  0.46856958  1  0  0.645477  0  3.905343  0  0  0.592629  0  4.200424  0  0  0.628519  0  4.193006  0  0  0.20493  0.568571  0  4.203759  0
C  C43  1  0.17046630  0.39067181  0.65193574  1  0  -0.055674  0  3.743479  0  0  -0.035288  0  3.980635  0  0  -0.044428  0  4.003981  0  0  -0.011899  -0.029083  0  3.964092  0
C  C44  1  0.82953458  0.60932769  0.34806420  1  0  -0.055593  0  3.743592  0  0  -0.03531  0  3.980849  0  0  -0.044449  0  4.004194  0  0  -0.01187  -0.029101  0  3.964304  0
C  C45  1  0.24024137  0.36817923  0.75980527  1  0  -0.057451  0  3.71778  0  0  -0.079643  0  3.963703  0  0  -0.078635  0  3.983668  0  0  -0.080685  -0.079963  0  3.949557  0
C  C46  1  0.75975846  0.63181932  0.24019536  1  0  -0.057503  0  3.71798  0  0  -0.079654  0  3.963902  0  0  -0.078645  0  3.983865  0  0  -0.080726  -0.079978  0  3.949756  0
C  C47  1  0.19270029  0.38825565  0.87203081  1  0  -0.131946  0  3.71301  0  0  -0.151841  0  3.961499  0  0  -0.156415  0  3.981888  0  0  -0.081038  -0.148854  0  3.947767  0
C  C48  1  0.80729991  0.61174574  0.12797111  1  0  -0.131929  0  3.713067  0  0  -0.15176  0  3.961563  0  0  -0.156335  0  3.981952  0  0  -0.081023  -0.148779  0  3.947834  0
C  C49  1  0.07834754  0.43816390  0.87770552  1  0  0.160792  0  3.820963  0  0  0.166909  0  4.067114  0  0  0.168519  0  4.09089  0  0  0.088928  0.166115  0  4.051325  0
C  C50  1  0.92165278  0.56183843  0.12229561  1  0  0.160856  0  3.820879  0  0  0.1669  0  4.067115  0  0  0.168508  0  4.090894  0  0  0.088951  0.166104  0  4.051329  0
C  C51  1  0.00801335  0.46089920  0.77013542  1  0  -0.130769  0  3.71379  0  0  -0.148187  0  3.955017  0  0  -0.152704  0  3.977034  0  0  -0.084636  -0.145551  0  3.940946  0
C  C52  1  0.99198765  0.53910124  0.22986464  1  0  -0.130762  0  3.713797  0  0  -0.148169  0  3.955041  0  0  -0.152684  0  3.977058  0  0  -0.084635  -0.145535  0  3.940971  0
C  C53  1  0.05325405  0.43483522  0.65783432  1  0  -0.05195  0  3.72583  0  0  -0.074517  0  3.970122  0  0  -0.074184  0  3.99098  0  0  -0.076397  -0.074885  0  3.956336  0
C  C54  1  0.94674671  0.56516334  0.34216640  1  0  -0.051979  0  3.725877  0  0  -0.074502  0  3.97018  0  0  -0.07417  0  3.991035  0  0  -0.076397  -0.074871  0  3.956395  0
C  C55  1  0.46686012  0.76997826  0.64227578  1  0  0.654175  0  3.901711  0  0  0.601214  0  4.195172  0  0  0.637116  0  4.188019  0  0  0.206321  0.576892  0  4.198803  0
C  C56  1  0.53313994  0.23002218  0.35772329  1  0  0.65424  0  3.901706  0  0  0.601288  0  4.195139  0  0  0.637185  0  4.187995  0  0  0.206372  0.576967  0  4.198773  0
C  C57  1  0.35692321  0.83510691  0.60626413  1  0  -0.056801  0  3.738346  0  0  -0.034761  0  3.971777  0  0  -0.043692  0  3.995294  0  0  -0.012822  -0.028858  0  3.955317  0
C  C58  1  0.64307687  0.16489353  0.39373584  1  0  -0.056766  0  3.738265  0  0  -0.034719  0  3.971681  0  0  -0.043649  0  3.995202  0  0  -0.012816  -0.028817  0  3.955226  0
C  C59  1  0.23434756  0.76976516  0.58946911  1  0  -0.054324  0  3.720398  0  0  -0.073455  0  3.960633  0  0  -0.073531  0  3.981828  0  0  -0.080455  -0.072816  0  3.945675  0
C  C60  1  0.76565251  0.23023528  0.41053087  1  0  -0.05437  0  3.720428  0  0  -0.073501  0  3.960672  0  0  -0.073578  0  3.981868  0  0  -0.080461  -0.07286  0  3.945713  0
C  C61  1  0.13180080  0.83044727  0.55702182  1  0  -0.134942  0  3.708493  0  0  -0.153452  0  3.954647  0  0  -0.158116  0  3.976821  0  0  -0.08597  -0.150739  0  3.939889  0
C  C62  1  0.86819834  0.16955318  0.44297988  1  0  -0.134868  0  3.708551  0  0  -0.153406  0  3.954676  0  0  -0.158071  0  3.97685  0  0  -0.085944  -0.150693  0  3.939919  0
C  C63  1  0.15154752  0.95822453  0.53955360  1  0  0.159349  0  3.813049  0  0  0.164663  0  4.060801  0  0  0.16563  0  4.084634  0  0  0.087754  0.164461  0  4.044196  0
C  C64  1  0.84845150  0.04177497  0.46044615  1  0  0.159339  0  3.813086  0  0  0.164752  0  4.060707  0  0  0.16572  0  4.084537  0  0  0.087783  0.164552  0  4.044104  0
C  C65  1  0.27385135  0.02334554  0.55475409  1  0  -0.121203  0  3.695406  0  0  -0.141323  0  3.94395  0  0  -0.145117  0  3.963879  0  0  -0.079256  -0.13832  0  3.930216  0
C  C66  1  0.72614766  0.97665395  0.44524476  1  0  -0.12117  0  3.695381  0  0  -0.141318  0  3.943908  0  0  -0.145114  0  3.963837  0  0  -0.079256  -0.138316  0  3.93017  0
C  C67  1  0.37571394  0.96190524  0.58846236  1  0  -0.064111  0  3.736744  0  0  -0.087969  0  3.98454  0  0  -0.087416  0  4.005286  0  0  -0.07968  -0.088168  0  3.969939  0
C  C68  1  0.62428601  0.03809426  0.41153658  1  0  -0.064181  0  3.736747  0  0  -0.088046  0  3.984574  0  0  -0.087494  0  4.005322  0  0  -0.079713  -0.088243  0  3.969973  0
C  C69  1  0.64543319  0.45894624  0.76484725  1  0  0.66064  0  3.899984  0  0  0.61067  0  4.18915  0  0  0.646701  0  4.181903  0  0  0.208808  0.586308  0  4.192862  0
C  C70  1  0.35456502  0.54105420  0.23515164  1  0  0.66056  0  3.900062  0  0  0.610592  0  4.189218  0  0  0.646622  0  4.181975  0  0  0.208816  0.586231  0  4.192929  0
C  C71  1  0.61588290  0.35113344  0.83381145  1  0  -0.058853  0  3.740924  0  0  -0.035511  0  3.971024  0  0  -0.044774  0  3.995455  0  0  -0.015359  -0.029624  0  3.954429  0
C  C72  1  0.38411730  0.64886795  0.16618866  1  0  -0.058823  0  3.740885  0  0  -0.035484  0  3.970985  0  0  -0.044747  0  3.995417  0  0  -0.015365  -0.029597  0  3.954388  0
C  C73  1  0.61143413  0.22646917  0.77563869  1  0  -0.056007  0  3.725972  0  0  -0.075414  0  3.965591  0  0  -0.075613  0  3.986358  0  0  -0.079734  -0.07474  0  3.951258  0
C  C74  1  0.38856606  0.77353221  0.22436051  1  0  -0.056017  0  3.725978  0  0  -0.075421  0  3.965591  0  0  -0.07562  0  3.986359  0  0  -0.079733  -0.074746  0  3.951256  0
C  C75  1  0.58122626  0.12562528  0.83829151  1  0  -0.137852  0  3.708388  0  0  -0.155872  0  3.955015  0  0  -0.159823  0  3.975657  0  0  -0.0849  -0.153882  0  3.941726  0
C  C76  1  0.41877381  0.87437516  0.16170846  1  0  -0.13789  0  3.708369  0  0  -0.155909  0  3.955006  0  0  -0.15986  0  3.975649  0  0  -0.084932  -0.153921  0  3.941717  0
C  C77  1  0.55226255  0.14931102  0.96011590  1  0  0.154709  0  3.827702  0  0  0.160922  0  4.074284  0  0  0.161752  0  4.098687  0  0  0.086144  0.16074  0  4.057238  0
C  C78  1  0.44773671  0.85069036  0.03988320  1  0  0.154707  0  3.827665  0  0  0.160905  0  4.074277  0  0  0.161735  0  4.098675  0  0  0.086149  0.160723  0  4.057229  0
C  C79  1  0.55985489  0.27359374  0.01977023  1  0  -0.124411  0  3.698699  0  0  -0.142386  0  3.942848  0  0  -0.146496  0  3.963659  0  0  -0.08272  -0.138827  0  3.928187  0
C  C80  1  0.44014704  0.72640671  0.98022993  1  0  -0.124379  0  3.698728  0  0  -0.142361  0  3.942894  0  0  -0.146466  0  3.963702  0  0  -0.082728  -0.138802  0  3.92823  0
C  C81  1  0.59160777  0.37367451  0.95646852  1  0  -0.061633  0  3.741667  0  0  -0.08474  0  3.987147  0  0  -0.084823  0  4.009231  0  0  -0.082343  -0.084578  0  3.971716  0
C  C82  1  0.40839335  0.62632687  0.04353077  1  0  -0.061612  0  3.741678  0  0  -0.084739  0  3.987151  0  0  -0.084822  0  4.009235  0  0  -0.082342  -0.084577  0  3.971718  0
C  C83  1  0.97158753  0.86892927  0.83150020  1  0  0.394652  0  3.815024  0  0  0.318185  0  4.104858  0  0  0.3472  0  4.105538  0  0  0.179019  0.298897  0  4.103417  0
C  C84  1  0.02841242  0.13107023  0.16849965  1  0  0.394556  0  3.815202  0  0  0.318094  0  4.105027  0  0  0.347108  0  4.105709  0  0  0.178977  0.298806  0  4.103588  0
C  C85  1  0.00335519  0.09597376  0.83529257  1  0  -0.169632  0  3.627598  0  0  -0.268109  0  3.867298  0  0  -0.26453  0  3.878361  0  0  -0.131035  -0.270492  0  3.860038  0
C  C86  1  0.99664476  0.90402574  0.16470818  1  0  -0.169602  0  3.627548  0  0  -0.268112  0  3.867238  0  0  -0.264534  0  3.878301  0  0  -0.131021  -0.270495  0  3.859976  0
C  C87  1  0.18496747  0.97764544  0.87808336  1  0  -0.177163  0  3.657411  0  0  -0.281196  0  3.912241  0  0  -0.278341  0  3.924565  0  0  -0.130214  -0.282786  0  3.90377  0
C  C88  1  0.81503166  0.02235500  0.12191653  1  0  -0.177255  0  3.657473  0  0  -0.281297  0  3.9123  0  0  -0.278443  0  3.924624  0  0  -0.130236  -0.282883  0  3.903832  0
N  N89  1  0.03639435  0.45805782  0.99462683  1  0  -0.143485  0  2.997185  0  0  -0.122347  0  3.280533  0  0  -0.12196  0  3.287504  0  0  -0.141237  -0.122948  0  3.27585  0
N  N90  1  0.96360596  0.54194451  0.00537340  1  0  -0.143354  0  2.99709  0  0  -0.122207  0  3.28045  0  0  -0.12182  0  3.287423  0  0  -0.141168  -0.122808  0  3.275767  0
N  N91  1  0.05491847  0.03033482  0.50834473  1  0  -0.154542  0  2.997434  0  0  -0.132033  0  3.281992  0  0  -0.130144  0  3.287836  0  0  -0.149852  -0.133591  0  3.277843  0
N  N92  1  0.94508055  0.96966467  0.49165412  1  0  -0.154596  0  2.997414  0  0  -0.132113  0  3.281941  0  0  -0.13022  0  3.28778  0  0  -0.149865  -0.133671  0  3.277791  0
N  N93  1  0.51763439  0.05397674  0.03105330  1  0  -0.146944  0  2.997158  0  0  -0.122691  0  3.277066  0  0  -0.121486  0  3.284035  0  0  -0.144008  -0.123662  0  3.272157  0
N  N94  1  0.48236475  0.94602370  0.96894658  1  0  -0.146878  0  2.997152  0  0  -0.122615  0  3.277055  0  0  -0.121407  0  3.284022  0  0  -0.143986  -0.123584  0  3.272144  0
N  N95  1  0.05005768  0.97607397  0.84740761  1  0  -0.075115  0  3.501533  0  0  0.027093  0  3.737333  0  0  0.006777  0  3.763498  0  0  -0.274646  0.040676  0  3.719323  0
N  N96  1  0.94994239  0.02392647  0.15259236  1  0  -0.075049  0  3.501608  0  0  0.027162  0  3.737408  0  0  0.006847  0  3.763575  0  0  -0.274621  0.040746  0  3.719398  0
O  O97  1  0.33599463  0.34979685  0.53067578  1  0  -0.697045  0  2.055764  0  0  -0.626047  0  2.311722  0  0  -0.655931  0  2.298455  0  0  -0.337599  -0.60522  0  2.319977  0
O  O98  1  0.66400637  0.65020360  0.46932520  1  0  -0.697055  0  2.055715  0  0  -0.626062  0  2.311674  0  0  -0.655945  0  2.298408  0  0  -0.337606  -0.605233  0  2.319925  0
O  O99  1  0.14373911  0.35196854  0.43251777  1  0  -0.621633  0  1.970448  0  0  -0.556814  0  2.214686  0  0  -0.587386  0  2.204978  0  0  -0.315251  -0.535239  0  2.220279  0
O  O100  1  0.85626190  0.64803191  0.56748411  1  0  -0.621615  0  1.970394  0  0  -0.556786  0  2.214617  0  0  -0.587358  0  2.204908  0  0  -0.315245  -0.535209  0  2.220203  0
O  O101  1  0.44964542  0.65086603  0.64394062  1  0  -0.686704  0  2.030571  0  0  -0.620814  0  2.284412  0  0  -0.649562  0  2.271488  0  0  -0.338842  -0.601019  0  2.292537  0
O  O102  1  0.55035465  0.34913441  0.35605845  1  0  -0.686749  0  2.030548  0  0  -0.620868  0  2.284393  0  0  -0.649619  0  2.271481  0  0  -0.33888  -0.601073  0  2.292519  0
O  O103  1  0.57369155  0.83769127  0.67161405  1  0  -0.618751  0  2.010974  0  0  -0.549913  0  2.261594  0  0  -0.581097  0  2.250532  0  0  -0.313236  -0.527612  0  2.268664  0
O  O104  1  0.42630852  0.16230917  0.32838502  1  0  -0.618738  0  2.010977  0  0  -0.549899  0  2.261586  0  0  -0.581083  0  2.250526  0  0  -0.313229  -0.527599  0  2.268657  0
O  O105  1  0.63665342  0.43758942  0.64799193  1  0  -0.677796  0  2.028519  0  0  -0.615414  0  2.280949  0  0  -0.643977  0  2.268496  0  0  -0.335266  -0.595491  0  2.288477  0
O  O106  1  0.36334746  0.56241007  0.35200620  1  0  -0.67776  0  2.028592  0  0  -0.615373  0  2.281014  0  0  -0.643936  0  2.268565  0  0  -0.335245  -0.595447  0  2.288538  0
O  O107  1  0.67981977  0.56794456  0.82873538  1  0  -0.639726  0  2.013085  0  0  -0.573643  0  2.270308  0  0  -0.604816  0  2.257482  0  0  -0.322811  -0.551737  0  2.278599  0
O  O108  1  0.32017482  0.43205682  0.17126235  1  0  -0.639664  0  2.013069  0  0  -0.57358  0  2.270289  0  0  -0.604753  0  2.257465  0  0  -0.322823  -0.551674  0  2.278578  0
O  O109  1  0.85379133  0.86441012  0.81361565  1  0  -0.550813  0  2.087036  0  0  -0.485361  0  2.347594  0  0  -0.512506  0  2.336378  0  0  -0.315928  -0.46634  0  2.354519  0
O  O110  1  0.14620862  0.13558938  0.18638329  1  0  -0.550774  0  2.0871  0  0  -0.485326  0  2.347655  0  0  -0.512472  0  2.336441  0  0  -0.315919  -0.466304  0  2.354581  0
