# generated using pymatgen
data_MnH16C16S(NO)4
_symmetry_space_group_name_H-M   'P 1'
_cell_length_a   8.52855864
_cell_length_b   8.79197281
_cell_length_c   12.90839154
_cell_angle_alpha   103.74604047
_cell_angle_beta   90.38400163
_cell_angle_gamma   117.70435715
_symmetry_Int_Tables_number   1
_chemical_formula_structural   MnH16C16S(NO)4
_chemical_formula_sum   'Mn2 H32 C32 S2 N8 O8'
_cell_volume   824.63887247
_cell_formula_units_Z   2
loop_
 _symmetry_equiv_pos_site_id
 _symmetry_equiv_pos_as_xyz
  1  'x, y, z'
loop_
 _atom_site_type_symbol
 _atom_site_label
 _atom_site_symmetry_multiplicity
 _atom_site_fract_x
 _atom_site_fract_y
 _atom_site_fract_z
 _atom_site_occupancy
 _atom_site_hle17_ddec_charge
 _atom_site_hle17_ddec_spin_density
 _atom_site_hle17_ddec_sum_bond_order
 _atom_site_hle17_magmom
 _atom_site_hse06_10hf_ddec_charge
 _atom_site_hse06_10hf_ddec_spin_density
 _atom_site_hse06_10hf_ddec_sum_bond_order
 _atom_site_hse06_10hf_magmom
 _atom_site_hse06_ddec_charge
 _atom_site_hse06_ddec_spin_density
 _atom_site_hse06_ddec_sum_bond_order
 _atom_site_hse06_magmom
 _atom_site_pbe_cm5_charge
 _atom_site_pbe_ddec_charge
 _atom_site_pbe_ddec_spin_density
 _atom_site_pbe_ddec_sum_bond_order
 _atom_site_pbe_magmom
Mn  Mn0  1  0.00000020  0.00000290  0.99999989  1  1.07313  -4.909563  1.733838  -4.67  0.898653  -4.818312  2.206526  -4.535  0.964388  -4.862293  2.139484  -4.596  0.607952  0.848075  -4.774243  2.255032  -4.478
Mn  Mn1  1  0.00000061  0.00000010  0.49999895  1  0.763548  1.182719  2.411589  1.076  0.627709  1.098361  2.974898  1.015  0.702395  1.074337  2.886747  0.98  0.562595  0.577802  1.128376  3.033128  1.056
H  H2  1  0.44373303  0.01890609  0.08286977  1  0.146493  0.000362  0.968811  0.0  0.152091  0.000328  1.033242  0.0  0.156235  0.000375  1.030136  0.0  0.112914  0.149024  0.000268  1.035609  0.0
H  H3  1  0.43380089  0.98225862  0.42743812  1  0.140425  4.6e-05  0.978916  0.0  0.147645  -0.000231  1.041631  0.0  0.151691  -0.000179  1.038576  0.0  0.111771  0.144393  -0.000297  1.044259  0.0
H  H4  1  0.55625979  0.98108517  0.91712746  1  0.146533  0.000362  0.968777  0.0  0.15215  0.000328  1.033181  0.0  0.156295  0.000375  1.030075  0.0  0.112939  0.149081  0.000268  1.035555  0.0
H  H5  1  0.56619849  0.01774600  0.57256283  1  0.140442  4.6e-05  0.978949  0.0  0.147662  -0.000231  1.041658  0.0  0.151708  -0.000179  1.0386  0.0  0.111773  0.144412  -0.000297  1.044286  0.0
H  H6  1  0.60415193  0.63367269  0.98654151  1  0.09729  0.000274  0.974074  0.0  0.107252  0.000149  1.035767  0.0  0.109295  0.000197  1.035351  0.0  0.114761  0.105819  9.6e-05  1.036106  0.0
H  H7  1  0.97552352  0.36341962  0.51016016  1  0.098802  -4.6e-05  0.976893  0.0  0.109048  -0.000158  1.03832  0.0  0.111095  -0.00012  1.037509  0.0  0.115706  0.107504  -0.000197  1.039166  0.0
H  H8  1  0.39584664  0.36632790  0.01345724  1  0.097289  0.000274  0.974019  0.0  0.107235  0.000149  1.035733  0.0  0.109279  0.000197  1.035317  0.0  0.114768  0.105798  9.6e-05  1.036075  0.0
H  H9  1  0.02447820  0.63658496  0.48984080  1  0.098806  -4.6e-05  0.976876  0.0  0.109069  -0.000158  1.038285  0.0  0.111115  -0.00012  1.037474  0.0  0.115722  0.107523  -0.000197  1.039134  0.0
H  H10  1  0.43394062  0.36855075  0.79248888  1  0.117291  -0.000309  0.968901  0.0  0.122769  -0.000385  1.03942  0.0  0.125761  -0.000196  1.03713  0.0  0.120232  0.120393  -0.000604  1.04144  0.0
H  H11  1  0.05760963  0.61934292  0.70725269  1  0.115037  -5.2e-05  0.971272  0.0  0.122032  6.9e-05  1.039334  0.0  0.124281  6.5e-05  1.038488  0.0  0.119633  0.12045  5e-05  1.03981  0.0
H  H12  1  0.56605795  0.63144984  0.20750910  1  0.117387  -0.000309  0.968873  0.0  0.122875  -0.000385  1.039361  0.0  0.125867  -0.000196  1.03707  0.0  0.120265  0.120496  -0.000604  1.041386  0.0
H  H13  1  0.94239196  0.38065899  0.29275015  1  0.115022  -5.2e-05  0.971305  0.0  0.122042  6.9e-05  1.039342  0.0  0.124264  6.5e-05  1.038548  0.0  0.119633  0.120458  5e-05  1.039816  0.0
H  H14  1  0.90311026  0.79419476  0.73666421  1  0.106596  0.00034  0.996732  0.0  0.11002  0.000257  1.070164  0.0  0.114202  0.000344  1.065558  0.0  0.131836  0.106829  0.000119  1.073433  0.0
H  H15  1  0.10563050  0.18325614  0.75682020  1  0.108648  7.1e-05  1.018773  0.0  0.111763  8.2e-05  1.090269  0.0  0.11606  0.000231  1.08443  0.0  0.1311  0.10833  -9.4e-05  1.095123  0.0
H  H16  1  0.09689467  0.20580442  0.26333665  1  0.1066  0.00034  0.996719  0.0  0.110038  0.000257  1.070137  0.0  0.114225  0.000344  1.065518  0.0  0.131837  0.106842  0.000119  1.073415  0.0
H  H17  1  0.89437442  0.81674303  0.24317911  1  0.108685  7.1e-05  1.018744  0.0  0.111794  8.2e-05  1.090253  0.0  0.116091  0.000231  1.084415  0.0  0.131115  0.108361  -9.4e-05  1.095106  0.0
H  H18  1  0.53477211  0.32594411  0.60375974  1  0.086015  -0.000371  0.957551  0.0  0.099161  -0.000373  1.023127  0.0  0.100302  -0.000329  1.023408  0.0  0.108593  0.09826  -0.000415  1.022891  0.0
H  H19  1  0.20943909  0.65325423  0.89420818  1  0.089782  0.000201  0.953336  0.0  0.102717  0.000263  1.017012  0.0  0.104277  0.000301  1.016361  0.0  0.108494  0.101471  0.000208  1.017681  0.0
H  H20  1  0.46522997  0.67405644  0.39624056  1  0.086006  -0.000371  0.95755  0.0  0.099148  -0.000373  1.023136  0.0  0.100286  -0.000329  1.023416  0.0  0.108586  0.098245  -0.000415  1.022905  0.0
H  H21  1  0.79056454  0.34674228  0.10579457  1  0.089777  0.000201  0.953253  0.0  0.102724  0.000263  1.01693  0.0  0.104286  0.000301  1.016274  0.0  0.108496  0.101479  0.000208  1.017597  0.0
H  H22  1  0.74298795  0.49657578  0.58498693  1  0.068743  2.4e-05  0.932571  0.0  0.084765  -5.4e-05  0.997198  0.0  0.084846  -3.6e-05  0.998044  0.0  0.107774  0.084543  -7.7e-05  0.996769  0.0
H  H23  1  0.22972020  0.46788190  0.91126526  1  0.068682  7e-05  0.936497  0.0  0.084719  7.1e-05  1.001449  0.0  0.08465  8e-05  1.002525  0.0  0.107554  0.084737  5.6e-05  1.000712  0.0
H  H24  1  0.25701428  0.50342746  0.41501381  1  0.068718  2.4e-05  0.932604  0.0  0.08475  -5.4e-05  0.997219  0.0  0.084829  -3.6e-05  0.998063  0.0  0.107772  0.084528  -7.7e-05  0.996792  0.0
H  H25  1  0.77027745  0.53211200  0.08873550  1  0.06871  7e-05  0.936476  0.0  0.084765  7.1e-05  1.001417  0.0  0.084696  8e-05  1.002494  0.0  0.107573  0.084781  5.6e-05  1.000683  0.0
H  H26  1  0.59916918  0.68805316  0.57783666  1  0.070105  0.000105  0.955494  0.0  0.086071  -0.000258  1.022891  0.0  0.087279  -0.000188  1.021886  0.0  0.089657  0.084759  -0.000344  1.024439  0.0
H  H27  1  0.90390664  0.30783764  0.92686669  1  0.068568  -0.000289  0.954384  0.0  0.085062  -0.00072  1.020108  0.0  0.085593  -0.000548  1.020373  0.0  0.088729  0.084605  -0.000895  1.020109  0.0
H  H28  1  0.40082874  0.31194610  0.42216264  1  0.070129  0.000105  0.955469  0.0  0.086089  -0.000258  1.022854  0.0  0.087299  -0.000188  1.02185  0.0  0.089664  0.084776  -0.000344  1.0244  0.0
H  H29  1  0.09609480  0.69216158  0.07313572  1  0.068564  -0.000288  0.954324  0.0  0.085072  -0.00072  1.02006  0.0  0.085605  -0.000547  1.020322  0.0  0.088724  0.084614  -0.000894  1.020063  0.0
H  H30  1  0.39164912  0.51388617  0.59326982  1  0.0719  -2.1e-05  0.940033  0.0  0.089157  -8e-06  1.001349  0.0  0.089396  -8e-06  1.003384  0.0  0.089993  0.088949  -1.4e-05  0.999964  0.0
H  H31  1  0.87971163  0.48762574  0.90540631  1  0.06947  0.00016  0.948768  0.0  0.086557  0.000174  1.011371  0.0  0.086847  0.000177  1.013389  0.0  0.088801  0.086289  0.000169  1.010015  0.0
H  H32  1  0.60834982  0.48611039  0.40672828  1  0.071903  -2.1e-05  0.940018  0.0  0.089161  -8e-06  1.001326  0.0  0.0894  -8e-06  1.003363  0.0  0.08998  0.088951  -1.4e-05  0.99994  0.0
H  H33  1  0.12029097  0.51237347  0.09459532  1  0.069433  0.00016  0.948724  0.0  0.086529  0.000174  1.011348  0.0  0.086819  0.000177  1.013366  0.0  0.088773  0.08626  0.000169  1.009988  0.0
C  C34  1  0.48129201  0.01658876  0.16289051  1  -0.176145  -0.00067  3.649037  -0.001  -0.204416  -0.00189  3.927767  -0.002  -0.201712  -0.001559  3.940992  -0.001  -0.090981  -0.205905  -0.002677  3.919102  -0.002
C  C35  1  0.47219387  0.98607112  0.34777435  1  -0.178795  -0.006422  3.642335  -0.005  -0.207811  -0.006978  3.920932  -0.005  -0.201687  -0.003277  3.931033  -0.002  -0.094493  -0.212555  -0.011048  3.915665  -0.008
C  C36  1  0.51870380  0.98340381  0.83710693  1  -0.176274  -0.000669  3.649178  -0.001  -0.204566  -0.001889  3.92793  -0.002  -0.201859  -0.001558  3.941141  -0.001  -0.091049  -0.206054  -0.002676  3.919267  -0.002
C  C37  1  0.52780653  0.01393080  0.65222462  1  -0.178839  -0.006426  3.642298  -0.005  -0.207867  -0.006982  3.920902  -0.005  -0.201739  -0.003278  3.930998  -0.002  -0.094509  -0.212615  -0.011055  3.91564  -0.008
C  C38  1  0.63131548  0.01302543  0.20048457  1  -0.093814  0.000335  3.789581  0.0  -0.083428  -0.000439  4.036646  0.0  -0.089712  0.000548  4.05712  0.0  -0.03526  -0.079664  -0.001398  4.023752  -0.001
C  C39  1  0.62786087  0.99765583  0.30961989  1  -0.091642  4.9e-05  3.80382  0.001  -0.080645  -0.001048  4.050729  0.0  -0.086875  -0.000503  4.067363  0.0  -0.033872  -0.07782  -0.002578  4.041664  -0.001
C  C40  1  0.36868048  0.98696983  0.79951486  1  -0.093711  0.000335  3.789601  0.0  -0.08334  -0.00044  4.036666  0.0  -0.089622  0.000548  4.057143  0.0  -0.035226  -0.079576  -0.001399  4.023773  -0.001
C  C41  1  0.37213537  0.00234479  0.69037963  1  -0.091687  5e-05  3.803818  0.001  -0.08065  -0.001047  4.050679  0.0  -0.086884  -0.000503  4.067314  0.0  -0.033861  -0.077826  -0.002578  4.041622  -0.001
C  C42  1  0.76130258  0.00521493  0.12614288  1  0.640866  -0.004237  3.903602  -0.002  0.591502  -0.008326  4.194254  -0.005  0.626283  -0.006472  4.187917  -0.004  0.203976  0.567427  -0.010207  4.197921  -0.006
C  C43  1  0.77001121  0.00511838  0.37969173  1  0.607377  -0.011708  3.854938  -0.008  0.55633  -0.01095  4.148781  -0.008  0.598977  -0.005287  4.140045  -0.004  0.194365  0.525638  -0.016119  4.153731  -0.012
C  C44  1  0.23869338  0.99478033  0.87385655  1  0.640825  -0.004237  3.903695  -0.002  0.591459  -0.008326  4.194355  -0.005  0.626239  -0.006472  4.188021  -0.004  0.203986  0.567383  -0.010207  4.198024  -0.006
C  C45  1  0.22998869  0.99488489  0.62031056  1  0.607294  -0.011712  3.855129  -0.008  0.556236  -0.010952  4.148985  -0.008  0.598886  -0.005288  4.140248  -0.004  0.194302  0.52554  -0.016126  4.15394  -0.012
C  C46  1  0.64077048  0.62685356  0.90599908  1  -0.016449  -0.001621  3.776232  -0.002  -0.048539  -0.003319  4.04396  -0.004  -0.046873  -0.002697  4.065026  -0.003  -0.007668  -0.049733  -0.003938  4.029376  -0.004
C  C47  1  0.01425162  0.36419505  0.59038190  1  -0.018822  -0.003551  3.75097  -0.003  -0.051708  0.002362  4.015064  0.003  -0.048383  0.002425  4.035338  0.003  -0.006751  -0.054353  0.002282  4.001791  0.003
C  C48  1  0.35922810  0.37314704  0.09400044  1  -0.016365  -0.001622  3.776052  -0.002  -0.04844  -0.00332  4.043777  -0.004  -0.046771  -0.002698  4.06484  -0.003  -0.007655  -0.049639  -0.003938  4.0292  -0.004
C  C49  1  0.98574895  0.63580956  0.40962216  1  -0.018802  -0.003552  3.750921  -0.003  -0.051691  0.002363  4.015013  0.003  -0.048365  0.002426  4.035281  0.003  -0.00679  -0.054338  0.002283  4.001742  0.003
C  C50  1  0.55507054  0.49620002  0.81110861  1  -0.064506  -0.000409  3.668965  0.0  -0.104637  -0.000904  3.928624  -0.001  -0.102897  -0.000325  3.947286  0.0  -0.000555  -0.105576  -0.001448  3.91612  -0.001
C  C51  1  0.05285194  0.49035063  0.68703878  1  -0.07189  0.002503  3.686109  0.002  -0.112565  0.000317  3.947145  0.0  -0.111532  -0.000387  3.966644  0.0  -0.002973  -0.112747  0.000908  3.93358  0.0
C  C52  1  0.44493052  0.50380323  0.18889213  1  -0.064746  -0.000409  3.668987  0.0  -0.104893  -0.000904  3.928668  -0.001  -0.103154  -0.000325  3.94733  0.0  -0.000639  -0.105833  -0.001448  3.916168  -0.001
C  C53  1  0.94714833  0.50964860  0.31296208  1  -0.071915  0.002504  3.686147  0.002  -0.112621  0.000317  3.947189  0.0  -0.111578  -0.000387  3.966694  0.0  -0.002981  -0.112803  0.000908  3.933621  0.0
C  C54  1  0.80144407  0.71585389  0.78067815  1  0.137267  -0.005336  3.676219  -0.005  0.076435  -0.007553  3.946634  -0.007  0.089482  -0.006582  3.959654  -0.006  0.135903  0.06789  -0.008619  3.937685  -0.007
C  C55  1  0.08144994  0.26475566  0.71416335  1  0.120976  -0.000125  3.650939  0.0  0.063409  0.009862  3.915192  0.008  0.078094  0.010458  3.927642  0.009  0.130946  0.053524  0.009511  3.906855  0.008
C  C56  1  0.19855684  0.28414668  0.21932138  1  0.137298  -0.005335  3.676292  -0.005  0.076434  -0.007553  3.946727  -0.007  0.089483  -0.006582  3.959748  -0.006  0.135918  0.067886  -0.008619  3.937772  -0.007
C  C57  1  0.91855097  0.73524491  0.28583695  1  0.120916  -0.000124  3.651015  0.0  0.063347  0.009863  3.915276  0.008  0.078029  0.010459  3.927725  0.009  0.130927  0.053462  0.009512  3.906939  0.008
C  C58  1  0.61654174  0.47050922  0.61680786  1  0.000101  -0.000594  3.617403  -0.001  -0.061598  -0.000715  3.873692  -0.001  -0.057793  -0.000534  3.885098  0.0  -0.054616  -0.063886  -0.000914  3.865792  -0.001
C  C59  1  0.13817944  0.50781900  0.88075560  1  -0.003548  -0.000176  3.615115  0.0  -0.06398  -0.000185  3.86846  0.0  -0.060362  -0.000117  3.880281  0.0  -0.055091  -0.066246  -0.00025  3.860303  0.0
C  C60  1  0.38345982  0.52949268  0.38319111  1  0.000143  -0.000594  3.617494  -0.001  -0.061568  -0.000714  3.873757  -0.001  -0.057747  -0.000534  3.885145  0.0  -0.054591  -0.063859  -0.000914  3.865859  -0.001
C  C61  1  0.86182264  0.49218156  0.11924548  1  -0.003528  -0.000176  3.614976  0.0  -0.063999  -0.000185  3.868397  0.0  -0.060384  -0.000117  3.880223  0.0  -0.055111  -0.066264  -0.00025  3.860238  0.0
C  C62  1  0.51835544  0.54224586  0.56058641  1  -0.118749  -1e-05  3.667762  0.0  -0.157565  -0.000293  3.924619  0.0  -0.159002  -0.000198  3.938084  0.0  -0.16368  -0.156488  -0.000418  3.915496  0.0
C  C63  1  0.97375347  0.45338289  0.93967085  1  -0.119157  -0.000272  3.665845  0.0  -0.158197  -0.000384  3.922819  0.0  -0.159782  -0.000266  3.936991  0.0  -0.163687  -0.156939  -0.000508  3.912953  0.0
C  C64  1  0.48164364  0.45775339  0.43941135  1  -0.118739  -1e-05  3.667782  0.0  -0.157521  -0.000293  3.924599  0.0  -0.158953  -0.000198  3.938038  0.0  -0.163631  -0.156446  -0.000418  3.915481  0.0
C  C65  1  0.02624730  0.54661499  0.06032979  1  -0.119067  -0.000272  3.665657  0.0  -0.158157  -0.000384  3.922689  0.0  -0.159742  -0.000265  3.93686  0.0  -0.163633  -0.1569  -0.000508  3.912817  0.0
S  S66  1  0.33660502  0.99707866  0.25552730  1  0.244487  -0.000685  2.721745  0.0  0.251315  -0.003147  3.079461  -0.002  0.252154  -0.001656  3.081155  -0.001  0.132652  0.249266  -0.005048  3.079682  -0.003
S  S67  1  0.66339341  0.00291925  0.74447102  1  0.244533  -0.000686  2.721791  0.0  0.251361  -0.003148  3.079519  -0.002  0.252202  -0.001656  3.08121  -0.001  0.13265  0.249312  -0.005049  3.079743  -0.003
N  N68  1  0.79500676  0.76285796  0.88617705  1  -0.397714  -0.026138  3.279736  -0.011  -0.327079  -0.027686  3.57412  -0.007  -0.350727  -0.024565  3.59071  -0.005  -0.359515  -0.309852  -0.030442  3.561942  -0.01
N  N69  1  0.03367227  0.22387121  0.60798349  1  -0.326961  -0.012516  3.354106  -0.013  -0.261724  -0.004043  3.642874  -0.015  -0.288455  -0.004164  3.659037  -0.015  -0.370986  -0.243766  -0.003895  3.631514  -0.015
N  N70  1  0.20499416  0.23714262  0.11382402  1  -0.397729  -0.026139  3.279793  -0.011  -0.327073  -0.027686  3.574168  -0.007  -0.350721  -0.024566  3.590759  -0.005  -0.359533  -0.309844  -0.030443  3.561986  -0.01
N  N71  1  0.96632878  0.77613204  0.39201647  1  -0.326928  -0.012517  3.354211  -0.013  -0.261702  -0.004044  3.643005  -0.015  -0.288425  -0.004165  3.659162  -0.015  -0.370984  -0.243743  -0.003896  3.631644  -0.015
N  N72  1  0.65907090  0.55482306  0.73279650  1  -0.057896  -0.001233  3.578713  -0.001  0.037934  -0.002407  3.794862  -0.002  0.023212  -0.001829  3.821545  -0.002  -0.241264  0.047557  -0.002973  3.776751  -0.003
N  N73  1  0.09460238  0.42516044  0.76433734  1  -0.059763  -0.000997  3.581196  -0.001  0.035818  0.001967  3.797044  0.001  0.020811  0.001753  3.824202  0.001  -0.243425  0.045849  0.001949  3.778202  0.001
N  N74  1  0.34092769  0.44517754  0.26720380  1  -0.057835  -0.001234  3.578776  -0.001  0.038001  -0.002407  3.794933  -0.002  0.023276  -0.00183  3.821613  -0.002  -0.24125  0.047629  -0.002974  3.77681  -0.003
N  N75  1  0.90539919  0.57484147  0.23566395  1  -0.059774  -0.000997  3.581283  -0.001  0.035824  0.001967  3.797136  0.001  0.020821  0.001753  3.82429  0.001  -0.243408  0.045855  0.001949  3.778288  0.001
O  O76  1  0.84033587  0.91441585  0.13478374  1  -0.630261  -0.028992  1.978656  -0.021  -0.56393  -0.035693  2.222491  -0.025  -0.593595  -0.031519  2.21147  -0.022  -0.311178  -0.542347  -0.039676  2.229518  -0.029
O  O77  1  0.93749010  0.09202370  0.37160224  1  -0.572055  -0.003157  1.986997  -0.006  -0.513918  -0.00019  2.248709  -0.001  -0.551882  0.001275  2.237994  0.0  -0.291677  -0.484281  -0.002681  2.253527  -0.004
O  O78  1  0.15966570  0.08558605  0.86521678  1  -0.630284  -0.028994  1.978654  -0.021  -0.563942  -0.035694  2.222474  -0.025  -0.593609  -0.031521  2.211459  -0.022  -0.311209  -0.542359  -0.039677  2.229503  -0.029
O  O79  1  0.06250847  0.90797689  0.62839651  1  -0.57199  -0.003157  1.987066  -0.006  -0.513858  -0.000191  2.248799  -0.001  -0.551821  0.001275  2.238084  0.0  -0.291634  -0.484221  -0.002683  2.25362  -0.004
O  O80  1  0.78845247  0.08526574  0.05207319  1  -0.630586  -0.026908  1.958519  -0.02  -0.566949  -0.034066  2.198858  -0.025  -0.596145  -0.029772  2.18927  -0.021  -0.309633  -0.545568  -0.038312  2.204808  -0.029
O  O81  1  0.73146439  0.92545893  0.45514750  1  -0.564586  -0.004269  2.01247  -0.011  -0.508141  -0.003519  2.279526  -0.007  -0.546885  -0.000936  2.269238  -0.004  -0.29338  -0.478773  -0.006587  2.284418  -0.009
O  O82  1  0.21154778  0.91473349  0.94792611  1  -0.630491  -0.026904  1.958545  -0.02  -0.566851  -0.034063  2.198881  -0.025  -0.596047  -0.029769  2.1893  -0.021  -0.309581  -0.54547  -0.038309  2.204828  -0.029
O  O83  1  0.26853369  0.07454302  0.54485379  1  -0.564568  -0.004268  2.01253  -0.011  -0.508139  -0.00352  2.279612  -0.007  -0.546883  -0.000936  2.269324  -0.004  -0.293381  -0.478769  -0.006587  2.284503  -0.009
