# generated using pymatgen
data_LiBH22(C2O)4
_symmetry_space_group_name_H-M   'P 1'
_cell_length_a   6.35526360
_cell_length_b   12.59661550
_cell_length_c   14.74496920
_cell_angle_alpha   90.00022383
_cell_angle_beta   89.99990338
_cell_angle_gamma   90.00009229
_symmetry_Int_Tables_number   1
_chemical_formula_structural   LiBH22(C2O)4
_chemical_formula_sum   'Li4 B4 H88 C32 O16'
_cell_volume   1180.40573638
_cell_formula_units_Z   4
loop_
 _symmetry_equiv_pos_site_id
 _symmetry_equiv_pos_as_xyz
  1  'x, y, z'
loop_
 _atom_site_type_symbol
 _atom_site_label
 _atom_site_symmetry_multiplicity
 _atom_site_fract_x
 _atom_site_fract_y
 _atom_site_fract_z
 _atom_site_occupancy
 _atom_site_hle17_bader_spin_density
 _atom_site_hle17_ddec_charge
 _atom_site_hle17_ddec_spin_density
 _atom_site_hle17_ddec_sum_bond_order
 _atom_site_hle17_magmom
 _atom_site_hse06_10hf_bader_spin_density
 _atom_site_hse06_10hf_ddec_charge
 _atom_site_hse06_10hf_ddec_spin_density
 _atom_site_hse06_10hf_ddec_sum_bond_order
 _atom_site_hse06_10hf_magmom
 _atom_site_hse06_bader_spin_density
 _atom_site_hse06_ddec_charge
 _atom_site_hse06_ddec_spin_density
 _atom_site_hse06_ddec_sum_bond_order
 _atom_site_hse06_magmom
 _atom_site_pbe_bader_spin_density
 _atom_site_pbe_cm5_charge
 _atom_site_pbe_ddec_charge
 _atom_site_pbe_ddec_spin_density
 _atom_site_pbe_ddec_sum_bond_order
 _atom_site_pbe_magmom
Li  Li0  1  0.49999908  0.24999952  0.53042725  1  0  0.821145  0  0.43176  0  0  0.763214  0  0.554815  0  0  0.773422  0  0.540254  0  0  0.444532  0.756093  0  0.564897  0
Li  Li1  1  0.99999873  0.75000011  0.96957361  1  0  0.821157  0  0.431742  0  0  0.763214  0  0.554821  0  0  0.773424  0  0.540256  0  0  0.444528  0.756094  0  0.564902  0
Li  Li2  1  0.49999842  0.75000035  0.46957207  1  0  0.821155  0  0.431737  0  0  0.763228  0  0.554793  0  0  0.773436  0  0.54023  0  0  0.444507  0.756108  0  0.564873  0
Li  Li3  1  0.00000034  0.24999976  0.03042707  1  0  0.821153  0  0.431747  0  0  0.763227  0  0.554796  0  0  0.773434  0  0.540234  0  0  0.444531  0.756107  0  0.564875  0
B  B4  1  0.49999940  0.24999994  0.36628788  1  0  -0.078996  0  3.700683  0  0  -0.290775  0  4.006055  0  0  -0.2838  0  4.017993  0  0  -0.61517  -0.295068  0  3.997291  0
B  B5  1  0.99999880  0.75000058  0.13371361  1  0  -0.079031  0  3.700729  0  0  -0.290809  0  4.006067  0  0  -0.283835  0  4.018004  0  0  -0.615177  -0.295102  0  3.997301  0
B  B6  1  0.49999967  0.75000073  0.63371280  1  0  -0.079045  0  3.700703  0  0  -0.290819  0  4.006046  0  0  -0.283845  0  4.017983  0  0  -0.615152  -0.295111  0  3.997279  0
B  B7  1  0.00000028  0.25000009  0.86628775  1  0  -0.079054  0  3.700638  0  0  -0.29083  0  4.005997  0  0  -0.283856  0  4.017934  0  0  -0.615169  -0.295123  0  3.99723  0
H  H8  1  0.21877392  0.45434357  0.69760064  1  0  0.065514  0  0.950648  0  0  0.081413  0  1.022196  0  0  0.082127  0  1.021693  0  0  0.091576  0.080803  0  1.022633  0
H  H9  1  0.28122826  0.95434322  0.80239991  1  0  0.065544  0  0.950579  0  0  0.081415  0  1.022153  0  0  0.082128  0  1.021652  0  0  0.091573  0.080805  0  1.022591  0
H  H10  1  0.71877200  0.54565663  0.80240043  1  0  0.065543  0  0.950588  0  0  0.081411  0  1.022166  0  0  0.082123  0  1.021666  0  0  0.091569  0.080801  0  1.022604  0
H  H11  1  0.78122673  0.04565783  0.69760044  1  0  0.065505  0  0.950589  0  0  0.081402  0  1.022136  0  0  0.082116  0  1.021634  0  0  0.09156  0.080792  0  1.022571  0
H  H12  1  0.78122673  0.54565710  0.30239936  1  0  0.065462  0  0.950628  0  0  0.081363  0  1.02218  0  0  0.082074  0  1.021684  0  0  0.091539  0.080753  0  1.022617  0
H  H13  1  0.71877239  0.04565745  0.19760077  1  0  0.065479  0  0.950611  0  0  0.081377  0  1.022171  0  0  0.082091  0  1.021668  0  0  0.09155  0.080768  0  1.022607  0
H  H14  1  0.28122707  0.45434324  0.19760093  1  0  0.065545  0  0.950588  0  0  0.081414  0  1.022172  0  0  0.082127  0  1.021671  0  0  0.091569  0.080804  0  1.022608  0
H  H15  1  0.21877235  0.95434364  0.30240024  1  0  0.065571  0  0.950568  0  0  0.081442  0  1.022144  0  0  0.082155  0  1.021644  0  0  0.091592  0.080832  0  1.022582  0
H  H16  1  0.34126581  0.33901989  0.74564934  1  0  0.084472  0  0.933002  0  0  0.104375  0  0.993138  0  0  0.104984  0  0.993219  0  0  0.099796  0.103825  0  0.993193  0
H  H17  1  0.15873758  0.83901922  0.75435083  1  0  0.08447  0  0.933018  0  0  0.104364  0  0.993161  0  0  0.104973  0  0.993241  0  0  0.099801  0.103814  0  0.993217  0
H  H18  1  0.84126288  0.66098120  0.75435096  1  0  0.084451  0  0.933045  0  0  0.104348  0  0.993182  0  0  0.104958  0  0.993261  0  0  0.099788  0.103798  0  0.993238  0
H  H19  1  0.65873623  0.16098252  0.74564892  1  0  0.084474  0  0.932991  0  0  0.104359  0  0.993143  0  0  0.104968  0  0.993224  0  0  0.099799  0.10381  0  0.993195  0
H  H20  1  0.65873641  0.66098157  0.25434999  1  0  0.084461  0  0.933012  0  0  0.104344  0  0.993173  0  0  0.104953  0  0.993255  0  0  0.09979  0.103796  0  0.993226  0
H  H21  1  0.84126307  0.16098224  0.24565053  1  0  0.084445  0  0.933027  0  0  0.104333  0  0.993184  0  0  0.104942  0  0.993264  0  0  0.099774  0.103784  0  0.993237  0
H  H22  1  0.15873620  0.33901947  0.24564972  1  0  0.084446  0  0.933038  0  0  0.104347  0  0.993179  0  0  0.104956  0  0.99326  0  0  0.099779  0.103797  0  0.993235  0
H  H23  1  0.34126285  0.83901974  0.25435108  1  0  0.084464  0  0.933038  0  0  0.104359  0  0.99318  0  0  0.104969  0  0.99326  0  0  0.099793  0.103809  0  0.993236  0
H  H24  1  0.14489644  0.32316933  0.66061021  1  0  0.106349  0  0.95292  0  0  0.11929  0  1.020055  0  0  0.120837  0  1.019289  0  0  0.110715  0.118079  0  1.020731  0
H  H25  1  0.35510375  0.82316921  0.83939059  1  0  0.106377  0  0.952896  0  0  0.119308  0  1.020041  0  0  0.120854  0  1.019276  0  0  0.110721  0.118098  0  1.020716  0
H  H26  1  0.64489637  0.67683081  0.83939159  1  0  0.106402  0  0.952915  0  0  0.11933  0  1.020064  0  0  0.120876  0  1.0193  0  0  0.110734  0.11812  0  1.020739  0
H  H27  1  0.85510278  0.17683190  0.66060903  1  0  0.106391  0  0.952908  0  0  0.119322  0  1.020058  0  0  0.12087  0  1.019292  0  0  0.110733  0.118111  0  1.020734  0
H  H28  1  0.85510264  0.67683134  0.33939115  1  0  0.106394  0  0.952887  0  0  0.119351  0  1.020019  0  0  0.1209  0  1.019248  0  0  0.110725  0.118141  0  1.020694  0
H  H29  1  0.64489690  0.17683146  0.16061009  1  0  0.106367  0  0.952918  0  0  0.119354  0  1.020022  0  0  0.120892  0  1.019262  0  0  0.110726  0.118144  0  1.020697  0
H  H30  1  0.35510428  0.32316986  0.16060977  1  0  0.106377  0  0.952961  0  0  0.119343  0  1.020069  0  0  0.120891  0  1.019301  0  0  0.110734  0.118133  0  1.020744  0
H  H31  1  0.14489629  0.82316957  0.33939097  1  0  0.106382  0  0.952955  0  0  0.119351  0  1.020057  0  0  0.120899  0  1.01929  0  0  0.110737  0.11814  0  1.020732  0
H  H32  1  0.09998918  0.35924527  0.48537221  1  0  0.057549  0  0.954262  0  0  0.068255  0  1.025734  0  0  0.068783  0  1.02549  0  0  0.107791  0.067783  0  1.026029  0
H  H33  1  0.40001622  0.85924925  0.01462729  1  0  0.05752  0  0.954219  0  0  0.068225  0  1.0257  0  0  0.068749  0  1.025454  0  0  0.107799  0.067789  0  1.025963  0
H  H34  1  0.59998240  0.64075255  0.01462686  1  0  0.057529  0  0.954279  0  0  0.068227  0  1.025751  0  0  0.068753  0  1.025506  0  0  0.107785  0.067788  0  1.026015  0
H  H35  1  0.90001544  0.14074801  0.48537223  1  0  0.057494  0  0.954229  0  0  0.068204  0  1.025685  0  0  0.068731  0  1.025441  0  0  0.107796  0.067766  0  1.02595  0
H  H36  1  0.90001461  0.64075143  0.51462643  1  0  0.057533  0  0.954209  0  0  0.068243  0  1.025688  0  0  0.068773  0  1.025444  0  0  0.107789  0.067813  0  1.025955  0
H  H37  1  0.59998757  0.14074824  0.98537271  1  0  0.05752  0  0.954145  0  0  0.068213  0  1.025642  0  0  0.068741  0  1.025397  0  0  0.107801  0.067773  0  1.025904  0
H  H38  1  0.40001352  0.35924495  0.98537315  1  0  0.057524  0  0.954259  0  0  0.068234  0  1.025725  0  0  0.06876  0  1.02548  0  0  0.107778  0.067804  0  1.025982  0
H  H39  1  0.09998363  0.85924948  0.51462709  1  0  0.057511  0  0.954242  0  0  0.068224  0  1.025704  0  0  0.068753  0  1.025459  0  0  0.107792  0.067792  0  1.025969  0
H  H40  1  0.89291627  0.32620161  0.40696953  1  0  0.064368  0  0.941876  0  0  0.076892  0  1.008211  0  0  0.077492  0  1.007512  0  0  0.10468  0.076364  0  1.008851  0
H  H41  1  0.60708375  0.82620413  0.09303017  1  0  0.064431  0  0.94184  0  0  0.076982  0  1.008136  0  0  0.07758  0  1.007434  0  0  0.104715  0.076453  0  1.008789  0
H  H42  1  0.39291615  0.67379723  0.09303068  1  0  0.06436  0  0.941864  0  0  0.076874  0  1.008197  0  0  0.077473  0  1.007496  0  0  0.104675  0.076346  0  1.008846  0
H  H43  1  0.10708080  0.17379448  0.40696889  1  0  0.0644  0  0.941865  0  0  0.076944  0  1.00816  0  0  0.077544  0  1.00746  0  0  0.104698  0.076415  0  1.008808  0
H  H44  1  0.10708753  0.67379747  0.59302708  1  0  0.064413  0  0.941831  0  0  0.076932  0  1.008167  0  0  0.077533  0  1.00747  0  0  0.104711  0.07641  0  1.008819  0
H  H45  1  0.39292005  0.17379495  0.90696983  1  0  0.064366  0  0.941844  0  0  0.076905  0  1.008152  0  0  0.077506  0  1.007453  0  0  0.104684  0.076376  0  1.008799  0
H  H46  1  0.60708450  0.32620185  0.90697000  1  0  0.064426  0  0.941886  0  0  0.076951  0  1.008196  0  0  0.077549  0  1.007496  0  0  0.104707  0.076422  0  1.008847  0
H  H47  1  0.89291198  0.82620301  0.59302772  1  0  0.064397  0  0.941859  0  0  0.076913  0  1.008188  0  0  0.077514  0  1.00749  0  0  0.104709  0.076391  0  1.008838  0
H  H48  1  0.70156469  0.46926478  0.49969367  1  0  0.064786  0  0.927174  0  0  0.076841  0  0.995649  0  0  0.078031  0  0.994433  0  0  0.108677  0.075821  0  0.996767  0
H  H49  1  0.79843735  0.96926782  0.00030584  1  0  0.064833  0  0.927052  0  0  0.076856  0  0.995569  0  0  0.078047  0  0.994351  0  0  0.108685  0.075836  0  0.996687  0
H  H50  1  0.20156448  0.53073471  0.00030464  1  0  0.064805  0  0.927176  0  0  0.076866  0  0.99565  0  0  0.078057  0  0.994433  0  0  0.108705  0.075846  0  0.996768  0
H  H51  1  0.29843673  0.03073095  0.49969648  1  0  0.064858  0  0.927076  0  0  0.076891  0  0.995598  0  0  0.078082  0  0.994381  0  0  0.108693  0.075871  0  0.996717  0
H  H52  1  0.29843596  0.53073510  0.50030497  1  0  0.064797  0  0.927198  0  0  0.076832  0  0.99572  0  0  0.078024  0  0.994504  0  0  0.108692  0.075815  0  0.996832  0
H  H53  1  0.20156172  0.03072967  0.99969552  1  0  0.064846  0  0.927095  0  0  0.076875  0  0.995623  0  0  0.078067  0  0.994405  0  0  0.108686  0.075855  0  0.996743  0
H  H54  1  0.79843617  0.46926517  0.99969400  1  0  0.064788  0  0.927127  0  0  0.076851  0  0.995626  0  0  0.078042  0  0.994411  0  0  0.108694  0.075832  0  0.996744  0
H  H55  1  0.70156234  0.96926575  0.50030624  1  0  0.064849  0  0.92709  0  0  0.0769  0  0.995589  0  0  0.078092  0  0.994372  0  0  0.108699  0.07588  0  0.996708  0
H  H56  1  0.91112626  0.47294223  0.58102643  1  0  0.052175  0  0.934784  0  0  0.068764  0  1.001648  0  0  0.068332  0  1.002412  0  0  0.104446  0.068991  0  1.001177  0
H  H57  1  0.58887541  0.97294464  0.91897383  1  0  0.052127  0  0.93485  0  0  0.068752  0  1.001675  0  0  0.06832  0  1.002435  0  0  0.104459  0.068979  0  1.001203  0
H  H58  1  0.41112597  0.52705495  0.91897383  1  0  0.052175  0  0.934761  0  0  0.068764  0  1.001638  0  0  0.068334  0  1.002402  0  0  0.104457  0.068992  0  1.001168  0
H  H59  1  0.08887484  0.02705466  0.58102666  1  0  0.052211  0  0.934787  0  0  0.068814  0  1.001648  0  0  0.068384  0  1.002413  0  0  0.104481  0.069041  0  1.001178  0
H  H60  1  0.08887596  0.52705447  0.41897154  1  0  0.052272  0  0.934814  0  0  0.068882  0  1.001662  0  0  0.068453  0  1.002423  0  0  0.104505  0.069109  0  1.00119  0
H  H61  1  0.41112209  0.02705444  0.08102753  1  0  0.052254  0  0.934774  0  0  0.068848  0  1.001633  0  0  0.068418  0  1.002396  0  0  0.104491  0.069075  0  1.001161  0
H  H62  1  0.58887468  0.47294254  0.08102753  1  0  0.052155  0  0.934765  0  0  0.068756  0  1.001637  0  0  0.068325  0  1.002401  0  0  0.104454  0.068984  0  1.001166  0
H  H63  1  0.91112423  0.97294601  0.41897266  1  0  0.052216  0  0.934788  0  0  0.068816  0  1.001644  0  0  0.068386  0  1.002408  0  0  0.104477  0.069043  0  1.001173  0
H  H64  1  0.67941247  0.40018239  0.69984861  1  0  0.057223  0  0.929181  0  0  0.068098  0  0.996974  0  0  0.069153  0  0.995664  0  0  0.102367  0.067218  0  0.998085  0
H  H65  1  0.82058897  0.90018206  0.80015208  1  0  0.057233  0  0.929191  0  0  0.068104  0  0.996966  0  0  0.069159  0  0.995659  0  0  0.10237  0.067221  0  0.998077  0
H  H66  1  0.17941288  0.59981858  0.80015113  1  0  0.057235  0  0.929192  0  0  0.068091  0  0.996975  0  0  0.069147  0  0.995664  0  0  0.102359  0.067212  0  0.998085  0
H  H67  1  0.32058817  0.09981902  0.69984960  1  0  0.057253  0  0.929156  0  0  0.068102  0  0.996919  0  0  0.069157  0  0.995608  0  0  0.102362  0.067223  0  0.99803  0
H  H68  1  0.32059132  0.59981908  0.30015004  1  0  0.057254  0  0.929141  0  0  0.068084  0  0.996936  0  0  0.069139  0  0.995626  0  0  0.102367  0.067204  0  0.998048  0
H  H69  1  0.17941011  0.09981861  0.19984928  1  0  0.057259  0  0.929172  0  0  0.068085  0  0.996956  0  0  0.069137  0  0.99565  0  0  0.102362  0.067205  0  0.998068  0
H  H70  1  0.82058934  0.40018209  0.19984955  1  0  0.057258  0  0.92916  0  0  0.068107  0  0.996951  0  0  0.069163  0  0.995637  0  0  0.102369  0.067228  0  0.998062  0
H  H71  1  0.67940933  0.90018244  0.30015041  1  0  0.057278  0  0.929133  0  0  0.068109  0  0.996935  0  0  0.069166  0  0.995617  0  0  0.102375  0.067226  0  0.998051  0
H  H72  1  0.56709169  0.51906813  0.65128110  1  0  0.07119  0  0.936232  0  0  0.087433  0  0.995467  0  0  0.086984  0  0.996963  0  0  0.10805  0.087683  0  0.994471  0
H  H73  1  0.93291168  0.01906855  0.84871900  1  0  0.071197  0  0.936212  0  0  0.087402  0  0.995456  0  0  0.086954  0  0.996953  0  0  0.108054  0.087653  0  0.994458  0
H  H74  1  0.06708995  0.48093274  0.84871872  1  0  0.071201  0  0.936247  0  0  0.0874  0  0.995494  0  0  0.086952  0  0.996991  0  0  0.108047  0.087653  0  0.994498  0
H  H75  1  0.43290917  0.98093341  0.65128192  1  0  0.071215  0  0.936248  0  0  0.087393  0  0.995497  0  0  0.086945  0  0.996994  0  0  0.10804  0.087646  0  0.994501  0
H  H76  1  0.43291211  0.48093254  0.34871687  1  0  0.0712  0  0.936223  0  0  0.087396  0  0.995457  0  0  0.086947  0  0.996954  0  0  0.108041  0.087648  0  0.994462  0
H  H77  1  0.06708740  0.98093370  0.15128304  1  0  0.071194  0  0.936239  0  0  0.087375  0  0.99548  0  0  0.086926  0  0.996977  0  0  0.108036  0.087628  0  0.994484  0
H  H78  1  0.93290912  0.51906872  0.15128128  1  0  0.071182  0  0.936236  0  0  0.087378  0  0.995495  0  0  0.08693  0  0.996991  0  0  0.108037  0.08763  0  0.994499  0
H  H79  1  0.56708834  0.01906885  0.34871876  1  0  0.071217  0  0.93621  0  0  0.087414  0  0.995448  0  0  0.086964  0  0.996944  0  0  0.108048  0.087665  0  0.994451  0
H  H80  1  0.41069706  0.31638531  0.41439460  1  0  -0.209721  0  1.082307  0  0  -0.147923  0  1.174369  0  0  -0.151191  0  1.176068  0  0  0.014804  -0.14572  0  1.173121  0
H  H81  1  0.08930349  0.81638540  0.08560680  1  0  -0.209749  0  1.082363  0  0  -0.147937  0  1.174402  0  0  -0.151204  0  1.176101  0  0  0.014789  -0.145735  0  1.173158  0
H  H82  1  0.91069643  0.68361594  0.08560628  1  0  -0.20972  0  1.082307  0  0  -0.147926  0  1.174383  0  0  -0.151194  0  1.176082  0  0  0.014803  -0.145725  0  1.173139  0
H  H83  1  0.58930313  0.18361479  0.41439431  1  0  -0.209729  0  1.082314  0  0  -0.147927  0  1.174366  0  0  -0.151194  0  1.176065  0  0  0.014796  -0.145725  0  1.173123  0
H  H84  1  0.58930359  0.68361536  0.58560540  1  0  -0.20972  0  1.082309  0  0  -0.147928  0  1.174388  0  0  -0.151195  0  1.176086  0  0  0.014794  -0.145726  0  1.173144  0
H  H85  1  0.91069716  0.18361527  0.91439456  1  0  -0.209716  0  1.08231  0  0  -0.147911  0  1.174359  0  0  -0.151179  0  1.176058  0  0  0.014802  -0.145709  0  1.173114  0
H  H86  1  0.08930264  0.31638553  0.91439508  1  0  -0.209724  0  1.082293  0  0  -0.147925  0  1.174353  0  0  -0.151192  0  1.176053  0  0  0.014794  -0.145724  0  1.173111  0
H  H87  1  0.41069595  0.81638508  0.58560637  1  0  -0.209738  0  1.082331  0  0  -0.147931  0  1.174378  0  0  -0.151198  0  1.176076  0  0  0.01479  -0.14573  0  1.173134  0
H  H88  1  0.36970585  0.20442563  0.31888999  1  0  -0.171108  0  1.040525  0  0  -0.107938  0  1.12829  0  0  -0.11205  0  1.130843  0  0  0.00544  -0.105095  0  1.126398  0
H  H89  1  0.13029277  0.70442619  0.18111036  1  0  -0.171081  0  1.040485  0  0  -0.107905  0  1.128238  0  0  -0.112018  0  1.130791  0  0  0.005447  -0.105063  0  1.126347  0
H  H90  1  0.86970678  0.79557558  0.18111092  1  0  -0.171077  0  1.040462  0  0  -0.107917  0  1.128249  0  0  -0.11203  0  1.130801  0  0  0.005433  -0.105075  0  1.126357  0
H  H91  1  0.63029314  0.29557482  0.31889072  1  0  -0.171113  0  1.040509  0  0  -0.107943  0  1.128275  0  0  -0.112056  0  1.130827  0  0  0.005425  -0.105102  0  1.126387  0
H  H92  1  0.63029323  0.79557504  0.68111001  1  0  -0.171087  0  1.040512  0  0  -0.107916  0  1.128269  0  0  -0.112029  0  1.130822  0  0  0.005433  -0.105074  0  1.126377  0
H  H93  1  0.86970630  0.29557527  0.81889032  1  0  -0.171084  0  1.040469  0  0  -0.107919  0  1.128234  0  0  -0.112031  0  1.130786  0  0  0.00543  -0.105077  0  1.126344  0
H  H94  1  0.13029387  0.20442589  0.81889044  1  0  -0.171093  0  1.040503  0  0  -0.107926  0  1.128269  0  0  -0.112039  0  1.130822  0  0  0.005437  -0.105083  0  1.126375  0
H  H95  1  0.36970594  0.70442585  0.68110996  1  0  -0.171086  0  1.040493  0  0  -0.107917  0  1.128255  0  0  -0.11203  0  1.130808  0  0  0.005434  -0.105075  0  1.126364  0
C  C96  1  0.27501382  0.37334799  0.68318269  1  0  -0.069499  0  3.634066  0  0  -0.15969  0  3.898145  0  0  -0.154632  0  3.902222  0  0  -0.139301  -0.162934  0  3.895404  0
C  C97  1  0.22498810  0.87334766  0.81681827  1  0  -0.069515  0  3.633962  0  0  -0.159679  0  3.898059  0  0  -0.154618  0  3.902132  0  0  -0.139309  -0.162922  0  3.895315  0
C  C98  1  0.77501210  0.62665226  0.81681766  1  0  -0.069532  0  3.634008  0  0  -0.159699  0  3.898103  0  0  -0.154638  0  3.902176  0  0  -0.139294  -0.162942  0  3.895361  0
C  C99  1  0.72498532  0.12665334  0.68318211  1  0  -0.069541  0  3.633968  0  0  -0.159715  0  3.89806  0  0  -0.154656  0  3.902136  0  0  -0.139312  -0.162959  0  3.895316  0
C  C100  1  0.72498841  0.62665268  0.31681731  1  0  -0.069433  0  3.633999  0  0  -0.159639  0  3.898087  0  0  -0.15458  0  3.902165  0  0  -0.139234  -0.162883  0  3.895345  0
C  C101  1  0.77501412  0.12665380  0.18318309  1  0  -0.069448  0  3.634039  0  0  -0.159681  0  3.898132  0  0  -0.154613  0  3.902217  0  0  -0.139272  -0.162925  0  3.895388  0
C  C102  1  0.22498855  0.37334762  0.18318234  1  0  -0.069517  0  3.634097  0  0  -0.159719  0  3.898187  0  0  -0.154661  0  3.902264  0  0  -0.139304  -0.162962  0  3.895444  0
C  C103  1  0.27501219  0.87334813  0.31681789  1  0  -0.069563  0  3.634055  0  0  -0.159758  0  3.898151  0  0  -0.1547  0  3.902228  0  0  -0.139337  -0.163001  0  3.895408  0
C  C104  1  0.96412165  0.30695535  0.47312356  1  0  0.056031  0  3.634706  0  0  -0.001749  0  3.898613  0  0  0.004352  0  3.904421  0  0  -0.064785  -0.005838  0  3.89475  0
C  C105  1  0.53587673  0.80695672  0.02687676  1  0  0.056066  0  3.634653  0  0  -0.001735  0  3.898524  0  0  0.004376  0  3.904317  0  0  -0.064784  -0.005856  0  3.89467  0
C  C106  1  0.46412343  0.69304435  0.02687727  1  0  0.056165  0  3.63467  0  0  -0.001587  0  3.898498  0  0  0.004519  0  3.904294  0  0  -0.064721  -0.005702  0  3.894642  0
C  C107  1  0.03587830  0.19304184  0.47312303  1  0  0.056131  0  3.634658  0  0  -0.001589  0  3.898474  0  0  0.004516  0  3.904279  0  0  -0.064736  -0.005709  0  3.894608  0
C  C108  1  0.03587585  0.69304452  0.52687440  1  0  0.056021  0  3.634666  0  0  -0.001755  0  3.898553  0  0  0.004339  0  3.90438  0  0  -0.064817  -0.005904  0  3.894751  0
C  C109  1  0.46412235  0.19304236  0.97312392  1  0  0.056186  0  3.634438  0  0  -0.001518  0  3.898229  0  0  0.004581  0  3.904042  0  0  -0.064702  -0.00563  0  3.894369  0
C  C110  1  0.53588037  0.30695474  0.97312341  1  0  0.05597  0  3.634775  0  0  -0.001795  0  3.898637  0  0  0.004315  0  3.904435  0  0  -0.064785  -0.005921  0  3.894782  0
C  C111  1  0.96412234  0.80695645  0.52687426  1  0  0.056182  0  3.634665  0  0  -0.00156  0  3.898512  0  0  0.004539  0  3.904334  0  0  -0.064753  -0.005701  0  3.894699  0
C  C112  1  0.76604335  0.43082208  0.56107384  1  0  0.052882  0  3.670992  0  0  -0.011267  0  3.948578  0  0  -0.004976  0  3.954118  0  0  -0.067777  -0.015435  0  3.944701  0
C  C113  1  0.73395976  0.93082390  0.93892627  1  0  0.053007  0  3.670866  0  0  -0.011173  0  3.948415  0  0  -0.004877  0  3.953952  0  0  -0.067763  -0.015337  0  3.944536  0
C  C114  1  0.26604154  0.56917737  0.93892584  1  0  0.053011  0  3.670935  0  0  -0.011201  0  3.94852  0  0  -0.004913  0  3.954065  0  0  -0.067743  -0.015365  0  3.944648  0
C  C115  1  0.23395941  0.06917552  0.56107479  1  0  0.052901  0  3.670935  0  0  -0.011313  0  3.948586  0  0  -0.005025  0  3.95413  0  0  -0.067757  -0.015478  0  3.944713  0
C  C116  1  0.23395730  0.56917621  0.43892345  1  0  0.052842  0  3.671025  0  0  -0.011421  0  3.94875  0  0  -0.005132  0  3.954291  0  0  -0.067823  -0.015586  0  3.944873  0
C  C117  1  0.26604088  0.06917518  0.06107577  1  0  0.052797  0  3.671009  0  0  -0.011384  0  3.948635  0  0  -0.005095  0  3.954173  0  0  -0.067786  -0.015547  0  3.944761  0
C  C118  1  0.73395754  0.43082251  0.06107484  1  0  0.053124  0  3.670734  0  0  -0.011104  0  3.948391  0  0  -0.004818  0  3.953936  0  0  -0.067695  -0.01527  0  3.94452  0
C  C119  1  0.76604124  0.93082436  0.43892454  1  0  0.052869  0  3.670929  0  0  -0.01135  0  3.94856  0  0  -0.005062  0  3.954102  0  0  -0.067786  -0.015516  0  3.94468  0
C  C120  1  0.61047137  0.43561872  0.63797674  1  0  0.046994  0  3.654264  0  0  -0.006631  0  3.918594  0  0  -0.000921  0  3.924474  0  0  -0.069012  -0.010457  0  3.914578  0
C  C121  1  0.88952861  0.93561952  0.86202406  1  0  0.046904  0  3.654316  0  0  -0.006649  0  3.918604  0  0  -0.000943  0  3.924488  0  0  -0.069053  -0.010472  0  3.914579  0
C  C122  1  0.11047142  0.56438219  0.86202305  1  0  0.046864  0  3.654431  0  0  -0.006656  0  3.918682  0  0  -0.000947  0  3.924566  0  0  -0.06904  -0.010488  0  3.914671  0
C  C123  1  0.38952794  0.06438240  0.63797892  1  0  0.046832  0  3.654322  0  0  -0.006593  0  3.91847  0  0  -0.000884  0  3.924351  0  0  -0.069006  -0.010432  0  3.914463  0
C  C124  1  0.38952770  0.56438116  0.36202190  1  0  0.046929  0  3.654262  0  0  -0.006516  0  3.918458  0  0  -0.000804  0  3.924338  0  0  -0.068998  -0.010348  0  3.914448  0
C  C125  1  0.11047047  0.06438194  0.13797797  1  0  0.046885  0  3.6544  0  0  -0.006518  0  3.918515  0  0  -0.000805  0  3.924391  0  0  -0.069001  -0.010351  0  3.914501  0
C  C126  1  0.88952923  0.43561848  0.13797695  1  0  0.046841  0  3.654366  0  0  -0.006666  0  3.918629  0  0  -0.000952  0  3.924504  0  0  -0.069047  -0.010497  0  3.914617  0
C  C127  1  0.61047114  0.93561985  0.36202312  1  0  0.046829  0  3.654366  0  0  -0.006645  0  3.918584  0  0  -0.000929  0  3.924456  0  0  -0.069042  -0.010471  0  3.914562  0
O  O128  1  0.81029629  0.32140934  0.54370568  1  0  -0.352257  0  2.306199  0  0  -0.276913  0  2.558385  0  0  -0.292592  0  2.560437  0  0  -0.248903  -0.265947  0  2.556713  0
O  O129  1  0.68970490  0.82141041  0.95629406  1  0  -0.352349  0  2.306163  0  0  -0.276979  0  2.558351  0  0  -0.292663  0  2.560398  0  0  -0.248929  -0.266021  0  2.556697  0
O  O130  1  0.31029476  0.67859094  0.95629328  1  0  -0.352376  0  2.306161  0  0  -0.276983  0  2.558335  0  0  -0.292663  0  2.560386  0  0  -0.24896  -0.266025  0  2.556683  0
O  O131  1  0.18970496  0.17858897  0.54370431  1  0  -0.352284  0  2.306181  0  0  -0.277004  0  2.558471  0  0  -0.292683  0  2.560526  0  0  -0.248976  -0.266039  0  2.556807  0
O  O132  1  0.18969807  0.67859054  0.45628889  1  0  -0.352331  0  2.30606  0  0  -0.276947  0  2.558289  0  0  -0.292621  0  2.560347  0  0  -0.248927  -0.265972  0  2.55664  0
O  O133  1  0.31029575  0.17858867  0.04370662  1  0  -0.352254  0  2.30612  0  0  -0.277011  0  2.558423  0  0  -0.292688  0  2.560476  0  0  -0.248981  -0.266056  0  2.556767  0
O  O134  1  0.68970431  0.32140973  0.04370604  1  0  -0.352369  0  2.306117  0  0  -0.277025  0  2.558367  0  0  -0.292703  0  2.560416  0  0  -0.248985  -0.266066  0  2.556719  0
O  O135  1  0.81030198  0.82141011  0.45628891  1  0  -0.352324  0  2.306112  0  0  -0.276987  0  2.558374  0  0  -0.292667  0  2.56043  0  0  -0.248916  -0.266017  0  2.556721  0
O  O136  1  0.42819879  0.37564851  0.61197598  1  0  -0.348077  0  2.346637  0  0  -0.275516  0  2.608711  0  0  -0.289575  0  2.608618  0  0  -0.283263  -0.2657  0  2.608528  0
O  O137  1  0.07180156  0.87564838  0.88802499  1  0  -0.348104  0  2.346605  0  0  -0.275565  0  2.60865  0  0  -0.289626  0  2.608555  0  0  -0.283256  -0.265751  0  2.608467  0
O  O138  1  0.92819994  0.62435266  0.88802426  1  0  -0.348066  0  2.346634  0  0  -0.275524  0  2.608677  0  0  -0.289583  0  2.60858  0  0  -0.283266  -0.265707  0  2.608498  0
O  O139  1  0.57179904  0.12435170  0.61197551  1  0  -0.348023  0  2.346569  0  0  -0.275506  0  2.608586  0  0  -0.289565  0  2.60849  0  0  -0.283263  -0.265687  0  2.608408  0
O  O140  1  0.57180186  0.62435216  0.38802335  1  0  -0.348122  0  2.346622  0  0  -0.275584  0  2.608651  0  0  -0.289644  0  2.608556  0  0  -0.283307  -0.265768  0  2.608473  0
O  O141  1  0.92819909  0.12435229  0.11197637  1  0  -0.348053  0  2.346708  0  0  -0.275532  0  2.608738  0  0  -0.289593  0  2.60864  0  0  -0.283246  -0.265716  0  2.608558  0
O  O142  1  0.07180228  0.37564801  0.11197642  1  0  -0.348076  0  2.34669  0  0  -0.275522  0  2.608725  0  0  -0.289582  0  2.608631  0  0  -0.28325  -0.265705  0  2.608546  0
O  O143  1  0.42819846  0.87564897  0.38802450  1  0  -0.348053  0  2.346649  0  0  -0.275514  0  2.608672  0  0  -0.289575  0  2.608576  0  0  -0.283249  -0.265697  0  2.60849  0
