# generated using pymatgen
data_Zn4H7C13N3O13
_symmetry_space_group_name_H-M   'P 1'
_cell_length_a   10.83639390
_cell_length_b   10.88000919
_cell_length_c   10.92234888
_cell_angle_alpha   85.89590851
_cell_angle_beta   81.55040835
_cell_angle_gamma   82.24955232
_symmetry_Int_Tables_number   1
_chemical_formula_structural   Zn4H7C13N3O13
_chemical_formula_sum   'Zn4 H7 C13 N3 O13'
_cell_volume   1260.37103658
_cell_formula_units_Z   1
loop_
 _symmetry_equiv_pos_site_id
 _symmetry_equiv_pos_as_xyz
  1  'x, y, z'
loop_
 _atom_site_type_symbol
 _atom_site_label
 _atom_site_symmetry_multiplicity
 _atom_site_fract_x
 _atom_site_fract_y
 _atom_site_fract_z
 _atom_site_occupancy
 _atom_site_pbe_bader_charge
 _atom_site_pbe_bader_spin_density
 _atom_site_pbe_cm5_charge
 _atom_site_pbe_ddec_charge
 _atom_site_pbe_ddec_spin_density
 _atom_site_pbe_ddec_sum_bond_order
 _atom_site_pbe_magmom
Zn  Zn0  1  0.59143864  0.37827892  0.60978710  1  1.320909  0  0.682512  0.975758  0  2.34486  0
Zn  Zn1  1  0.61168949  0.58662040  0.38878210  1  1.322198  0  0.678637  0.969506  0  2.358161  0
Zn  Zn2  1  0.37701743  0.61981065  0.60619794  1  1.318851  0  0.680216  0.979132  0  2.322035  0
Zn  Zn3  1  0.40656999  0.40534395  0.41205162  1  1.30418  0  0.66658  0.949218  0  2.402271  0
H  H4  1  0.49117255  0.99083099  0.63025424  1  0.11148  0  0.110326  0.156212  0  0.998463  0
H  H5  1  0.97713566  0.65081292  0.51533406  1  0.109496  0  0.123018  0.145398  0  0.963856  0
H  H6  1  0.01302105  0.36453603  0.50530947  1  0.132419  0  0.122278  0.143073  0  0.964751  0
H  H7  1  0.48734531  0.94333851  0.25789120  1  0.455698  0  0.321308  0.320165  0  0.927167  0
H  H8  1  0.47341322  0.09884992  0.30197795  1  0.493022  0  0.311815  0.324782  0  0.948753  0
H  H9  1  0.30834751  0.48311142  0.12175622  1  0.495649  0  0.317361  0.330994  0  0.946827  0
H  H10  1  0.25662793  0.50413494  0.97325635  1  0.490911  0  0.33437  0.33256  0  0.900947  0
C  C11  1  0.53249863  0.49428176  0.17499272  1  1.48902  0  0.217015  0.615661  0  4.177125  0
C  C12  1  0.48374932  0.03726739  0.53977568  1  0.060728  0  -0.137791  -0.410577  0  3.919455  0
C  C13  1  0.47662206  0.96633623  0.44246720  1  0.439737  0  0.117451  0.229932  0  4.070844  0
C  C14  1  0.44482371  0.49682312  0.97500146  1  0.489359  0  0.14222  0.210785  0  3.997672  0
C  C15  1  0.66804936  0.51343314  0.97519532  1  0.860622  0  0.15131  0.272355  0  4.123755  0
C  C16  1  0.54671774  0.49783278  0.03918901  1  0.148434  0  -0.038027  -0.248737  0  4.032052  0
C  C17  1  0.02561781  0.55636889  0.50983823  1  0.00364  0  -0.071979  -0.171922  0  3.867409  0
C  C18  1  0.96370795  0.45883093  0.50365849  1  -0.054587  0  -0.066687  -0.155444  0  3.861819  0
C  C19  1  0.46190543  0.50400667  0.83441946  1  1.689264  0  0.24306  0.575813  0  4.162258  0
C  C20  1  0.82605169  0.47089780  0.50201718  1  1.579154  0  0.232096  0.653038  0  4.141989  0
C  C21  1  0.16296342  0.53885162  0.51554722  1  1.561897  0  0.226819  0.648779  0  4.153654  0
C  C22  1  0.48263496  0.82729834  0.46524992  1  1.609909  0  0.238714  0.577341  0  4.137139  0
C  C23  1  0.49360472  0.16843562  0.52668851  1  1.436861  0  0.204261  0.657372  0  4.16991  0
N  N24  1  0.46989732  0.00678613  0.32377385  1  -1.246669  0  -0.564787  -0.557617  0  3.351795  0
N  N25  1  0.32616263  0.49029506  0.02734634  1  -1.243156  0  -0.544073  -0.527728  0  3.350243  0
N  N26  1  0.76903492  0.52751738  0.92625939  1  -1.134133  0  -0.350147  -0.405641  0  2.67928  0
O  O27  1  0.49478517  0.50104833  0.50832741  1  -1.227979  0  -0.578493  -1.041195  0  2.560272  0
O  O28  1  0.53707840  0.76326701  0.37446039  1  -1.174995  0  -0.311739  -0.543185  0  2.303204  0
O  O29  1  0.47080657  0.22875424  0.42313921  1  -1.178671  0  -0.333521  -0.58629  0  2.301544  0
O  O30  1  0.43336684  0.78650904  0.57050600  1  -1.162963  0  -0.301242  -0.521409  0  2.304602  0
O  O31  1  0.52555299  0.21952600  0.61819752  1  -1.169939  0  -0.333759  -0.566109  0  2.271255  0
O  O32  1  0.77173951  0.37869785  0.55159504  1  -1.156935  0  -0.310481  -0.540175  0  2.269227  0
O  O33  1  0.22595883  0.43938772  0.47306380  1  -1.183538  0  -0.319758  -0.557231  0  2.314044  0
O  O34  1  0.62539958  0.51773790  0.22542082  1  -1.162618  0  -0.317677  -0.541987  0  2.310519  0
O  O35  1  0.37587286  0.57390689  0.78566934  1  -1.162859  0  -0.307194  -0.533554  0  2.292734  0
O  O36  1  0.42652656  0.46770886  0.23586533  1  -1.180539  0  -0.321915  -0.571295  0  2.327622  0
O  O37  1  0.55611897  0.43738530  0.78148448  1  -1.161156  0  -0.284297  -0.49718  0  2.349108  0
O  O38  1  0.77439322  0.56986197  0.45039312  1  -1.165993  0  -0.313002  -0.544766  0  2.282195  0
O  O39  1  0.20626145  0.62587873  0.56249223  1  -1.15671  0  -0.314799  -0.545829  0  2.26235  0
