# generated using pymatgen
data_BaP2H12C5Cl2O11
_symmetry_space_group_name_H-M   'P 1'
_cell_length_a   7.56045000
_cell_length_b   8.74611501
_cell_length_c   13.33339320
_cell_angle_alpha   79.13965377
_cell_angle_beta   73.55051391
_cell_angle_gamma   64.40277765
_symmetry_Int_Tables_number   1
_chemical_formula_structural   BaP2H12C5Cl2O11
_chemical_formula_sum   'Ba2 P4 H24 C10 Cl4 O22'
_cell_volume   760.35913942
_cell_formula_units_Z   2
loop_
 _symmetry_equiv_pos_site_id
 _symmetry_equiv_pos_as_xyz
  1  'x, y, z'
loop_
 _atom_site_type_symbol
 _atom_site_label
 _atom_site_symmetry_multiplicity
 _atom_site_fract_x
 _atom_site_fract_y
 _atom_site_fract_z
 _atom_site_occupancy
 _atom_site_hle17_bader_spin_density
 _atom_site_hle17_ddec_charge
 _atom_site_hle17_ddec_spin_density
 _atom_site_hle17_ddec_sum_bond_order
 _atom_site_hle17_magmom
 _atom_site_hse06_10hf_bader_spin_density
 _atom_site_hse06_10hf_ddec_charge
 _atom_site_hse06_10hf_ddec_spin_density
 _atom_site_hse06_10hf_ddec_sum_bond_order
 _atom_site_hse06_10hf_magmom
 _atom_site_hse06_bader_spin_density
 _atom_site_hse06_ddec_charge
 _atom_site_hse06_ddec_spin_density
 _atom_site_hse06_ddec_sum_bond_order
 _atom_site_hse06_magmom
 _atom_site_pbe_bader_spin_density
 _atom_site_pbe_cm5_charge
 _atom_site_pbe_ddec_charge
 _atom_site_pbe_ddec_spin_density
 _atom_site_pbe_ddec_sum_bond_order
 _atom_site_pbe_magmom
Ba  Ba0  1  0.29143744  0.47384742  0.94328084  1  0  1.705222  0  1.106818  0  0  1.574731  0  1.49899  0  0  1.611748  0  1.454472  0  0  0.957898  1.547456  0  1.530707  0
Ba  Ba1  1  0.70856308  0.52615236  0.05671934  1  0  1.705199  0  1.106842  0  0  1.574694  0  1.499032  0  0  1.61171  0  1.454513  0  0  0.957878  1.547418  0  1.530749  0
P  P2  1  0.06627215  0.08944037  0.77779817  1  0  1.390545  0  4.775585  0  0  1.215486  0  5.293537  0  0  1.267503  0  5.257119  0  0  0.383515  1.179543  0  5.317833  0
P  P3  1  0.93371912  0.91056196  0.22220305  1  0  1.39049  0  4.775653  0  0  1.215383  0  5.29362  0  0  1.267426  0  5.257213  0  0  0.383509  1.179475  0  5.31791  0
P  P4  1  0.86821037  0.47886651  0.78463865  1  0  1.382851  0  4.904008  0  0  1.222372  0  5.409643  0  0  1.275104  0  5.372905  0  0  0.354912  1.185865  0  5.434001  0
P  P5  1  0.13178402  0.52113327  0.21536216  1  0  1.382955  0  4.903923  0  0  1.222477  0  5.409547  0  0  1.275206  0  5.372815  0  0  0.354952  1.185971  0  5.433909  0
H  H6  1  0.62317724  0.15355805  0.80881746  1  0  0.429266  0  0.870788  0  0  0.398155  0  0.935421  0  0  0.407805  0  0.921206  0  0  0.291685  0.391292  0  0.945534  0
H  H7  1  0.58552865  0.84654755  0.19117255  1  0  0.428619  0  0.871611  0  0  0.397365  0  0.936439  0  0  0.406972  0  0.922294  0  0  0.291736  0.390557  0  0.946464  0
H  H8  1  0.37682504  0.84644046  0.19118301  1  0  0.429262  0  0.870792  0  0  0.398146  0  0.935429  0  0  0.407796  0  0.921213  0  0  0.291682  0.391283  0  0.945541  0
H  H9  1  0.41447419  0.15345222  0.80882808  1  0  0.428605  0  0.871638  0  0  0.397362  0  0.936448  0  0  0.406962  0  0.922314  0  0  0.291739  0.390545  0  0.946486  0
H  H10  1  0.87846111  0.85047827  0.92259741  1  0  0.445581  0  0.835637  0  0  0.415461  0  0.897728  0  0  0.424979  0  0.883702  0  0  0.311935  0.408725  0  0.907653  0
H  H11  1  0.65151043  0.14948916  0.07738224  1  0  0.443951  0  0.838534  0  0  0.413814  0  0.900206  0  0  0.423341  0  0.886167  0  0  0.310949  0.407084  0  0.910118  0
H  H12  1  0.12153881  0.14952278  0.07740271  1  0  0.445574  0  0.835654  0  0  0.415453  0  0.897742  0  0  0.424972  0  0.883715  0  0  0.31193  0.408716  0  0.907669  0
H  H13  1  0.34849186  0.85050935  0.92261822  1  0  0.443951  0  0.83857  0  0  0.413833  0  0.900183  0  0  0.423355  0  0.886152  0  0  0.310952  0.407097  0  0.910105  0
H  H14  1  0.86546100  0.82608652  0.04386535  1  0  0.427309  0  0.872436  0  0  0.398437  0  0.932332  0  0  0.408469  0  0.917487  0  0  0.304047  0.391329  0  0.942853  0
H  H15  1  0.73537703  0.17391081  0.95611949  1  0  0.426413  0  0.873606  0  0  0.397616  0  0.933378  0  0  0.407649  0  0.918543  0  0  0.30369  0.390472  0  0.943949  0
H  H16  1  0.13453952  0.17391326  0.95613484  1  0  0.427297  0  0.872456  0  0  0.398433  0  0.93234  0  0  0.408459  0  0.917504  0  0  0.304042  0.391316  0  0.942875  0
H  H17  1  0.26462390  0.82608897  0.04388167  1  0  0.426438  0  0.873568  0  0  0.397642  0  0.933341  0  0  0.407675  0  0.918505  0  0  0.303706  0.390498  0  0.943911  0
H  H18  1  0.34132946  0.79420477  0.52292019  1  0  0.145411  0  0.952833  0  0  0.16455  0  1.00951  0  0  0.166615  0  1.009196  0  0  0.096221  0.162992  0  1.00987  0
H  H19  1  0.65867086  0.20579628  0.47708090  1  0  0.145406  0  0.952865  0  0  0.164541  0  1.009538  0  0  0.166606  0  1.009226  0  0  0.096214  0.162985  0  1.009896  0
H  H20  1  0.27507899  0.62236817  0.59351855  1  0  0.154052  0  0.947179  0  0  0.167506  0  1.01451  0  0  0.170141  0  1.013498  0  0  0.101469  0.165577  0  1.015304  0
H  H21  1  0.49123468  0.37754387  0.40640475  1  0  0.153818  0  0.947465  0  0  0.16702  0  1.01494  0  0  0.169677  0  1.013888  0  0  0.101179  0.165074  0  1.015759  0
H  H22  1  0.72492189  0.37763415  0.40648270  1  0  0.154062  0  0.947146  0  0  0.167529  0  1.014461  0  0  0.170164  0  1.013449  0  0  0.101475  0.165602  0  1.015254  0
H  H23  1  0.50876565  0.62245718  0.59359634  1  0  0.153786  0  0.947471  0  0  0.167014  0  1.014927  0  0  0.169673  0  1.013875  0  0  0.101231  0.165068  0  1.015746  0
H  H24  1  0.79824777  0.85844707  0.54502436  1  0  0.136919  0  0.979507  0  0  0.143762  0  1.057349  0  0  0.147018  0  1.055544  0  0  0.084421  0.141376  0  1.058681  0
H  H25  1  0.20175143  0.14154888  0.45497362  1  0  0.136948  0  0.979512  0  0  0.143799  0  1.057337  0  0  0.147068  0  1.055521  0  0  0.084443  0.141414  0  1.058669  0
H  H26  1  0.80332328  0.00520064  0.62134891  1  0  0.144109  0  0.955537  0  0  0.157755  0  1.023841  0  0  0.160413  0  1.02283  0  0  0.096829  0.1558  0  1.024637  0
H  H27  1  0.42990040  0.99460474  0.37880911  1  0  0.14325  0  0.956274  0  0  0.156875  0  1.024612  0  0  0.159545  0  1.023581  0  0  0.096276  0.154922  0  1.025416  0
H  H28  1  0.19667681  0.99479658  0.37864752  1  0  0.144125  0  0.955553  0  0  0.15777  0  1.023856  0  0  0.160429  0  1.022846  0  0  0.096831  0.155816  0  1.02465  0
H  H29  1  0.57010010  0.00539249  0.62118829  1  0  0.143261  0  0.956298  0  0  0.15691  0  1.024601  0  0  0.15958  0  1.023569  0  0  0.096288  0.154958  0  1.025405  0
C  C30  1  0.00207042  0.29846828  0.69721242  1  0  -0.292992  0  3.503817  0  0  -0.248976  0  3.779121  0  0  -0.256216  0  3.783945  0  0  0.040399  -0.245022  0  3.777412  0
C  C31  1  0.99792874  0.70153277  0.30278845  1  0  -0.292917  0  3.50378  0  0  -0.248966  0  3.779201  0  0  -0.256201  0  3.784018  0  0  0.040409  -0.245013  0  3.777492  0
C  C32  1  0.25662981  0.79458394  0.69181745  1  0  0.777149  0  3.668774  0  0  0.738671  0  3.952553  0  0  0.77143  0  3.94313  0  0  0.271134  0.716126  0  3.958689  0
C  C33  1  0.74337129  0.20542091  0.30817949  1  0  0.77705  0  3.668962  0  0  0.738547  0  3.95276  0  0  0.771283  0  3.943367  0  0  0.271109  0.716003  0  3.958898  0
C  C34  1  0.35078094  0.70541995  0.59279582  1  0  -0.464511  0  3.61824  0  0  -0.538695  0  3.842567  0  0  -0.545926  0  3.84437  0  0  -0.238268  -0.533464  0  3.841354  0
C  C35  1  0.64921919  0.29458238  0.40720619  1  0  -0.464535  0  3.618111  0  0  -0.538707  0  3.842464  0  0  -0.545926  0  3.844272  0  0  -0.238213  -0.533479  0  3.841253  0
C  C36  1  0.74284798  0.80046603  0.71332316  1  0  0.749002  0  3.672507  0  0  0.708407  0  3.961704  0  0  0.740164  0  3.953385  0  0  0.256901  0.686559  0  3.967154  0
C  C37  1  0.25714933  0.19953248  0.28667815  1  0  0.749013  0  3.672277  0  0  0.708328  0  3.961594  0  0  0.740093  0  3.953266  0  0  0.256866  0.686477  0  3.967049  0
C  C38  1  0.72967049  0.92273305  0.61775512  1  0  -0.460601  0  3.640955  0  0  -0.535405  0  3.878043  0  0  -0.54247  0  3.879096  0  0  -0.248928  -0.530253  0  3.877398  0
C  C39  1  0.27032824  0.07726545  0.38224199  1  0  -0.460621  0  3.641057  0  0  -0.535381  0  3.878144  0  0  -0.542464  0  3.87918  0  0  -0.248917  -0.530233  0  3.877503  0
Cl  Cl40  1  0.84174290  0.31202511  0.61692015  1  0  -0.033828  0  1.40951  0  0  -0.02077  0  1.654414  0  0  -0.022151  0  1.646228  0  0  0.032986  -0.019619  0  1.660445  0
Cl  Cl41  1  0.77097640  0.68793494  0.38303740  1  0  -0.034584  0  1.410497  0  0  -0.021671  0  1.655626  0  0  -0.023037  0  1.647423  0  0  0.032209  -0.020526  0  1.661663  0
Cl  Cl42  1  0.15825692  0.68797212  0.38308069  1  0  -0.033864  0  1.409501  0  0  -0.020789  0  1.654427  0  0  -0.02217  0  1.64624  0  0  0.032983  -0.019637  0  1.660458  0
Cl  Cl43  1  0.22902338  0.31206483  0.61696353  1  0  -0.034569  0  1.410504  0  0  -0.021675  0  1.655609  0  0  -0.023042  0  1.64741  0  0  0.032213  -0.020532  0  1.661648  0
O  O44  1  0.48306676  0.22803854  0.80574459  1  0  -0.901377  0  1.818248  0  0  -0.856144  0  2.003449  0  0  -0.875035  0  1.974437  0  0  -0.656769  -0.842692  0  2.023826  0
O  O45  1  0.51693376  0.77196124  0.19425559  1  0  -0.901374  0  1.818202  0  0  -0.856135  0  2.003441  0  0  -0.875023  0  1.974416  0  0  -0.656761  -0.842681  0  2.023803  0
O  O46  1  0.89697656  0.76412183  0.98201490  1  0  -0.908633  0  1.840493  0  0  -0.855583  0  2.027178  0  0  -0.875066  0  1.997134  0  0  -0.623864  -0.841684  0  2.048162  0
O  O47  1  0.64318886  0.23586045  0.01797636  1  0  -0.905897  0  1.84345  0  0  -0.853088  0  2.029853  0  0  -0.872537  0  1.999739  0  0  -0.622781  -0.839198  0  2.05092  0
O  O48  1  0.10302396  0.23587795  0.01798529  1  0  -0.908628  0  1.840504  0  0  -0.85558  0  2.027188  0  0  -0.875068  0  1.997155  0  0  -0.623872  -0.841683  0  2.04819  0
O  O49  1  0.35681106  0.76414060  0.98202377  1  0  -0.90594  0  1.843502  0  0  -0.853143  0  2.029862  0  0  -0.872594  0  1.999755  0  0  -0.622807  -0.839255  0  2.050939  0
O  O50  1  0.87624762  0.06753856  0.83608394  1  0  -0.800876  0  2.002064  0  0  -0.716746  0  2.236897  0  0  -0.742545  0  2.218647  0  0  -0.326741  -0.698403  0  2.248963  0
O  O51  1  0.77992294  0.93260325  0.16394727  1  0  -0.80135  0  2.002279  0  0  -0.716892  0  2.237018  0  0  -0.742755  0  2.218847  0  0  -0.326809  -0.698716  0  2.249186  0
O  O52  1  0.12375401  0.93246376  0.16391656  1  0  -0.800885  0  2.001875  0  0  -0.716743  0  2.236703  0  0  -0.742542  0  2.218446  0  0  -0.326784  -0.698406  0  2.248774  0
O  O53  1  0.22008277  0.06739781  0.83605396  1  0  -0.801348  0  2.001974  0  0  -0.71699  0  2.236786  0  0  -0.742774  0  2.218558  0  0  -0.326838  -0.698734  0  2.248891  0
O  O54  1  0.17804882  0.96772473  0.67549488  1  0  -0.544923  0  2.21443  0  0  -0.466659  0  2.458011  0  0  -0.492394  0  2.448845  0  0  -0.181531  -0.448613  0  2.463656  0
O  O55  1  0.82194975  0.03227759  0.32450594  1  0  -0.544973  0  2.214443  0  0  -0.466659  0  2.45799  0  0  -0.492388  0  2.448831  0  0  -0.18155  -0.44861  0  2.463622  0
O  O56  1  0.24835969  0.72337437  0.77987072  1  0  -0.56344  0  1.987935  0  0  -0.511104  0  2.20983  0  0  -0.532249  0  2.201468  0  0  -0.285602  -0.49673  0  2.215603  0
O  O57  1  0.75164187  0.27662669  0.22013329  1  0  -0.563276  0  1.98825  0  0  -0.510944  0  2.210167  0  0  -0.53208  0  2.201818  0  0  -0.285536  -0.496567  0  2.215937  0
O  O58  1  0.00962762  0.47772520  0.84403272  1  0  -0.8574  0  1.987697  0  0  -0.784008  0  2.249067  0  0  -0.812242  0  2.235045  0  0  -0.394047  -0.763798  0  2.257982  0
O  O59  1  0.33127544  0.52236994  0.15587028  1  0  -0.857563  0  1.987189  0  0  -0.784238  0  2.248593  0  0  -0.812458  0  2.234561  0  0  -0.394409  -0.764038  0  2.257511  0
O  O60  1  0.99037203  0.52227712  0.15596562  1  0  -0.85745  0  1.987716  0  0  -0.784055  0  2.249091  0  0  -0.812288  0  2.235067  0  0  -0.394062  -0.763847  0  2.258007  0
O  O61  1  0.66872405  0.47762730  0.84413228  1  0  -0.857516  0  1.987268  0  0  -0.784168  0  2.248592  0  0  -0.812399  0  2.234583  0  0  -0.394391  -0.763969  0  2.257508  0
O  O62  1  0.83878263  0.63384655  0.68830191  1  0  -0.543301  0  2.215069  0  0  -0.466466  0  2.459343  0  0  -0.4909  0  2.448266  0  0  -0.184219  -0.44937  0  2.466442  0
O  O63  1  0.16121210  0.36615322  0.31169718  1  0  -0.543333  0  2.21512  0  0  -0.466455  0  2.459415  0  0  -0.490893  0  2.448337  0  0  -0.184223  -0.44935  0  2.466498  0
O  O64  1  0.67810285  0.83926023  0.80363551  1  0  -0.512182  0  1.941955  0  0  -0.461507  0  2.146981  0  0  -0.480603  0  2.139913  0  0  -0.236471  -0.448641  0  2.1519  0
O  O65  1  0.32190313  0.16074081  0.19636131  1  0  -0.512201  0  1.941647  0  0  -0.461499  0  2.146737  0  0  -0.480595  0  2.139659  0  0  -0.236449  -0.448627  0  2.15165  0
