# generated using pymatgen
data_Na5GdH24C12Cl2O29
_symmetry_space_group_name_H-M   'P 1'
_cell_length_a   9.62165534
_cell_length_b   9.62158434
_cell_length_c   10.93316198
_cell_angle_alpha   63.88564715
_cell_angle_beta   63.88568830
_cell_angle_gamma   60.00565993
_symmetry_Int_Tables_number   1
_chemical_formula_structural   Na5GdH24C12Cl2O29
_chemical_formula_sum   'Na5 Gd1 H24 C12 Cl2 O29'
_cell_volume   754.91822699
_cell_formula_units_Z   1
loop_
 _symmetry_equiv_pos_site_id
 _symmetry_equiv_pos_as_xyz
  1  'x, y, z'
loop_
 _atom_site_type_symbol
 _atom_site_label
 _atom_site_symmetry_multiplicity
 _atom_site_fract_x
 _atom_site_fract_y
 _atom_site_fract_z
 _atom_site_occupancy
 _atom_site_pbe_bader_spin_density
 _atom_site_pbe_cm5_charge
 _atom_site_pbe_ddec_charge
 _atom_site_pbe_ddec_spin_density
 _atom_site_pbe_ddec_sum_bond_order
 _atom_site_pbe_magmom
Na  Na0  1  0.19461283  0.19459227  0.41615671  1  0  0.672762  0.867415  0  0.541271  0
Na  Na1  1  0.80540386  0.80538995  0.58384110  1  0  0.672784  0.867422  0  0.541278  0
Na  Na2  1  0.80515839  0.19484334  0.49999737  1  0  0.678929  0.840488  0  0.571792  0
Na  Na3  1  0.19484696  0.50000521  0.50003518  1  0  0.679102  0.840579  0  0.571351  0
Na  Na4  1  0.49999778  0.80514730  0.49996743  1  0  0.679117  0.840613  0  0.57128  0
Gd  Gd5  1  0.00004273  0.99995637  0.99999760  1  0  1.480357  1.928859  0  2.349319  0
H  H6  1  0.29628576  0.17037784  0.03749396  1  0  0.114042  0.113333  0  1.002692  0
H  H7  1  0.17024061  0.49568347  0.03764782  1  0  0.113795  0.112899  0  1.002978  0
H  H8  1  0.49584106  0.29639633  0.03737341  1  0  0.113886  0.113756  0  1.003143  0
H  H9  1  0.70360077  0.50416599  0.96262035  1  0  0.113901  0.113736  0  1.003121  0
H  H10  1  0.82961920  0.70371624  0.96250621  1  0  0.114027  0.113366  0  1.002676  0
H  H11  1  0.50431450  0.82975823  0.96235019  1  0  0.113789  0.112889  0  1.00305  0
H  H12  1  0.34726850  0.96471992  0.15832499  1  0  0.115914  0.111723  0  0.997778  0
H  H13  1  0.96456132  0.52961332  0.15842087  1  0  0.11553  0.111198  0  0.997988  0
H  H14  1  0.52961820  0.34712679  0.15839099  1  0  0.115191  0.111893  0  0.997554  0
H  H15  1  0.65287279  0.47037407  0.84161037  1  0  0.115196  0.111876  0  0.99756  0
H  H16  1  0.03528166  0.65272476  0.84167726  1  0  0.115896  0.111743  0  0.997742  0
H  H17  1  0.47037792  0.03544037  0.84157701  1  0  0.11551  0.111175  0  0.998097  0
H  H18  1  0.90694500  0.19508290  0.67874246  1  0  0.293172  0.384298  0  0.962746  0
H  H19  1  0.19519367  0.21941967  0.67882559  1  0  0.293836  0.38411  0  0.962558  0
H  H20  1  0.21938336  0.90695424  0.67867453  1  0  0.293868  0.38495  0  0.96143  0
H  H21  1  0.09304773  0.78061521  0.32132324  1  0  0.293859  0.384921  0  0.961469  0
H  H22  1  0.80491614  0.09305893  0.32125565  1  0  0.293173  0.384301  0  0.96275  0
H  H23  1  0.78058246  0.80480570  0.32117609  1  0  0.293852  0.384136  0  0.962514  0
H  H24  1  0.83453730  0.38794290  0.60462706  1  0  0.315784  0.400389  0  0.912538  0
H  H25  1  0.38803662  0.17292577  0.60463776  1  0  0.316089  0.399997  0  0.912827  0
H  H26  1  0.17297846  0.83462296  0.60455099  1  0  0.315479  0.398842  0  0.914012  0
H  H27  1  0.16539244  0.82700485  0.39544629  1  0  0.315466  0.398824  0  0.91401  0
H  H28  1  0.61205768  0.16546047  0.39537269  1  0  0.315795  0.400396  0  0.912531  0
H  H29  1  0.82709273  0.61195968  0.39536341  1  0  0.316079  0.400055  0  0.912755  0
C  C30  1  0.25844718  0.06219067  0.09667102  1  0  -0.065  -0.135295  0  3.864488  0
C  C31  1  0.06209484  0.58256703  0.09676796  1  0  -0.063754  -0.1333  0  3.862677  0
C  C32  1  0.58261128  0.25840612  0.09664668  1  0  -0.064009  -0.135982  0  3.863506  0
C  C33  1  0.74159245  0.41738828  0.90335131  1  0  -0.064006  -0.135926  0  3.863454  0
C  C34  1  0.93780734  0.74155458  0.90332459  1  0  -0.065003  -0.135395  0  3.864474  0
C  C35  1  0.41742899  0.93790630  0.90323202  1  0  -0.063705  -0.133237  0  3.862696  0
C  C36  1  0.08366851  0.11490082  0.19828734  1  0  0.222415  0.63987  0  4.169454  0
C  C37  1  0.11488106  0.60291277  0.19836415  1  0  0.223205  0.640894  0  4.168829  0
C  C38  1  0.60288319  0.08359742  0.19814224  1  0  0.222165  0.640003  0  4.17076  0
C  C39  1  0.91639789  0.39711905  0.80185615  1  0  0.222145  0.639902  0  4.170733  0
C  C40  1  0.88510247  0.91633376  0.80170457  1  0  0.222412  0.639865  0  4.169568  0
C  C41  1  0.39708513  0.88511412  0.80163517  1  0  0.223153  0.64081  0  4.168977  0
Cl  Cl42  1  0.42983887  0.42988922  0.71091584  1  0  0.747072  1.325382  0  6.764609  0
Cl  Cl43  1  0.57010458  0.57016307  0.28907579  1  0  0.746924  1.325039  0  6.764802  0
O  O44  1  0.25732660  0.99993033  0.99999167  1  0  -0.273817  -0.253995  0  2.716495  0
O  O45  1  0.00006723  0.74267153  0.00000837  1  0  -0.273795  -0.253993  0  2.716544  0
O  O46  1  0.74276742  0.25723303  0.00000144  1  0  -0.273585  -0.252836  0  2.713104  0
O  O47  1  0.96778618  0.10863525  0.17403753  1  0  -0.38148  -0.648027  0  2.317456  0
O  O48  1  0.10866711  0.74930666  0.17406735  1  0  -0.38295  -0.649665  0  2.318513  0
O  O49  1  0.74917175  0.96762095  0.17370845  1  0  -0.382296  -0.649092  0  2.317632  0
O  O50  1  0.03237996  0.25082622  0.82628914  1  0  -0.382282  -0.649031  0  2.317605  0
O  O51  1  0.89136623  0.03221903  0.82595742  1  0  -0.381492  -0.648002  0  2.317386  0
O  O52  1  0.25069625  0.89133228  0.82592815  1  0  -0.382908  -0.649652  0  2.318617  0
O  O53  1  0.06313163  0.15786777  0.29983636  1  0  -0.410024  -0.648677  0  2.167287  0
O  O54  1  0.15787046  0.47887654  0.29989460  1  0  -0.409945  -0.648743  0  2.166728  0
O  O55  1  0.47886489  0.06313039  0.29973306  1  0  -0.409337  -0.648596  0  2.168088  0
O  O56  1  0.93686449  0.52114109  0.70026763  1  0  -0.409364  -0.648595  0  2.168094  0
O  O57  1  0.84214100  0.93686162  0.70016026  1  0  -0.409965  -0.648593  0  2.167445  0
O  O58  1  0.52112077  0.84211682  0.70011025  1  0  -0.409938  -0.648706  0  2.166824  0
O  O59  1  0.91859032  0.28259559  0.58489269  1  0  -0.692896  -0.84729  0  1.989249  0
O  O60  1  0.28262640  0.21408983  0.58495949  1  0  -0.69386  -0.846217  0  1.989529  0
O  O61  1  0.21407706  0.91863350  0.58483297  1  0  -0.69348  -0.845838  0  1.990638  0
O  O62  1  0.08136770  0.78592580  0.41516329  1  0  -0.693465  -0.845779  0  1.990648  0
O  O63  1  0.71740530  0.08140605  0.41510467  1  0  -0.6929  -0.847279  0  1.989239  0
O  O64  1  0.78591043  0.71737474  0.41504334  1  0  -0.693863  -0.846295  0  1.989539  0
O  O65  1  0.37830366  0.37836858  0.86543043  1  0  -0.295293  -0.486409  0  2.1253  0
O  O66  1  0.62163157  0.62170375  0.13456045  1  0  -0.295285  -0.486362  0  2.125366  0
O  O67  1  0.51727596  0.28221244  0.65890305  1  0  -0.335528  -0.553739  0  2.156071  0
O  O68  1  0.28218007  0.54218679  0.65887807  1  0  -0.335097  -0.553234  0  2.155205  0
O  O69  1  0.54211772  0.51734738  0.65892647  1  0  -0.337429  -0.555749  0  2.157735  0
O  O70  1  0.48264574  0.45788850  0.34105573  1  0  -0.337475  -0.555761  0  2.157737  0
O  O71  1  0.71778374  0.48271549  0.34109267  1  0  -0.335439  -0.553554  0  2.155954  0
O  O72  1  0.45781164  0.71781881  0.34111503  1  0  -0.335003  -0.553104  0  2.155341  0
