# generated using pymatgen
data_CuPH24C19(NO2)5
_symmetry_space_group_name_H-M   'P 1'
_cell_length_a   10.90865658
_cell_length_b   12.37298271
_cell_length_c   20.63449624
_cell_angle_alpha   89.99972086
_cell_angle_beta   90.00042894
_cell_angle_gamma   116.15220772
_symmetry_Int_Tables_number   1
_chemical_formula_structural   CuPH24C19(NO2)5
_chemical_formula_sum   'Cu4 P4 H96 C76 N20 O40'
_cell_volume   2499.97192043
_cell_formula_units_Z   4
loop_
 _symmetry_equiv_pos_site_id
 _symmetry_equiv_pos_as_xyz
  1  'x, y, z'
loop_
 _atom_site_type_symbol
 _atom_site_label
 _atom_site_symmetry_multiplicity
 _atom_site_fract_x
 _atom_site_fract_y
 _atom_site_fract_z
 _atom_site_occupancy
 _atom_site_pbe_bader_charge
 _atom_site_pbe_bader_spin_density
 _atom_site_pbe_cm5_charge
 _atom_site_pbe_ddec_charge
 _atom_site_pbe_ddec_spin_density
 _atom_site_pbe_ddec_sum_bond_order
 _atom_site_pbe_magmom
Cu  Cu0  1  0.33954013  0.67904758  0.74994336  1  1.107589  0.611268  0.751649  0.874174  0.809368  2.151072  0.61
Cu  Cu1  1  0.66049953  0.32102592  0.24994394  1  1.109484  -0.617439  0.752748  0.875931  -0.783113  2.151849  -0.616
Cu  Cu2  1  0.84151453  0.68291200  0.75000492  1  1.106276  -0.579507  0.760677  0.825918  -0.742997  2.191486  -0.578
Cu  Cu3  1  0.15849444  0.31710927  0.25000402  1  1.10666  -0.582069  0.760887  0.826259  -0.746355  2.191659  -0.581
P  P4  1  0.58930168  0.65980215  0.82922374  1  3.643196  0.000514  0.389354  1.405291  0.000949  5.536419  0.001
P  P5  1  0.41069009  0.34020446  0.32922570  1  3.641875  -0.002877  0.389384  1.40561  -0.006813  5.535475  -0.003
P  P6  1  0.07054019  0.65979690  0.67071824  1  3.635009  0.000544  0.39029  1.40584  0.000936  5.536577  0.001
P  P7  1  0.92947207  0.34020753  0.17071740  1  3.63521  -0.002921  0.390192  1.406025  -0.006804  5.535564  -0.003
H  H8  1  0.50521238  0.53850255  0.93830807  1  0.08607  3.8e-05  0.114002  0.08923  2.5e-05  0.975205  0.0
H  H9  1  0.49479092  0.46149471  0.43830420  1  0.086183  -4.7e-05  0.114005  0.089276  -2.9e-05  0.975152  0.0
H  H10  1  0.03324745  0.53846878  0.56168588  1  0.07548  4.4e-05  0.114223  0.090102  2.7e-05  0.974624  0.0
H  H11  1  0.96674699  0.46153060  0.06168968  1  0.075393  -5.1e-05  0.114258  0.090155  -3e-05  0.974579  0.0
H  H12  1  0.57561496  0.43585343  0.92227405  1  0.045275  -6e-05  0.102042  0.071571  -3.5e-05  0.975583  0.0
H  H13  1  0.42438632  0.56414207  0.42227153  1  0.044837  -1.7e-05  0.102004  0.071549  -4e-06  0.975683  0.0
H  H14  1  0.86019495  0.43593814  0.57777819  1  0.056046  -6.2e-05  0.101985  0.071908  -3.6e-05  0.976138  0.0
H  H15  1  0.13980064  0.56405759  0.07778231  1  0.056172  -1.8e-05  0.102038  0.071931  -5e-06  0.976145  0.0
H  H16  1  0.28994993  0.40051038  0.88131494  1  0.066485  -3.6e-05  0.109612  0.071273  -3.8e-05  0.960221  0.0
H  H17  1  0.71005079  0.59949066  0.38131248  1  0.066572  2.5e-05  0.109595  0.071199  2.9e-05  0.960246  0.0
H  H18  1  0.11052742  0.40046121  0.61857204  1  0.077997  -3.7e-05  0.109703  0.070854  -3.9e-05  0.960106  0.0
H  H19  1  0.88947320  0.59954159  0.11857465  1  0.077938  2.3e-05  0.109687  0.07087  2.8e-05  0.960084  0.0
H  H20  1  0.85408336  0.49564572  0.83293770  1  0.148509  -0.002303  0.128439  0.10823  -0.001082  0.981625  -0.002
H  H21  1  0.14592085  0.50435818  0.33293475  1  0.148633  -0.002305  0.128428  0.108263  -0.001092  0.981613  -0.002
H  H22  1  0.64200660  0.49582729  0.66722255  1  0.144209  -0.002298  0.128343  0.107739  -0.001079  0.981961  -0.002
H  H23  1  0.35798862  0.50418165  0.16721753  1  0.144265  -0.002297  0.128334  0.107758  -0.001084  0.98195  -0.002
H  H24  1  0.74546087  0.26949402  0.83677120  1  0.076026  -0.001154  0.108958  0.111646  -0.000582  1.002997  -0.001
H  H25  1  0.25454203  0.73050896  0.33677141  1  0.076021  -0.001227  0.109013  0.111714  -0.000624  1.003114  -0.001
H  H26  1  0.52409119  0.26972279  0.66338732  1  0.077424  -0.001077  0.109113  0.111985  -0.00054  1.002634  -0.001
H  H27  1  0.47591041  0.73028436  0.16338550  1  0.0775  -0.001212  0.1091  0.112009  -0.000616  1.002634  -0.001
H  H28  1  0.82635977  0.87205367  0.83212293  1  0.193331  -0.001796  0.121425  0.093981  -0.000807  1.0568  -0.002
H  H29  1  0.17364218  0.12794573  0.33212215  1  0.193405  -0.001862  0.121371  0.093896  -0.000875  1.056895  -0.002
H  H30  1  0.04554371  0.87200570  0.66768073  1  0.165414  -0.001843  0.121142  0.09407  -0.000821  1.056937  -0.002
H  H31  1  0.95445391  0.12799153  0.16768207  1  0.165632  -0.00186  0.121138  0.094041  -0.000858  1.056896  -0.002
H  H32  1  0.96176044  0.26855717  0.80109788  1  0.069655  0.001165  0.104769  0.101252  0.000588  1.032921  0.001
H  H33  1  0.03824069  0.73143963  0.30109819  1  0.069683  -0.001371  0.104783  0.101229  -0.000709  1.032958  -0.001
H  H34  1  0.30737433  0.26856352  0.69890703  1  0.05913  0.001304  0.104424  0.100739  0.000672  1.033055  0.001
H  H35  1  0.69262548  0.73143722  0.19891138  1  0.059183  -0.001454  0.104415  0.100693  -0.000751  1.033102  -0.001
H  H36  1  0.38901503  0.31339805  0.00042484  1  0.052497  7e-06  0.106524  0.05656  5e-06  0.965838  0.0
H  H37  1  0.61098184  0.68660243  0.50041998  1  0.052161  -7e-06  0.106485  0.056482  -4e-06  0.965824  0.0
H  H38  1  0.92409017  0.31329946  0.49954930  1  0.048017  5e-06  0.10664  0.056592  4e-06  0.96597  0.0
H  H39  1  0.07591343  0.68669850  0.99955396  1  0.048009  -7e-06  0.106641  0.056568  -4e-06  0.965954  0.0
H  H40  1  0.51525984  0.22778448  0.92829619  1  0.121285  -9e-06  0.130659  0.101913  -8e-06  1.002897  0.0
H  H41  1  0.48473831  0.77221011  0.42829330  1  0.121196  -1.5e-05  0.130648  0.101878  -7e-06  1.002921  0.0
H  H42  1  0.71253454  0.22793840  0.57179502  1  0.122257  -9e-06  0.130512  0.101412  -9e-06  1.00316  0.0
H  H43  1  0.28746508  0.77206005  0.07179572  1  0.122227  -1.2e-05  0.130516  0.101403  -6e-06  1.003122  0.0
H  H44  1  0.64159445  0.10164059  0.94019369  1  0.077637  -2.9e-05  0.111152  0.141673  -1.5e-05  0.991828  0.0
H  H45  1  0.35840751  0.89835575  0.44019672  1  0.07761  -2.7e-05  0.11113  0.141589  -1.6e-05  0.991887  0.0
H  H46  1  0.46003847  0.10190234  0.55982785  1  0.074147  -2.1e-05  0.11089  0.141288  -1.1e-05  0.992504  0.0
H  H47  1  0.53995963  0.89809525  0.05982579  1  0.074079  -1.9e-05  0.110909  0.141313  -1.1e-05  0.992462  0.0
H  H48  1  0.62504183  0.87202937  0.75728717  1  0.103582  0.001871  0.123474  0.093769  0.000855  1.027193  0.001
H  H49  1  0.37495875  0.12796757  0.25728718  1  0.103718  -0.001785  0.123525  0.093897  -0.000801  1.027021  -0.001
H  H50  1  0.24646992  0.87196339  0.74273409  1  0.142932  0.001912  0.123042  0.093311  0.000883  1.027251  0.001
H  H51  1  0.75352860  0.12803900  0.24272979  1  0.142924  -0.001857  0.123105  0.093422  -0.000848  1.027299  -0.001
H  H52  1  0.74527048  0.09612719  0.75817686  1  0.060238  0.000927  0.105731  0.1143  0.000474  1.023852  0.0
H  H53  1  0.25473694  0.90387426  0.25817898  1  0.060149  -0.001017  0.105692  0.114232  -0.000509  1.024067  0.0
H  H54  1  0.35024098  0.09609788  0.74194355  1  0.071095  0.00108  0.106048  0.114736  0.000573  1.02346  0.0
H  H55  1  0.64976389  0.90390992  0.24193851  1  0.071476  -0.001141  0.106082  0.114781  -0.000587  1.023494  0.0
H  H56  1  0.94142473  0.09519815  0.83848500  1  0.10613  -0.000955  0.110118  0.122484  -0.000477  1.016825  -0.001
H  H57  1  0.05858145  0.90479853  0.33848780  1  0.106183  -0.001077  0.110082  0.122457  -0.000558  1.017029  -0.001
H  H58  1  0.15389074  0.09519189  0.66141878  1  0.130995  -0.000893  0.110014  0.122083  -0.000448  1.016487  -0.001
H  H59  1  0.84610362  0.90480266  0.16141936  1  0.130903  -0.001055  0.109968  0.122027  -0.000554  1.016606  -0.001
H  H60  1  0.18358121  0.12316941  0.99404868  1  0.064849  2e-06  0.101511  0.060902  0.0  0.99431  0.0
H  H61  1  0.81641543  0.87683127  0.49404583  1  0.064599  -0.0  0.101518  0.060913  -0.0  0.994293  0.0
H  H62  1  0.93957162  0.12306995  0.50597041  1  0.08807  4e-06  0.101709  0.061304  1e-06  0.993901  0.0
H  H63  1  0.06042900  0.87692871  0.00597233  1  0.088154  1e-06  0.101725  0.061348  0.0  0.993898  0.0
H  H64  1  0.17831092  0.10474391  0.85964416  1  0.125541  4e-06  0.118718  0.056502  4e-06  1.025167  0.0
H  H65  1  0.82168496  0.89525540  0.35964031  1  0.125512  6e-06  0.1187  0.056507  1.6e-05  1.02516  0.0
H  H66  1  0.92632307  0.10466775  0.64034249  1  0.115611  3e-06  0.118908  0.056876  2e-06  1.025079  0.0
H  H67  1  0.07368104  0.89533408  0.14034440  1  0.115611  8e-06  0.118931  0.056877  1.7e-05  1.024962  0.0
H  H68  1  0.08387041  0.49278245  0.80096400  1  0.155064  0.002429  0.124385  0.109369  0.001201  1.02316  0.002
H  H69  1  0.91613805  0.50721435  0.30096359  1  0.154982  -0.002416  0.124514  0.109624  -0.001141  1.023262  -0.002
H  H70  1  0.40935005  0.49278860  0.69899510  1  0.166895  0.002475  0.12453  0.109481  0.001229  1.024237  0.002
H  H71  1  0.59063829  0.50721303  0.19899874  1  0.166946  -0.002472  0.124579  0.109528  -0.001175  1.02427  -0.002
H  H72  1  0.47284618  0.78004426  0.89156166  1  0.527802  -4.4e-05  0.308276  0.33767  1e-05  0.954158  0.0
H  H73  1  0.52714873  0.21995405  0.39156444  1  0.52777  -0.000257  0.308181  0.337592  -0.000322  0.954211  0.0
H  H74  1  0.30718356  0.78023408  0.60843448  1  0.530809  -5e-05  0.308048  0.337156  9e-06  0.954719  0.0
H  H75  1  0.69281970  0.21976695  0.10843306  1  0.530781  -0.000252  0.307985  0.337081  -0.00032  0.95466  0.0
H  H76  1  0.62116156  0.89438185  0.91943356  1  0.475517  -1.2e-05  0.316541  0.320343  -1.5e-05  0.915539  0.0
H  H77  1  0.37883558  0.10561276  0.41943754  1  0.475468  -0.0  0.316495  0.320328  -1e-06  0.915538  0.0
H  H78  1  0.27314389  0.89457090  0.58058525  1  0.466741  -1.3e-05  0.316825  0.320841  -1.6e-05  0.915021  0.0
H  H79  1  0.72685812  0.10542842  0.08058236  1  0.466656  -1e-06  0.316811  0.32085  -1e-06  0.914982  0.0
H  H80  1  0.22611254  0.74518676  0.86297609  1  0.620683  -4.7e-05  0.270154  0.345492  -2.1e-05  1.015301  0.0
H  H81  1  0.77388930  0.25481704  0.36298506  1  0.620896  4.5e-05  0.270153  0.345554  -3e-06  1.015229  0.0
H  H82  1  0.51891227  0.74542131  0.63700895  1  0.630238  -4.9e-05  0.270723  0.346373  -2.4e-05  1.014114  0.0
H  H83  1  0.48108992  0.25458592  0.13700029  1  0.630138  4.4e-05  0.270681  0.346372  -4e-06  1.014119  0.0
H  H84  1  0.11412542  0.68727355  0.80745339  1  0.628338  -5.4e-05  0.280266  0.380172  -0.000155  0.964908  0.0
H  H85  1  0.88587349  0.31272413  0.30746022  1  0.628545  -5.2e-05  0.280295  0.380299  -0.000186  0.964683  0.0
H  H86  1  0.57304732  0.68742029  0.69247596  1  0.626127  -5.6e-05  0.280543  0.380555  -0.000158  0.964177  0.0
H  H87  1  0.42695376  0.31258317  0.19247128  1  0.626287  -5.2e-05  0.280473  0.380491  -0.000189  0.964179  0.0
H  H88  1  0.23920314  0.36341880  0.04866263  1  0.630532  3.2e-05  0.285357  0.347226  -9e-06  0.997286  0.0
H  H89  1  0.76079616  0.63658332  0.54866238  1  0.63058  2.4e-05  0.28539  0.347284  -1.8e-05  0.997209  0.0
H  H90  1  0.12398620  0.36331738  0.45128381  1  0.629789  3.2e-05  0.285126  0.346702  -9e-06  0.998834  0.0
H  H91  1  0.87601267  0.63668163  0.95128790  1  0.629853  2.4e-05  0.285129  0.346601  -1.8e-05  0.998785  0.0
H  H92  1  0.07797689  0.26131402  0.96186479  1  0.615919  -2e-06  0.304347  0.342425  1e-06  0.941847  0.0
H  H93  1  0.92202256  0.73868586  0.46186567  1  0.615927  -2e-06  0.304341  0.342441  -2e-06  0.94186  0.0
H  H94  1  0.18322767  0.26149691  0.53816238  1  0.613691  -1e-06  0.304354  0.342189  2e-06  0.941898  0.0
H  H95  1  0.81677333  0.73850344  0.03816284  1  0.613599  -1e-06  0.304359  0.342196  -1e-06  0.941854  0.0
H  H96  1  0.82106234  0.71680750  0.88356176  1  0.648803  0.000261  0.282839  0.375459  0.000375  0.978285  0.0
H  H97  1  0.17894023  0.28319533  0.38356055  1  0.648836  -0.00023  0.282824  0.375493  -0.000232  0.978239  0.0
H  H98  1  0.89566927  0.71674555  0.61644078  1  0.64969  0.000264  0.282694  0.374992  0.000374  0.978596  0.0
H  H99  1  0.10432767  0.28325546  0.11644170  1  0.649768  -0.000231  0.28272  0.375052  -0.000232  0.978475  0.0
H  H100  1  0.98559661  0.76998348  0.88078511  1  0.625825  1e-06  0.289945  0.387213  1.1e-05  0.947396  0.0
H  H101  1  0.01440000  0.23001486  0.38078389  1  0.625773  1.3e-05  0.289941  0.387271  -1e-06  0.947346  0.0
H  H102  1  0.78432981  0.76995228  0.61917958  1  0.634906  2e-06  0.289803  0.387269  1.2e-05  0.947339  0.0
H  H103  1  0.21566948  0.23004601  0.11918061  1  0.634901  1e-05  0.289819  0.387231  -3e-06  0.947384  0.0
C  C104  1  0.50268789  0.46865637  0.90452397  1  0.424368  0.000105  -0.059314  0.018237  0.000106  3.898424  0.0
C  C105  1  0.49731223  0.53134280  0.40452087  1  0.424704  0.000137  -0.059275  0.018154  7.8e-05  3.898705  0.0
C  C106  1  0.96594329  0.46863217  0.59547978  1  0.426748  0.000102  -0.059436  0.01665  0.000106  3.899599  0.0
C  C107  1  0.03405342  0.53136530  0.09548406  1  0.426615  0.000137  -0.059588  0.016554  7.7e-05  3.899786  0.0
C  C108  1  0.35971748  0.36803261  0.90331178  1  0.420233  -3.6e-05  -0.005738  0.091822  -3.2e-05  3.857874  0.0
C  C109  1  0.64028214  0.63196926  0.40330750  1  0.420265  2.6e-05  -0.00583  0.091759  1.9e-05  3.857899  0.0
C  C110  1  0.00822464  0.36799395  0.59664695  1  0.43083  -3.8e-05  -0.005643  0.093169  -3.4e-05  3.858255  0.0
C  C111  1  0.99177800  0.63200802  0.09665181  1  0.431066  2.7e-05  -0.005611  0.093038  2e-05  3.858358  0.0
C  C112  1  0.78098327  0.44093638  0.79627815  1  0.492807  0.001696  0.064475  0.11869  0.000541  3.89182  0.001
C  C113  1  0.21901772  0.55906944  0.29627678  1  0.492846  0.001256  0.064393  0.118599  0.000219  3.891658  0.001
C  C114  1  0.66025520  0.44105118  0.70390541  1  0.493938  0.001685  0.063634  0.118401  0.000545  3.892995  0.001
C  C115  1  0.33974736  0.55895674  0.20390161  1  0.493938  0.001302  0.063574  0.118247  0.000264  3.892749  0.001
C  C116  1  0.72053131  0.31565982  0.79768411  1  -0.01199  -0.006072  -0.075723  -0.164428  -0.004044  3.916872  -0.005
C  C117  1  0.27946601  0.68434780  0.29768261  1  -0.012044  -0.005391  -0.075772  -0.164537  -0.003609  3.916708  -0.004
C  C118  1  0.59512751  0.31579191  0.70250975  1  -0.017982  -0.006019  -0.075507  -0.164354  -0.00401  3.917143  -0.005
C  C119  1  0.40488554  0.68421871  0.20251020  1  -0.018312  -0.005417  -0.075428  -0.164262  -0.003632  3.916975  -0.004
C  C120  1  0.90122006  0.92533231  0.79572182  1  0.481885  0.00131  0.050186  0.106395  0.000221  3.914073  0.001
C  C121  1  0.09878883  0.07466001  0.29572332  1  0.481749  0.000561  0.050359  0.106712  -0.000289  3.913463  0.0
C  C122  1  0.02402140  0.92529346  0.70410554  1  0.39389  0.001112  0.050894  0.105525  0.000227  3.913756  0.001
C  C123  1  0.97596253  0.07469736  0.20410615  1  0.393646  0.000383  0.051011  0.105846  -0.000298  3.913107  0.0
C  C124  1  0.05802275  0.11580496  0.74997173  1  -0.1482  0.004139  0.013345  0.10021  0.002818  3.980801  0.003
C  C125  1  0.94197908  0.88419471  0.24997275  1  -0.148261  0.003095  0.013314  0.100244  0.002081  3.980837  0.002
C  C126  1  0.12435573  0.24814138  0.75000850  1  0.117215  -0.004478  0.01447  0.1047  -0.002931  3.979057  -0.003
C  C127  1  0.87564474  0.75185739  0.25000964  1  0.116873  0.003507  0.014557  0.10468  0.002413  3.978814  0.002
C  C128  1  0.06217952  0.31371770  0.77891570  1  0.040273  0.007166  -0.074806  -0.155886  0.005066  3.94401  0.006
C  C129  1  0.93781725  0.68627467  0.27891776  1  0.040875  -0.006137  -0.074735  -0.155632  -0.004202  3.943617  -0.005
C  C130  1  0.25212144  0.31369675  0.72111045  1  -0.091302  0.007396  -0.074563  -0.154886  0.005047  3.944258  0.006
C  C131  1  0.74787781  0.68629491  0.22111128  1  -0.091072  -0.006227  -0.074468  -0.154642  -0.004098  3.944  -0.005
C  C132  1  0.30662594  0.31706890  0.97063639  1  0.500558  1.4e-05  -0.01121  0.092647  1.1e-05  3.929702  0.0
C  C133  1  0.69337180  0.68292915  0.47063411  1  0.500848  1.8e-05  -0.011158  0.092705  1.2e-05  3.929614  0.0
C  C134  1  0.01017208  0.31700306  0.52932530  1  0.478684  1.5e-05  -0.011503  0.091457  1.1e-05  3.930851  0.0
C  C135  1  0.98982971  0.68299913  0.02932661  1  0.47877  1.8e-05  -0.01148  0.091572  1.2e-05  3.930715  0.0
C  C136  1  0.25580608  0.95528548  0.89877317  1  1.770284  0.0  0.322068  0.569093  -2e-06  4.207008  0.0
C  C137  1  0.74418434  0.04471280  0.39877295  1  1.769872  1.4e-05  0.322022  0.568878  1.6e-05  4.206966  0.0
C  C138  1  0.69935233  0.95531788  0.60114672  1  1.751883  -8e-06  0.321743  0.570625  -7e-06  4.204696  0.0
C  C139  1  0.30065681  0.04468228  0.10114669  1  1.75207  1.1e-05  0.321801  0.570632  1.3e-05  4.204455  0.0
C  C140  1  0.46570096  0.13053895  0.92238622  1  0.387262  -5.4e-05  0.050495  0.097517  -4e-05  3.987191  0.0
C  C141  1  0.53429483  0.86945655  0.42238567  1  0.38648  -1.7e-05  0.050439  0.097422  -7e-06  3.987321  0.0
C  C142  1  0.66480567  0.13066577  0.57763916  1  0.3292  -3.3e-05  0.05109  0.098528  -2.7e-05  3.985215  0.0
C  C143  1  0.33519813  0.86933356  0.07763928  1  0.329102  5e-06  0.051024  0.098477  8e-06  3.985346  0.0
C  C144  1  0.53375657  0.06147956  0.92764174  1  -0.010329  -3.4e-05  -0.120964  -0.340982  -3.3e-05  4.028523  0.0
C  C145  1  0.46624113  0.93851412  0.42764362  1  -0.009196  -0.000125  -0.120862  -0.340715  -8.9e-05  4.028578  0.0
C  C146  1  0.52767170  0.06167937  0.57234204  1  0.105179  -1.4e-05  -0.121212  -0.340834  -1.7e-05  4.028083  0.0
C  C147  1  0.47232611  0.93831727  0.07234008  1  0.105199  -0.000102  -0.121202  -0.340733  -7.2e-05  4.028102  0.0
C  C148  1  0.45824965  0.93545137  0.91505944  1  1.155639  -2.3e-05  0.240901  0.491045  -2e-05  4.143583  0.0
C  C149  1  0.54174604  0.06454416  0.41506369  1  1.15572  5.4e-05  0.240797  0.490832  4.3e-05  4.143755  0.0
C  C150  1  0.47714692  0.93564744  0.58490312  1  1.076688  -4.4e-05  0.241299  0.491328  -3.4e-05  4.143816  0.0
C  C151  1  0.52285608  0.06435006  0.08490052  1  1.077012  3.6e-05  0.241244  0.49117  3.1e-05  4.144019  0.0
C  C152  1  0.56800961  0.92537352  0.75467533  1  0.653049  -0.001767  0.05119  0.105926  -0.000341  3.924414  -0.001
C  C153  1  0.43198954  0.07462613  0.25467670  1  0.652967  0.001568  0.051129  0.105875  0.000379  3.924643  0.001
C  C154  1  0.35683800  0.92536841  0.74542923  1  0.380721  -0.001385  0.052165  0.107239  -0.000345  3.9233  -0.001
C  C155  1  0.64317060  0.07463757  0.24542513  1  0.381018  0.001115  0.052161  0.107302  0.000338  3.923393  0.001
C  C156  1  0.63421799  0.05065297  0.75540271  1  -0.118644  0.005323  -0.084956  -0.177428  0.003568  3.928018  0.004
C  C157  1  0.36578843  0.94935389  0.25540659  1  -0.118202  -0.004594  -0.084987  -0.177441  -0.002954  3.92818  -0.003
C  C158  1  0.41583971  0.05066346  0.74477250  1  0.13763  0.005007  -0.086023  -0.17847  0.003544  3.926485  0.004
C  C159  1  0.58416657  0.94934343  0.24476756  1  0.137209  -0.004283  -0.086047  -0.178528  -0.002924  3.926798  -0.003
C  C160  1  0.96264290  0.05015814  0.79769467  1  -0.054769  -0.006456  -0.080911  -0.173229  -0.004234  3.933892  -0.005
C  C161  1  0.03736647  0.94983507  0.29769435  1  -0.055049  -0.005319  -0.080969  -0.173401  -0.003524  3.934064  -0.004
C  C162  1  0.08759834  0.05012821  0.70219946  1  0.042781  -0.006256  -0.080821  -0.172104  -0.004228  3.933461  -0.005
C  C163  1  0.91238512  0.94986171  0.20220259  1  0.042842  -0.00521  -0.08081  -0.172181  -0.003574  3.933432  -0.004
C  C164  1  0.19898438  0.18739666  0.95437573  1  0.466049  7e-06  -0.012228  0.077031  4e-06  3.863201  0.0
C  C165  1  0.80101084  0.81260415  0.45437253  1  0.469093  -3e-06  -0.012207  0.077137  -2e-06  3.863031  0.0
C  C166  1  0.98830246  0.18737858  0.54562101  1  0.44714  8e-06  -0.012798  0.076834  4e-06  3.864913  0.0
C  C167  1  0.01170323  0.81262175  0.04562389  1  0.446986  0.0  -0.01284  0.07669  -0.0  3.865066  0.0
C  C168  1  0.25968788  0.15701643  0.89392664  1  0.760616  4e-06  0.098307  0.196354  5e-06  3.837361  0.0
C  C169  1  0.74030798  0.84298187  0.39392310  1  0.76102  -3e-06  0.09831  0.196273  2e-06  3.83746  0.0
C  C170  1  0.89726287  0.15699788  0.60607934  1  0.753489  6e-06  0.098188  0.194934  6e-06  3.83937  0.0
C  C171  1  0.10274129  0.84300135  0.10608152  1  0.753317  -2e-06  0.098231  0.195167  3e-06  3.839154  0.0
C  C172  1  0.62481517  0.24995293  0.75011368  1  0.021724  0.004025  0.018504  0.114497  0.002749  3.957687  0.003
C  C173  1  0.37518890  0.75005304  0.25011334  1  0.021759  0.003521  0.018575  0.114632  0.002412  3.957474  0.002
C  C174  1  0.12735436  0.43842592  0.77808936  1  0.410384  -0.00095  0.055795  0.100321  0.00016  3.907181  -0.001
C  C175  1  0.87265111  0.56156555  0.27809202  1  0.410268  0.000625  0.05576  0.100093  -0.000196  3.907105  0.0
C  C176  1  0.31157200  0.43841150  0.72190662  1  0.534671  -0.001235  0.055902  0.099717  0.000167  3.909345  -0.001
C  C177  1  0.68841670  0.56158286  0.22190710  1  0.534483  0.000922  0.055963  0.099716  -0.000185  3.90955  0.0
C  C178  1  0.55797290  0.11656486  0.75009824  1  -0.138585  -0.003798  0.014905  0.105951  -0.00247  3.982102  -0.003
C  C179  1  0.44203757  0.88344291  0.25009874  1  -0.138863  0.003185  0.014894  0.105861  0.002152  3.982145  0.002
N  N180  1  0.43136177  0.86321579  0.75003196  1  -1.197115  0.071385  -0.335465  -0.227763  0.049753  3.566017  0.061
N  N181  1  0.56863371  0.13677668  0.25003126  1  -1.197105  -0.071326  -0.335227  -0.227679  -0.047544  3.565428  -0.061
N  N182  1  0.25000025  0.49955690  0.74997688  1  -1.186433  0.09862  -0.336356  -0.19527  0.068183  3.575765  0.085
N  N183  1  0.75000648  0.50045807  0.24997729  1  -1.186352  -0.098688  -0.336304  -0.195136  -0.065306  3.576577  -0.085
N  N184  1  0.93182666  0.86377127  0.74991567  1  -1.239658  -0.085899  -0.343879  -0.217251  -0.05727  3.58592  -0.074
N  N185  1  0.06817971  0.13623379  0.24991396  1  -1.239103  -0.085336  -0.343851  -0.217452  -0.056893  3.584937  -0.074
N  N186  1  0.75121019  0.50210316  0.75009224  1  -1.203911  -0.085172  -0.33386  -0.205323  -0.056689  3.612167  -0.074
N  N187  1  0.24878889  0.49789651  0.25008971  1  -1.203832  -0.085037  -0.333899  -0.205397  -0.056594  3.612097  -0.074
N  N188  1  0.32342355  0.88647372  0.90259371  1  -1.298591  -0.000113  -0.341136  -0.508339  -6.5e-05  3.282454  0.0
N  N189  1  0.67657290  0.11352184  0.40259544  1  -1.29813  6e-06  -0.341039  -0.508026  1.5e-05  3.282599  0.0
N  N190  1  0.56293428  0.88658446  0.59733691  1  -1.228108  -0.000107  -0.340372  -0.508315  -6.1e-05  3.282098  0.0
N  N191  1  0.43706520  0.11341300  0.09733576  1  -1.22811  1e-06  -0.340343  -0.508199  1.2e-05  3.282213  0.0
N  N192  1  0.33065394  0.08120566  0.90711258  1  -1.184516  4e-06  -0.245195  -0.161885  5e-06  3.630799  0.0
N  N193  1  0.66934167  0.91878809  0.40710951  1  -1.1854  -3.3e-05  -0.245228  -0.161835  -2e-05  3.630742  0.0
N  N194  1  0.75046688  0.08126424  0.59288669  1  -1.181125  2.3e-05  -0.245673  -0.163346  1.8e-05  3.629723  0.0
N  N195  1  0.24953439  0.91873324  0.09288826  1  -1.181238  -1.6e-05  -0.245666  -0.16347  -1e-05  3.629724  0.0
N  N196  1  0.51833852  0.86157783  0.91557046  1  -1.281002  9e-05  -0.558693  -0.59758  7.4e-05  3.312866  0.0
N  N197  1  0.48165903  0.13841590  0.41557426  1  -1.281049  -0.000724  -0.558566  -0.597503  -0.000427  3.312949  -0.001
N  N198  1  0.34318364  0.86178341  0.58443094  1  -1.284979  9.3e-05  -0.55887  -0.598074  7.6e-05  3.31418  0.0
N  N199  1  0.65681568  0.13821409  0.08442768  1  -1.285275  -0.000723  -0.558788  -0.598003  -0.000425  3.314275  -0.001
O  O200  1  0.89938800  0.69445631  0.87898709  1  -1.272778  0.002681  -0.580486  -0.777684  0.001764  2.050307  0.002
O  O201  1  0.10060767  0.30554204  0.37898696  1  -1.272847  -0.000193  -0.580486  -0.777807  -5.9e-05  2.050126  -0.001
O  O202  1  0.79500841  0.69442126  0.62101645  1  -1.28245  0.002626  -0.58011  -0.777333  0.001729  2.049612  0.002
O  O203  1  0.20499001  0.30557523  0.12102012  1  -1.28239  -0.000139  -0.58019  -0.777339  -2.5e-05  2.049556  -0.001
O  O204  1  0.54564421  0.51764318  0.84083355  1  -1.294754  0.000758  -0.228273  -0.42417  0.000476  2.48944  0.0
O  O205  1  0.45435735  0.48236069  0.34083381  1  -1.294955  -0.001142  -0.228236  -0.424022  -0.00042  2.489677  -0.001
O  O206  1  0.97214408  0.51762204  0.65918663  1  -1.298496  0.000748  -0.228767  -0.424381  0.00047  2.488827  0.0
O  O207  1  0.02784653  0.48237792  0.15918909  1  -1.298639  -0.001083  -0.228579  -0.424268  -0.000385  2.489106  -0.001
O  O208  1  0.67999116  0.73146902  0.88507737  1  -1.472068  0.013203  -0.391411  -0.780781  0.008818  2.106872  0.011
O  O209  1  0.32001271  0.26854372  0.38508888  1  -1.472231  -0.016553  -0.391536  -0.781026  -0.010208  2.106727  -0.015
O  O210  1  0.05136534  0.73135126  0.61484613  1  -1.467014  0.013284  -0.391553  -0.780671  0.008889  2.107931  0.011
O  O211  1  0.94864020  0.26865966  0.11483685  1  -1.467484  -0.016615  -0.391654  -0.780904  -0.010263  2.107792  -0.015
O  O212  1  0.45964064  0.67918316  0.82475376  1  -1.409659  0.055142  -0.381971  -0.773149  0.036487  2.340262  0.049
O  O213  1  0.54036701  0.32078385  0.32470734  1  -1.408903  -0.091451  -0.382225  -0.773847  -0.057969  2.340184  -0.08
O  O214  1  0.21960435  0.67919563  0.67517173  1  -1.402396  0.055082  -0.38225  -0.772669  0.036487  2.33988  0.049
O  O215  1  0.78035330  0.32077277  0.17521737  1  -1.402506  -0.091173  -0.382528  -0.773226  -0.057835  2.339674  -0.08
O  O216  1  0.66267966  0.68410762  0.76272356  1  -1.395426  -0.088338  -0.382747  -0.782317  -0.056185  2.414428  -0.078
O  O217  1  0.33730089  0.31588210  0.26273306  1  -1.395848  -0.090272  -0.383232  -0.782878  -0.056999  2.414613  -0.08
O  O218  1  0.02152934  0.68419075  0.73721549  1  -1.395619  -0.08812  -0.382823  -0.782611  -0.056018  2.415427  -0.078
O  O219  1  0.97847523  0.31579275  0.23720571  1  -1.396105  -0.090076  -0.383049  -0.783068  -0.056846  2.416002  -0.079
O  O220  1  0.17928907  0.67274196  0.83512468  1  -1.270647  -9e-05  -0.612568  -0.793083  2e-06  2.052962  0.001
O  O221  1  0.82070422  0.32725653  0.33512830  1  -1.271377  -0.002702  -0.612748  -0.793506  -0.001758  2.052746  -0.003
O  O222  1  0.49324210  0.67302780  0.66491761  1  -1.277788  -6.1e-05  -0.612962  -0.793948  2.3e-05  2.053445  0.001
O  O223  1  0.50676414  0.32697574  0.16491320  1  -1.278218  -0.002647  -0.613022  -0.794107  -0.001726  2.053484  -0.003
O  O224  1  0.24891233  0.38592146  0.00114849  1  -1.154295  4.9e-05  -0.412949  -0.517257  2.4e-05  2.240938  0.0
O  O225  1  0.75108455  0.61407902  0.50114779  1  -1.154242  2.6e-05  -0.41295  -0.517246  6e-06  2.240989  0.0
O  O226  1  0.13671370  0.38587108  0.49879647  1  -1.147256  4.7e-05  -0.412282  -0.516141  2.3e-05  2.242258  0.0
O  O227  1  0.86328759  0.61412778  0.99879815  1  -1.14725  2.4e-05  -0.412292  -0.516056  5e-06  2.242145  0.0
O  O228  1  0.07366592  0.19070165  0.93791227  1  -1.13044  -7.1e-05  -0.411299  -0.494457  -4.5e-05  2.190292  0.0
O  O229  1  0.92633504  0.80930011  0.43791151  1  -1.133085  -0.000117  -0.411346  -0.494563  -7.2e-05  2.190162  0.0
O  O230  1  0.11699411  0.19087792  0.56213095  1  -1.131744  -6.9e-05  -0.411231  -0.494141  -4.7e-05  2.191366  0.0
O  O231  1  0.88300857  0.80912326  0.06213196  1  -1.131606  -0.000104  -0.411226  -0.49413  -6.3e-05  2.191355  0.0
O  O232  1  0.35535374  0.26709998  0.86610578  1  -1.032446  -1.6e-05  -0.215158  -0.286342  -6e-06  2.398099  0.0
O  O233  1  0.64464226  0.73289571  0.36610316  1  -1.032683  5e-06  -0.215127  -0.286293  1.3e-05  2.398085  0.0
O  O234  1  0.91181697  0.26710077  0.63393402  1  -1.035058  -2.1e-05  -0.215079  -0.285125  -9e-06  2.3964  0.0
O  O235  1  0.08818480  0.73289657  0.13393598  1  -1.034941  -4e-06  -0.215148  -0.285205  7e-06  2.396497  0.0
O  O236  1  0.13046261  0.91357464  0.88744342  1  -1.172596  5.4e-05  -0.30647  -0.542284  3.4e-05  2.177273  0.0
O  O237  1  0.86953684  0.08642368  0.38743921  1  -1.172408  5.2e-05  -0.306506  -0.542318  3.2e-05  2.176948  0.0
O  O238  1  0.78296514  0.91353748  0.61239462  1  -1.181117  7e-05  -0.306914  -0.543013  4.5e-05  2.17436  0.0
O  O239  1  0.21703179  0.08645994  0.11239752  1  -1.181074  6e-05  -0.30698  -0.543048  3.8e-05  2.174035  0.0
