# generated using pymatgen
data_CdH3(CO)5
_symmetry_space_group_name_H-M   'P 1'
_cell_length_a   7.44704031
_cell_length_b   9.52800029
_cell_length_c   9.52794110
_cell_angle_alpha   67.64025379
_cell_angle_beta   71.66663356
_cell_angle_gamma   71.66663149
_symmetry_Int_Tables_number   1
_chemical_formula_structural   CdH3(CO)5
_chemical_formula_sum   'Cd4 H12 C20 O20'
_cell_volume   578.68400467
_cell_formula_units_Z   4
loop_
 _symmetry_equiv_pos_site_id
 _symmetry_equiv_pos_as_xyz
  1  'x, y, z'
loop_
 _atom_site_type_symbol
 _atom_site_label
 _atom_site_symmetry_multiplicity
 _atom_site_fract_x
 _atom_site_fract_y
 _atom_site_fract_z
 _atom_site_occupancy
 _atom_site_pbe_bader_spin_density
 _atom_site_pbe_cm5_charge
 _atom_site_pbe_ddec_charge
 _atom_site_pbe_ddec_spin_density
 _atom_site_pbe_ddec_sum_bond_order
 _atom_site_pbe_magmom
Cd  Cd0  1  0.04289946  0.10258540  0.27354180  1  0  0.80101  1.102246  0  2.017409  0
Cd  Cd1  1  0.45710243  0.72645387  0.89741424  1  0  0.800991  1.102202  0  2.017321  0
Cd  Cd2  1  0.95710215  0.89741532  0.72645611  1  0  0.800991  1.102243  0  2.017427  0
Cd  Cd3  1  0.54289663  0.27354569  0.10258681  1  0  0.801005  1.102196  0  2.017346  0
H  H4  1  0.38440919  0.87630142  0.18319335  1  0  0.292638  0.388631  0  0.944825  0
H  H5  1  0.11559718  0.81680473  0.12369707  1  0  0.292662  0.38868  0  0.944764  0
H  H6  1  0.61559239  0.12369929  0.81680667  1  0  0.292644  0.38864  0  0.944814  0
H  H7  1  0.88440156  0.18319601  0.87630361  1  0  0.292652  0.388665  0  0.944786  0
H  H8  1  0.40780435  0.94295157  0.29896837  1  0  0.289932  0.37775  0  0.969193  0
H  H9  1  0.09220142  0.70102907  0.05704847  1  0  0.289937  0.377774  0  0.969164  0
H  H10  1  0.59219614  0.05704799  0.70103128  1  0  0.289927  0.377769  0  0.969172  0
H  H11  1  0.90780049  0.29897048  0.94295086  1  0  0.289928  0.377757  0  0.969186  0
H  H12  1  0.26811651  0.68014016  0.46876873  1  0  0.103701  0.122028  0  1.035496  0
H  H13  1  0.23187763  0.53122071  0.31985386  1  0  0.103715  0.122026  0  1.035609  0
H  H14  1  0.73188226  0.31986057  0.53122984  1  0  0.103714  0.122032  0  1.035531  0
H  H15  1  0.76811860  0.46877888  0.68014679  1  0  0.103713  0.122024  0  1.035611  0
C  C16  1  0.26484321  0.25246239  0.92425999  1  0  0.221992  0.607941  0  4.173513  0
C  C17  1  0.23516040  0.07573551  0.74753975  1  0  0.221915  0.607814  0  4.173512  0
C  C18  1  0.73515838  0.74753832  0.07573897  1  0  0.222061  0.608167  0  4.1733  0
C  C19  1  0.76484007  0.92426405  0.25246097  1  0  0.221924  0.607803  0  4.17344  0
C  C20  1  0.26149106  0.32992114  0.75410593  1  0  -0.003087  -0.065003  0  3.902713  0
C  C21  1  0.23850699  0.24589202  0.67007847  1  0  -0.003072  -0.06489  0  3.902636  0
C  C22  1  0.73851194  0.67007956  0.24589375  1  0  -0.003109  -0.06509  0  3.902812  0
C  C23  1  0.76149237  0.75410639  0.32992294  1  0  -0.003078  -0.06485  0  3.902774  0
C  C24  1  0.27056834  0.48755413  0.68209266  1  0  -0.006167  -0.038812  0  3.919896  0
C  C25  1  0.22942938  0.31790117  0.51244215  1  0  -0.006152  -0.038854  0  3.920003  0
C  C26  1  0.72943074  0.51244544  0.31790628  1  0  -0.006167  -0.038824  0  3.91995  0
C  C27  1  0.77056796  0.68209957  0.48755781  1  0  -0.00615  -0.038906  0  3.920092  0
C  C28  1  0.25914714  0.55851835  0.52566826  1  0  -0.080067  -0.084496  0  3.936753  0
C  C29  1  0.24084948  0.47432404  0.44147431  1  0  -0.079984  -0.084358  0  3.936799  0
C  C30  1  0.74085194  0.44148122  0.47433068  1  0  -0.080092  -0.084478  0  3.936748  0
C  C31  1  0.75914817  0.52567554  0.55852601  1  0  -0.079965  -0.084346  0  3.936819  0
C  C32  1  0.30483312  0.58024864  0.76382274  1  0  0.214226  0.596087  0  4.155509  0
C  C33  1  0.19516950  0.23616810  0.41974806  1  0  0.214296  0.596079  0  4.155515  0
C  C34  1  0.69516597  0.41975094  0.23617514  1  0  0.214167  0.595974  0  4.155551  0
C  C35  1  0.80482988  0.76383031  0.58025229  1  0  0.21426  0.596099  0  4.155525  0
O  O36  1  0.10002492  0.26524578  0.01823773  1  0  -0.300618  -0.54288  0  2.320292  0
O  O37  1  0.39996293  0.98176835  0.73475501  1  0  -0.300552  -0.542789  0  2.320561  0
O  O38  1  0.89997728  0.73475260  0.98176301  1  0  -0.30061  -0.542951  0  2.32024  0
O  O39  1  0.60003614  0.01823122  0.26524499  1  0  -0.300553  -0.542782  0  2.320559  0
O  O40  1  0.42486264  0.17748234  0.96369786  1  0  -0.312534  -0.566413  0  2.326399  0
O  O41  1  0.07512322  0.03630379  0.82252410  1  0  -0.312524  -0.566424  0  2.326121  0
O  O42  1  0.57514209  0.82251719  0.03630185  1  0  -0.312607  -0.566566  0  2.326412  0
O  O43  1  0.92487836  0.96369692  0.17747591  1  0  -0.312514  -0.566398  0  2.326071  0
O  O44  1  0.39205131  0.51129929  0.87642550  1  0  -0.312046  -0.559391  0  2.266644  0
O  O45  1  0.10794955  0.12356280  0.48869992  1  0  -0.312162  -0.55946  0  2.266536  0
O  O46  1  0.60794634  0.48870030  0.12357483  1  0  -0.311996  -0.559282  0  2.266567  0
O  O47  1  0.89204951  0.87643677  0.51130008  1  0  -0.312144  -0.55946  0  2.266504  0
O  O48  1  0.25807106  0.72889041  0.71245455  1  0  -0.329026  -0.59037  0  2.312325  0
O  O49  1  0.24192725  0.28753765  0.27111141  1  0  -0.329004  -0.590341  0  2.312405  0
O  O50  1  0.74192801  0.27110916  0.28754544  1  0  -0.329019  -0.590338  0  2.312297  0
O  O51  1  0.75807214  0.71246075  0.72888789  1  0  -0.328987  -0.590324  0  2.312393  0
O  O52  1  0.31030665  0.90449269  0.27951467  1  0  -0.579984  -0.747355  0  2.125837  0
O  O53  1  0.18969604  0.72048152  0.09550834  1  0  -0.580032  -0.747416  0  2.125761  0
O  O54  1  0.68969636  0.09550801  0.72048395  1  0  -0.579988  -0.747394  0  2.125817  0
O  O55  1  0.81030443  0.27951804  0.90449237  1  0  -0.580013  -0.747384  0  2.125823  0
