# generated using pymatgen
data_NiH6C4O7
_symmetry_space_group_name_H-M   'P 1'
_cell_length_a   7.88485129
_cell_length_b   10.65647057
_cell_length_c   17.94300000
_cell_angle_alpha   90.00000000
_cell_angle_beta   90.00000000
_cell_angle_gamma   90.00000000
_symmetry_Int_Tables_number   1
_chemical_formula_structural   NiH6C4O7
_chemical_formula_sum   'Ni8 H48 C32 O56'
_cell_volume   1507.65493593
_cell_formula_units_Z   8
loop_
 _symmetry_equiv_pos_site_id
 _symmetry_equiv_pos_as_xyz
  1  'x, y, z'
loop_
 _atom_site_type_symbol
 _atom_site_label
 _atom_site_symmetry_multiplicity
 _atom_site_fract_x
 _atom_site_fract_y
 _atom_site_fract_z
 _atom_site_occupancy
 _atom_site_hle17_ddec_charge
 _atom_site_hle17_ddec_spin_density
 _atom_site_hle17_ddec_sum_bond_order
 _atom_site_hle17_magmom
 _atom_site_hse06_10hf_ddec_charge
 _atom_site_hse06_10hf_ddec_spin_density
 _atom_site_hse06_10hf_ddec_sum_bond_order
 _atom_site_hse06_10hf_magmom
 _atom_site_hse06_ddec_charge
 _atom_site_hse06_ddec_spin_density
 _atom_site_hse06_ddec_sum_bond_order
 _atom_site_hse06_magmom
 _atom_site_pbe_bader_charge
 _atom_site_pbe_bader_spin_density
 _atom_site_pbe_cm5_charge
 _atom_site_pbe_ddec_charge
 _atom_site_pbe_ddec_spin_density
 _atom_site_pbe_ddec_sum_bond_order
 _atom_site_pbe_magmom
Ni  Ni0  1  0.15555525  0.22613116  0.34306861  1  0.970335  1.792251  1.821922  1.544  0.980392  1.851085  2.208886  1.671  1.063115  1.900559  2.146038  1.751  1.223031  1.611095  0.622956  0.903957  1.802393  2.273818  1.599
Ni  Ni1  1  0.65551395  0.27397533  0.65691635  1  0.970327  1.792288  1.822341  1.544  0.980417  1.851066  2.209288  1.672  1.063117  1.900515  2.146451  1.751  1.223598  1.611605  0.623275  0.904433  1.802908  2.273814  1.599
Ni  Ni2  1  0.84446995  0.72605183  0.15689684  1  0.970511  1.793467  1.821939  1.545  0.980558  1.851326  2.208755  1.672  1.063182  1.900437  2.145966  1.75  1.223836  1.612384  0.623176  0.904305  1.803867  2.273579  1.601
Ni  Ni3  1  0.34448082  0.77392416  0.84307697  1  0.970512  1.793515  1.822137  1.545  0.980579  1.851319  2.209118  1.672  1.063251  1.900422  2.146233  1.75  1.223569  1.612768  0.623267  0.904451  1.804391  2.274036  1.601
Ni  Ni4  1  0.63328398  0.27577142  0.13250571  1  0.948711  -1.877093  1.803517  -1.533  0.962735  -1.903621  2.188015  -1.663  1.049896  -1.964634  2.120854  -1.744  1.211445  -1.599907  0.61742  0.884828  -1.843032  2.254128  -1.589
Ni  Ni5  1  0.13310968  0.22416052  0.86753386  1  0.948234  -1.877063  1.803887  -1.533  0.962509  -1.903696  2.188061  -1.663  1.049417  -1.964708  2.121331  -1.744  1.211541  -1.599912  0.617353  0.884745  -1.843092  2.253909  -1.589
Ni  Ni6  1  0.36678054  0.77587602  0.36751825  1  0.948039  1.78236  1.8041  1.533  0.962333  1.84404  2.1889  1.662  1.049583  1.896706  2.12138  1.744  1.21197  1.600697  0.617298  0.884608  1.794357  2.254813  1.59
Ni  Ni7  1  0.86685084  0.72418442  0.63247172  1  0.947695  1.782431  1.804139  1.533  0.96211  1.844142  2.188823  1.662  1.049319  1.896821  2.121375  1.744  1.212105  1.600713  0.617293  0.884456  1.794478  2.254608  1.59
H  H8  1  0.47066709  0.36932866  0.23440562  1  0.391728  0.00064  0.866189  0.001  0.369563  0.000235  0.934264  0.001  0.381442  0.000273  0.9215  0.001  0.650765  0.000517  0.310266  0.361038  0.000187  0.94294  0.001
H  H9  1  0.97055984  0.13062674  0.76556707  1  0.391615  0.000639  0.866206  0.001  0.369494  0.000234  0.93432  0.001  0.381376  0.000272  0.921548  0.001  0.650196  0.00052  0.310265  0.360958  0.000188  0.94303  0.001
H  H10  1  0.52936192  0.86944171  0.26554812  1  0.391493  -0.000257  0.866626  -0.001  0.36953  0.00012  0.934404  0.0  0.381421  -8.3e-05  0.921625  0.0  0.650254  2.5e-05  0.310153  0.360965  0.000348  0.943176  0.0
H  H11  1  0.02945902  0.63059809  0.73443293  1  0.391725  -0.000257  0.866232  -0.001  0.369714  0.000119  0.934208  0.0  0.381613  -8.3e-05  0.921407  0.0  0.649704  2.5e-05  0.310373  0.361148  0.00035  0.942989  0.0
H  H12  1  0.01247075  0.60089501  0.25022906  1  0.39771  -0.00012  0.83252  -0.001  0.379428  0.000207  0.894991  0.0  0.390672  7e-06  0.882528  0.0  0.625017  0.000331  0.320961  0.371207  0.000429  0.9036  0.0
H  H13  1  0.51251823  0.89922643  0.74979881  1  0.398062  -0.000121  0.832006  -0.001  0.379594  0.000207  0.894724  0.0  0.390837  7e-06  0.882257  0.0  0.625375  0.000332  0.320965  0.371387  0.000432  0.903314  0.0
H  H14  1  0.98754177  0.10097809  0.24980159  1  0.397619  -0.000593  0.832916  -0.001  0.379295  -0.000208  0.895439  0.0  0.390535  -0.000248  0.882984  0.0  0.626169  -0.000323  0.32094  0.371092  -0.000154  0.904018  0.0
H  H15  1  0.48750571  0.39922974  0.75019172  1  0.397831  -0.00059  0.831912  -0.001  0.379533  -0.000205  0.894423  0.0  0.390759  -0.000247  0.881971  0.0  0.625713  -0.000319  0.320985  0.371331  -0.000149  0.90302  0.0
H  H16  1  0.08203706  0.86338154  0.44092682  1  0.405712  0.000269  0.799309  0.0  0.394991  0.000541  0.848651  0.001  0.404397  0.000328  0.839197  0.0  0.632489  0.001058  0.342912  0.387845  0.000754  0.855691  0.001
H  H17  1  0.58207566  0.63661885  0.55907875  1  0.405753  0.000267  0.799205  0.0  0.395016  0.00054  0.848576  0.001  0.404419  0.000327  0.83912  0.0  0.632245  0.001057  0.342844  0.387873  0.000754  0.855622  0.001
H  H18  1  0.91796532  0.36331072  0.05902580  1  0.405231  -0.000323  0.799575  0.0  0.394484  -0.000581  0.848907  -0.001  0.40387  -0.000358  0.839508  0.0  0.632475  -0.001047  0.342707  0.387349  -0.000799  0.855929  -0.001
H  H19  1  0.41794574  0.13653395  0.94086942  1  0.406138  -0.000322  0.798864  0.0  0.395364  -0.00058  0.848266  -0.001  0.404774  -0.000357  0.83879  0.0  0.632964  -0.001041  0.343038  0.388224  -0.000796  0.855325  -0.001
H  H20  1  0.42677279  0.20641168  0.42470880  1  0.374594  -0.000421  0.894792  -0.001  0.352896  -9.5e-05  0.963444  0.0  0.364054  -0.000169  0.9516  0.0  0.646536  -0.000214  0.305501  0.344871  -8e-06  0.971513  0.0
H  H21  1  0.92675559  0.29354560  0.57528005  1  0.374405  -0.000421  0.895031  -0.001  0.352669  -9.4e-05  0.963707  0.0  0.363817  -0.000169  0.951903  0.0  0.646045  -0.000213  0.305399  0.34465  -6e-06  0.971782  0.0
H  H22  1  0.57322578  0.70635300  0.07528897  1  0.374705  -0.000416  0.894619  -0.001  0.352854  -8.6e-05  0.963517  0.0  0.36401  -0.000163  0.951681  0.0  0.646377  -0.000208  0.305488  0.344832  5e-06  0.971575  0.0
H  H23  1  0.07325693  0.79347378  0.92473499  1  0.374895  -0.000416  0.894412  -0.001  0.353113  -8.6e-05  0.963198  0.0  0.364267  -0.000163  0.951372  0.0  0.645854  -0.000207  0.305591  0.345104  6e-06  0.971262  0.0
H  H24  1  0.33818393  0.38480283  0.41499471  1  0.406666  -0.000235  0.909485  -0.001  0.37689  0.000239  0.973429  0.0  0.388701  9.5e-05  0.956235  0.0  0.640219  -4.4e-05  0.291982  0.36817  0.000372  0.986058  0.0
H  H25  1  0.83807288  0.11520325  0.58503483  1  0.406648  -0.000237  0.909519  -0.001  0.376749  0.000238  0.973633  0.0  0.388565  9.5e-05  0.956431  0.0  0.641159  -4.6e-05  0.291979  0.368056  0.000371  0.986229  0.0
H  H26  1  0.66187678  0.88470661  0.08495179  1  0.406814  -0.000307  0.909281  -0.001  0.376691  0.000115  0.973684  0.0  0.388505  1.1e-05  0.956484  0.0  0.639973  -0.000145  0.291905  0.367969  0.000207  0.986315  0.0
H  H27  1  0.16184452  0.61512580  0.91490330  1  0.406549  -0.000307  0.909671  -0.001  0.376704  0.000116  0.973741  0.0  0.388523  1.1e-05  0.956542  0.0  0.642012  -0.000145  0.291979  0.368004  0.000209  0.986339  0.0
H  H28  1  0.14844668  0.44374730  0.40684780  1  0.430983  -0.00037  0.869687  -0.001  0.404485  2.9e-05  0.926741  0.0  0.415498  -6.4e-05  0.910944  0.0  0.655697  -0.00028  0.302413  0.396425  0.000113  0.93821  0.0
H  H29  1  0.64835465  0.05627754  0.59319233  1  0.430759  -0.00037  0.869955  -0.001  0.4043  2.9e-05  0.926942  0.0  0.415317  -6.4e-05  0.911137  0.0  0.656358  -0.000281  0.302336  0.39625  0.000115  0.938401  0.0
H  H30  1  0.85163052  0.94365202  0.09309647  1  0.431132  -0.000267  0.86956  -0.001  0.404584  7.9e-05  0.926703  0.0  0.415597  -2.4e-05  0.910908  0.0  0.656894  -0.000198  0.302367  0.396517  0.000173  0.938178  0.0
H  H31  1  0.35158051  0.55621418  0.90679875  1  0.430372  -0.000265  0.870525  -0.001  0.404075  8.1e-05  0.92716  0.0  0.415075  -2.2e-05  0.911397  0.0  0.655903  -0.000202  0.302314  0.396025  0.000176  0.938612  0.0
H  H32  1  0.59767900  0.07355343  0.07800089  1  0.4158  0.001145  0.856034  0.002  0.391367  0.000565  0.929881  0.001  0.401505  0.000517  0.918823  0.001  0.626842  0.00121  0.304084  0.38376  0.000608  0.93802  0.001
H  H33  1  0.09735757  0.42631000  0.92216519  1  0.415154  0.001142  0.85627  0.002  0.390919  0.000563  0.929974  0.001  0.401053  0.000515  0.91892  0.001  0.628661  0.001209  0.303822  0.383302  0.000605  0.938124  0.001
H  H34  1  0.40244259  0.57366085  0.42206097  1  0.415298  -0.000565  0.856686  -0.002  0.390979  0.000137  0.93019  0.0  0.401105  -3.5e-05  0.919166  -0.001  0.627493  -0.00033  0.303905  0.383391  0.00033  0.938257  0.0
H  H35  1  0.90242032  0.92640898  0.57791506  1  0.415301  -0.000565  0.856473  -0.002  0.390932  0.000137  0.930147  0.0  0.40106  -3.5e-05  0.919121  -0.001  0.627803  -0.000326  0.303982  0.383334  0.000331  0.938229  0.0
H  H36  1  0.77956068  0.11021191  0.04713036  1  0.411173  0.000281  0.906901  0.001  0.378951  -7.2e-05  0.97419  0.0  0.391793  5.2e-05  0.955814  0.0  0.641305  0.000207  0.286276  0.369709  -0.000195  0.987334  0.0
H  H37  1  0.27932042  0.38970126  0.95298891  1  0.411245  0.000281  0.906669  0.001  0.379003  -7.2e-05  0.973996  0.0  0.391848  5.2e-05  0.955612  0.0  0.643395  0.000207  0.286461  0.369753  -0.000194  0.987161  0.0
H  H38  1  0.22053174  0.61028930  0.45290810  1  0.411198  -0.000174  0.906862  -0.001  0.378844  0.000242  0.974293  0.0  0.391683  7e-05  0.955926  0.0  0.642031  -0.000139  0.286287  0.369607  0.000413  0.987431  0.0
H  H39  1  0.72049425  0.88974393  0.54709469  1  0.410958  -0.000173  0.907234  -0.001  0.378673  0.000243  0.974587  0.0  0.391514  7.1e-05  0.956217  0.0  0.641736  -0.000137  0.286201  0.369433  0.000414  0.987728  0.0
H  H40  1  0.63594351  0.39565257  0.32613331  1  0.097553  -0.000401  0.92925  -0.001  0.101034  -0.000161  0.994023  0.0  0.104066  -0.000151  0.991705  0.0  0.155914  -0.000431  0.122364  0.098609  -0.000146  0.996245  0.0
H  H41  1  0.13594423  0.10439573  0.67386056  1  0.097721  -0.000401  0.928904  -0.001  0.101026  -0.000161  0.993843  0.0  0.104155  -0.000151  0.991419  0.0  0.156184  -0.000427  0.122312  0.098619  -0.000144  0.99605  0.0
H  H42  1  0.36397009  0.89569243  0.17384718  1  0.097516  0.000175  0.929537  0.0  0.100998  0.000303  0.9943  0.0  0.104067  0.000176  0.991958  0.0  0.155774  0.000937  0.122364  0.09856  0.000437  0.996511  0.001
H  H43  1  0.86405688  0.60437459  0.82613610  1  0.09763  0.000175  0.929214  0.0  0.101041  0.000302  0.993992  0.0  0.104138  0.000176  0.991622  0.0  0.155925  0.000942  0.122346  0.098629  0.000439  0.996187  0.001
H  H44  1  0.84884797  0.54187265  0.33596333  1  0.093148  9.6e-05  0.927659  0.0  0.096512  0.000232  0.994674  0.0  0.099351  0.000146  0.992372  0.0  0.159122  0.000455  0.124179  0.094239  0.000315  0.996776  0.0
H  H45  1  0.34894000  0.95824503  0.66405172  1  0.093295  9.5e-05  0.927644  0.0  0.096451  0.000231  0.994544  0.0  0.099318  0.000145  0.992276  0.0  0.158078  0.000458  0.124224  0.094199  0.000316  0.996633  0.0
H  H46  1  0.15105294  0.04193696  0.16404615  1  0.092818  0.000934  0.927964  0.001  0.096197  0.000625  0.994801  0.001  0.099057  0.000428  0.992462  0.001  0.158571  0.001706  0.124044  0.093925  0.000829  0.996923  0.001
H  H47  1  0.65105096  0.45822582  0.83595162  1  0.093017  0.000933  0.927627  0.001  0.096323  0.000625  0.994419  0.001  0.099197  0.000428  0.992146  0.001  0.157741  0.001713  0.124148  0.094076  0.000832  0.996519  0.001
H  H48  1  0.20591511  0.92651689  0.54099147  1  0.086053  0.000213  0.919554  0.0  0.09182  0.00032  0.984165  0.0  0.094421  0.000209  0.982342  0.0  0.113926  0.000962  0.123375  0.089713  0.000438  0.985898  0.001
H  H49  1  0.70596766  0.57350602  0.45901577  1  0.086083  0.000212  0.919441  0.0  0.09166  0.00032  0.984115  0.0  0.094268  0.000209  0.982299  0.0  0.113909  0.000959  0.123254  0.089574  0.000437  0.985831  0.001
H  H50  1  0.79391732  0.42642073  0.95899627  1  0.085995  0.000111  0.919127  0.0  0.091619  8e-06  0.983832  0.0  0.094214  5e-06  0.982004  0.0  0.113716  7.3e-05  0.123109  0.089518  2.3e-05  0.985562  0.0
H  H51  1  0.29410193  0.07347273  0.04096249  1  0.086252  0.000108  0.919464  0.0  0.091881  8e-06  0.984026  0.0  0.094468  5e-06  0.982216  0.0  0.112845  7e-05  0.123416  0.089812  2.2e-05  0.985711  0.0
H  H52  1  0.34868508  0.13515263  0.53092627  1  0.096686  0.000633  0.934995  0.001  0.09976  0.000598  1.002864  0.001  0.103243  0.000398  0.999945  0.001  0.132123  0.001749  0.122234  0.097002  0.000799  1.005359  0.001
H  H53  1  0.84877948  0.36488629  0.46906649  1  0.096662  0.000637  0.93509  0.001  0.099864  0.000599  1.002953  0.001  0.103364  0.000398  0.999993  0.001  0.132234  0.001749  0.122209  0.097139  0.0008  1.005431  0.001
H  H54  1  0.65124373  0.63505360  0.96906872  1  0.096791  0.000259  0.934879  0.0  0.099963  0.000281  1.002698  0.0  0.103441  0.000187  0.999757  0.0  0.132356  0.000674  0.122235  0.097211  0.000365  1.0052  0.0
H  H55  1  0.15126855  0.86485670  0.03094856  1  0.096662  0.000259  0.935002  0.0  0.09964  0.000282  1.003136  0.0  0.10312  0.000187  1.000211  0.0  0.131603  0.000678  0.122167  0.096927  0.000366  1.005607  0.0
C  C56  1  0.83517618  0.31538679  0.26211392  1  0.651416  -0.001504  3.833569  -0.003  0.608204  -0.00011  4.143862  -0.001  0.645783  -4.9e-05  4.136455  0.0  1.604853  -0.001284  0.218384  0.581027  -0.00026  4.146946  -0.001
C  C57  1  0.33501710  0.18476568  0.73791897  1  0.652114  -0.001481  3.834555  -0.003  0.608692  -9.8e-05  4.145084  -0.001  0.64629  -3.8e-05  4.137631  0.0  1.603894  -0.001238  0.218566  0.581521  -0.000238  4.14819  -0.001
C  C58  1  0.16491116  0.81532905  0.23789221  1  0.651923  -0.004103  3.83344  -0.008  0.608595  0.001109  4.144094  0.0  0.646193  0.000574  4.136668  0.0  1.604973  -0.000218  0.218558  0.581375  0.0015  4.147275  0.0
C  C59  1  0.66501825  0.68475580  0.76208326  1  0.651929  -0.004099  3.834493  -0.008  0.608881  0.001113  4.144622  0.0  0.646505  0.000577  4.137159  0.0  1.603124  -0.000205  0.218599  0.581678  0.001511  4.147784  0.0
C  C60  1  0.69812858  0.41627291  0.27244719  1  0.064307  0.006904  3.577644  0.01  0.039894  0.002782  3.829071  0.005  0.040929  0.00192  3.837282  0.003  0.417755  0.007044  -0.000404  0.038905  0.003722  3.823441  0.006
C  C61  1  0.19811407  0.08379979  0.72755504  1  0.063654  0.006899  3.578012  0.01  0.039454  0.002778  3.828993  0.005  0.040452  0.001916  3.837207  0.003  0.417493  0.007042  -0.000444  0.038453  0.003724  3.823347  0.006
C  C62  1  0.30177868  0.91626397  0.22753720  1  0.064164  0.007535  3.577635  0.009  0.039616  0.004622  3.828903  0.005  0.040588  0.00297  3.837107  0.003  0.417721  0.010151  -0.000403  0.038714  0.00638  3.823311  0.007
C  C63  1  0.80187435  0.58380211  0.77244608  1  0.0639  0.007533  3.577615  0.009  0.039646  0.004622  3.828294  0.005  0.040622  0.00297  3.83652  0.003  0.417688  0.010167  -0.000363  0.038735  0.006391  3.822686  0.007
C  C64  1  0.78361275  0.54506508  0.28167475  1  0.066272  0.00538  3.569455  0.006  0.04155  0.003753  3.820191  0.004  0.042971  0.00249  3.82703  0.003  0.379736  0.008106  0.003632  0.040289  0.005061  3.815528  0.005
C  C65  1  0.28367815  0.95502727  0.71833027  1  0.065823  0.005375  3.570519  0.006  0.042051  0.003751  3.81972  0.004  0.043292  0.002489  3.826856  0.003  0.381344  0.008115  0.00386  0.040825  0.005062  3.814965  0.005
C  C66  1  0.21629831  0.04505901  0.21832971  1  0.066036  -0.004709  3.570102  -0.007  0.042136  -0.001634  3.819918  -0.003  0.043593  -0.00124  3.826737  -0.002  0.379957  -0.003373  0.003726  0.040802  -0.002012  3.815239  -0.004
C  C67  1  0.71631789  0.45503433  0.78167475  1  0.066061  -0.004703  3.570005  -0.007  0.04213  -0.001633  3.819319  -0.003  0.043427  -0.001238  3.826406  -0.002  0.381112  -0.003367  0.003808  0.040782  -0.002006  3.814615  -0.004
C  C68  1  0.65490138  0.65263447  0.28610489  1  0.656753  -0.006206  3.809723  -0.011  0.610604  -0.000655  4.120291  -0.003  0.648357  -0.000833  4.112805  -0.003  1.596878  -0.002712  0.225214  0.583363  -0.000616  4.123518  -0.004
C  C69  1  0.15497819  0.84745319  0.71387393  1  0.656983  -0.006206  3.809895  -0.011  0.610644  -0.000657  4.120353  -0.003  0.648412  -0.000835  4.112929  -0.003  1.595548  -0.002713  0.22509  0.583405  -0.000613  4.123555  -0.004
C  C70  1  0.34515426  0.15257397  0.21389288  1  0.657414  0.001337  3.808888  0.003  0.610571  0.000572  4.120037  0.002  0.64832  0.000451  4.11254  0.001  1.595341  0.001431  0.225135  0.583359  0.000728  4.123223  0.002
C  C71  1  0.84505208  0.34743867  0.78613443  1  0.657061  0.001333  3.81033  0.003  0.610679  0.000569  4.120613  0.002  0.648426  0.000449  4.113174  0.001  1.596558  0.001434  0.225211  0.583499  0.00073  4.123764  0.002
C  C72  1  0.45610245  0.91061200  0.49537536  1  0.647346  -0.002755  3.839517  -0.005  0.597369  0.00089  4.148295  0.0  0.632204  0.000511  4.142325  0.0  1.606461  0.000297  0.215896  0.572827  0.001251  4.151504  0.0
C  C73  1  0.95614739  0.58942029  0.50462687  1  0.647718  -0.002755  3.839607  -0.005  0.597912  0.00089  4.147834  0.0  0.632722  0.000512  4.141926  0.0  1.607278  0.000302  0.21636  0.573364  0.00125  4.151041  0.0
C  C74  1  0.54380353  0.41051584  0.00467815  1  0.646312  0.00268  3.84204  0.005  0.59737  -0.000646  4.149203  0.0  0.632243  -0.000379  4.143175  0.0  1.606873  0.00026  0.216172  0.572822  -0.000869  4.152367  0.0
C  C75  1  0.04389937  0.08936073  0.99537201  1  0.647784  0.002672  3.83938  0.005  0.597424  -0.000652  4.148625  0.0  0.632271  -0.000384  4.142618  0.0  1.607065  0.000254  0.215952  0.572877  -0.000876  4.151787  0.0
C  C76  1  0.27194425  0.95456652  0.48965000  1  0.067948  0.001141  3.584409  0.001  0.041721  0.001259  3.840019  0.001  0.043918  0.000701  3.846212  0.0  0.397414  0.00313  0.003008  0.040008  0.001875  3.835545  0.001
C  C77  1  0.77200188  0.54544889  0.51036003  1  0.067285  0.001143  3.585502  0.001  0.041635  0.001256  3.840487  0.001  0.04379  0.000699  3.846765  0.0  0.396664  0.003127  0.002936  0.039925  0.001873  3.835993  0.001
C  C78  1  0.72795793  0.45447974  0.01035278  1  0.06796  -0.00076  3.585015  -0.001  0.041698  -0.000832  3.840132  -0.001  0.043893  -0.000493  3.846298  0.0  0.396406  -0.001716  0.00292  0.039987  -0.001148  3.835655  -0.001
C  C79  1  0.22804362  0.04540528  0.98963161  1  0.067364  -0.000755  3.584939  -0.001  0.041719  -0.000833  3.840187  -0.001  0.043928  -0.000493  3.846362  0.0  0.398908  -0.001718  0.002882  0.040004  -0.001149  3.835689  -0.001
C  C80  1  0.27262657  0.09858705  0.48433317  1  0.04464  0.001071  3.610216  0.0  0.018228  0.001422  3.867735  0.001  0.01969  0.000824  3.873837  0.0  0.461297  0.003195  -0.00804  0.016972  0.002092  3.863215  0.001
C  C81  1  0.77269688  0.40142934  0.51565569  1  0.044995  0.001065  3.60983  0.0  0.01802  0.001425  3.867822  0.001  0.0195  0.000827  3.87394  0.0  0.462091  0.003204  -0.007947  0.016743  0.002095  3.863295  0.001
C  C82  1  0.72732760  0.59849084  0.01565736  1  0.044638  0.00011  3.610753  -0.001  0.018059  0.000642  3.86834  0.0  0.019546  0.000378  3.87446  0.0  0.462233  0.001222  -0.00758  0.01679  0.000885  3.863817  0.0
C  C83  1  0.22733847  0.90137536  0.98434821  1  0.044833  0.00011  3.609895  -0.001  0.018086  0.000642  3.867759  0.0  0.019555  0.000379  3.873873  0.0  0.462155  0.001221  -0.007927  0.016813  0.000887  3.863224  0.0
C  C84  1  0.09379124  0.15140566  0.49370785  1  0.640103  -0.002593  3.850651  -0.005  0.58782  0.000656  4.166785  0.0  0.622806  0.000313  4.159159  0.0  1.56847  -1.9e-05  0.210892  0.563181  0.000929  4.170868  0.0
C  C85  1  0.59386028  0.34860041  0.50625704  1  0.639903  -0.002594  3.849825  -0.005  0.58772  0.000653  4.166102  0.0  0.622685  0.000309  4.158478  0.0  1.568288  -1.6e-05  0.211016  0.563086  0.00093  4.170189  0.0
C  C86  1  0.90618577  0.65129538  0.00625369  1  0.639934  -0.00299  3.850055  -0.005  0.587806  0.000129  4.166105  0.0  0.622777  -3.8e-05  4.15846  0.0  1.56734  -0.000797  0.210583  0.56317  0.000211  4.170214  -0.001
C  C87  1  0.40616492  0.84852859  0.99374129  1  0.640186  -0.002993  3.849997  -0.005  0.588044  0.000129  4.166013  0.0  0.623005  -3.9e-05  4.158406  0.0  1.56843  -0.0008  0.211313  0.563406  0.000211  4.170099  -0.001
O  O88  1  0.81881189  0.23072555  0.21213788  1  -0.603558  -0.039547  1.991743  -0.061  -0.577155  -0.025024  2.243517  -0.039  -0.611045  -0.019718  2.228985  -0.031  -1.140462  -0.049619  -0.307216  -0.550011  -0.029545  2.252973  -0.046
O  O89  1  0.31857037  0.26935560  0.78792287  1  -0.603566  -0.039592  1.992821  -0.061  -0.577189  -0.025033  2.244709  -0.039  -0.611046  -0.019725  2.230184  -0.031  -1.143115  -0.049638  -0.307143  -0.550052  -0.029541  2.254156  -0.046
O  O90  1  0.18132238  0.73072130  0.28790225  1  -0.603262  0.036962  1.991312  0.061  -0.577181  0.023253  2.243318  0.039  -0.611133  0.017613  2.228749  0.03  -1.141674  0.050059  -0.307278  -0.550015  0.02842  2.252782  0.046
O  O91  1  0.68145610  0.76936167  0.71208159  1  -0.603062  0.036958  1.992881  0.061  -0.577072  0.023244  2.244727  0.039  -0.611019  0.017607  2.230151  0.03  -1.14291  0.050059  -0.307075  -0.549901  0.028407  2.254171  0.046
O  O92  1  0.95489943  0.32507855  0.30815917  1  -0.572948  0.048539  2.131247  0.08  -0.551964  0.029433  2.411979  0.049  -0.589226  0.02271  2.399926  0.039  -1.15953  0.0618  -0.302348  -0.521356  0.035256  2.419506  0.058
O  O93  1  0.45470357  0.17521843  0.69184975  1  -0.573236  0.04845  2.13116  0.08  -0.552237  0.029383  2.411989  0.049  -0.589483  0.022675  2.399897  0.039  -1.157306  0.061764  -0.302613  -0.52166  0.03523  2.419512  0.058
O  O94  1  0.04525640  0.82484533  0.19180683  1  -0.572797  0.058047  2.130829  0.095  -0.551918  0.034571  2.411582  0.057  -0.589128  0.025629  2.399501  0.043  -1.159048  0.076053  -0.302573  -0.52156  0.043099  2.419218  0.07
O  O95  1  0.54534066  0.67524420  0.80816697  1  -0.57296  0.058044  2.130844  0.095  -0.552432  0.034571  2.411786  0.057  -0.589662  0.025629  2.399681  0.043  -1.157064  0.076161  -0.302869  -0.522025  0.043152  2.419407  0.07
O  O96  1  0.57381805  0.41221434  0.21406510  1  -0.507306  -0.038109  2.135474  -0.058  -0.480408  -0.027666  2.380935  -0.043  -0.50658  -0.021901  2.368491  -0.035  -1.116631  -0.054104  -0.371445  -0.45846  -0.032297  2.388679  -0.049
O  O97  1  0.07373126  0.08777766  0.78592710  1  -0.50701  -0.038133  2.135108  -0.058  -0.480408  -0.027678  2.380578  -0.043  -0.506533  -0.021908  2.368147  -0.035  -1.115344  -0.054114  -0.371476  -0.45847  -0.032299  2.388323  -0.049
O  O98  1  0.42619954  0.91224857  0.28591819  1  -0.507405  0.041918  2.134905  0.067  -0.480504  0.029896  2.380253  0.048  -0.506623  0.022912  2.367727  0.038  -1.115675  0.06368  -0.37159  -0.458792  0.036277  2.388147  0.057
O  O99  1  0.92629775  0.58778560  0.71406677  1  -0.507549  0.041913  2.134395  0.067  -0.480841  0.029896  2.379704  0.048  -0.506928  0.022911  2.367163  0.038  -1.114927  0.063685  -0.37189  -0.459135  0.03628  2.387591  0.057
O  O100  1  0.91009579  0.56768702  0.22502090  1  -0.513519  0.033224  2.115671  0.053  -0.48573  0.024505  2.357294  0.039  -0.508964  0.018809  2.342477  0.031  -1.084314  0.051906  -0.368731  -0.465626  0.029991  2.366843  0.047
O  O101  1  0.41011807  0.93240346  0.77500251  1  -0.513952  0.033199  2.115299  0.053  -0.486134  0.0245  2.356585  0.039  -0.509321  0.018803  2.341827  0.031  -1.084056  0.051936  -0.368762  -0.466022  0.030018  2.366121  0.047
O  O102  1  0.08990404  0.06769690  0.27499303  1  -0.513232  0.028203  2.116769  0.046  -0.485618  0.021602  2.358177  0.035  -0.508883  0.017019  2.34338  0.028  -1.084715  0.043943  -0.368577  -0.465363  0.025614  2.367648  0.04
O  O103  1  0.58991220  0.43243867  0.72499582  1  -0.513648  0.028184  2.115469  0.046  -0.485926  0.021593  2.356561  0.035  -0.509122  0.01701  2.341839  0.028  -1.084103  0.043974  -0.368532  -0.465682  0.025637  2.366026  0.04
O  O104  1  0.54088782  0.64206061  0.33522432  1  -0.58756  0.0564  2.094136  0.092  -0.565504  0.035002  2.373109  0.059  -0.602792  0.025916  2.360682  0.045  -1.156783  0.076783  -0.299762  -0.535867  0.043493  2.381212  0.071
O  O105  1  0.04099633  0.85801954  0.66474726  1  -0.587329  0.056386  2.094174  0.092  -0.565274  0.034997  2.373165  0.059  -0.602532  0.025911  2.36075  0.045  -1.156585  0.076784  -0.299605  -0.535625  0.043491  2.381231  0.071
O  O106  1  0.45926167  0.14194099  0.16484256  1  -0.587833  -0.051451  2.094874  -0.08  -0.565386  -0.031504  2.37411  -0.052  -0.602683  -0.024213  2.361734  -0.041  -1.156362  -0.064294  -0.299461  -0.535531  -0.037844  2.382102  -0.061
O  O107  1  0.95903267  0.35797687  0.83524494  1  -0.587563  -0.05146  2.095565  -0.08  -0.565207  -0.031499  2.374402  -0.052  -0.602441  -0.024209  2.362053  -0.041  -1.157073  -0.064263  -0.299422  -0.535358  -0.037823  2.382357  -0.061
O  O108  1  0.67227774  0.74742758  0.24342473  1  -0.583305  0.038692  2.065336  0.064  -0.54823  0.025812  2.317079  0.043  -0.583469  0.019912  2.304599  0.034  -1.148163  0.054413  -0.290347  -0.52003  0.031015  2.324831  0.051
O  O109  1  0.17236089  0.75264131  0.75654907  1  -0.583312  0.038699  2.06529  0.064  -0.54838  0.025812  2.317349  0.043  -0.583634  0.019914  2.304861  0.034  -1.146896  0.054454  -0.290431  -0.52017  0.031031  2.325117  0.051
O  O110  1  0.32773224  0.24742714  0.25654629  1  -0.583933  0.038927  2.064725  0.063  -0.548409  0.026404  2.316713  0.043  -0.583627  0.020909  2.304216  0.035  -1.146723  0.053791  -0.290459  -0.520259  0.031078  2.324494  0.049
O  O111  1  0.82763514  0.25263993  0.74344647  1  -0.583719  0.038932  2.065376  0.063  -0.548491  0.026409  2.317276  0.043  -0.583684  0.020914  2.304771  0.035  -1.147052  0.053855  -0.290559  -0.520381  0.031111  2.32504  0.049
O  O112  1  0.53026365  0.93813331  0.55618904  1  -0.623588  0.007006  2.014025  0.011  -0.567218  0.003782  2.234698  0.006  -0.594327  0.00218  2.223201  0.004  -1.202042  0.010808  -0.311117  -0.548136  0.005613  2.242461  0.009
O  O113  1  0.03030368  0.56189148  0.44381653  1  -0.623741  0.007009  2.013991  0.011  -0.567377  0.003782  2.234568  0.006  -0.594476  0.00218  2.22309  0.004  -1.202252  0.010806  -0.311146  -0.548234  0.005613  2.2423  0.009
O  O114  1  0.46955610  0.43807281  0.94389121  1  -0.622974  -0.007074  2.014607  -0.011  -0.567165  -0.003583  2.234741  -0.006  -0.594281  -0.002128  2.22324  -0.003  -1.202622  -0.009396  -0.311125  -0.548048  -0.005197  2.242487  -0.008
O  O115  1  0.96977733  0.06184130  0.05619183  1  -0.623689  -0.007074  2.014386  -0.011  -0.567263  -0.003585  2.235219  -0.006  -0.594363  -0.00213  2.223708  -0.003  -1.20207  -0.009415  -0.311081  -0.548097  -0.005206  2.242929  -0.008
O  O116  1  0.52617226  0.85292498  0.44214568  1  -0.548813  0.053779  2.038883  0.087  -0.526258  0.031899  2.297533  0.053  -0.562583  0.024264  2.287318  0.041  -1.121188  0.068491  -0.305823  -0.497795  0.038446  2.304313  0.062
O  O117  1  0.02621356  0.64712889  0.55784707  1  -0.548901  0.053772  2.039174  0.087  -0.526516  0.031892  2.297801  0.053  -0.562819  0.024259  2.287587  0.041  -1.12104  0.068495  -0.306159  -0.4981  0.038452  2.304626  0.062
O  O118  1  0.47382885  0.35278754  0.05791395  1  -0.548245  -0.05698  2.039911  -0.087  -0.526392  -0.032945  2.298222  -0.053  -0.562731  -0.025235  2.288038  -0.041  -1.120573  -0.067984  -0.30608  -0.497874  -0.039383  2.305018  -0.062
O  O119  1  0.97379262  0.14703930  0.94214457  1  -0.548718  -0.056945  2.03865  -0.087  -0.526303  -0.032924  2.297533  -0.052  -0.56259  -0.025219  2.287368  -0.041  -1.121583  -0.067961  -0.305806  -0.497811  -0.039367  2.30429  -0.062
O  O120  1  0.19060220  0.89930807  0.42558658  1  -0.509092  0.024517  2.118865  0.039  -0.477665  0.020491  2.359662  0.032  -0.500123  0.016429  2.346086  0.026  -1.099684  0.041666  -0.363195  -0.459009  0.024098  2.368882  0.037
O  O121  1  0.69064968  0.60068763  0.57442067  1  -0.508939  0.024521  2.119249  0.039  -0.477597  0.020495  2.359762  0.032  -0.500054  0.01643  2.346247  0.026  -1.099552  0.041711  -0.363014  -0.45898  0.024112  2.368991  0.037
O  O122  1  0.80940778  0.39922599  0.07439559  1  -0.508591  -0.026261  2.118863  -0.039  -0.477013  -0.021499  2.359446  -0.032  -0.499475  -0.017389  2.345955  -0.026  -1.099652  -0.041646  -0.362944  -0.458346  -0.025038  2.368661  -0.037
O  O123  1  0.30933494  0.10065152  0.92555426  1  -0.509288  -0.026245  2.118691  -0.039  -0.478053  -0.021492  2.35939  -0.032  -0.500453  -0.017383  2.345838  -0.026  -1.100315  -0.041649  -0.363179  -0.459427  -0.02503  2.368619  -0.037
O  O124  1  0.34739780  0.13541350  0.41456891  1  -0.517771  0.029276  2.126586  0.047  -0.484578  0.022504  2.365873  0.036  -0.50794  0.017443  2.353779  0.028  -1.126609  0.047162  -0.374526  -0.464832  0.027126  2.373501  0.042
O  O125  1  0.84742626  0.36456817  0.58542273  1  -0.517559  0.029306  2.126478  0.047  -0.484247  0.022517  2.366028  0.036  -0.507608  0.017451  2.353934  0.029  -1.127142  0.047246  -0.374485  -0.464534  0.027167  2.373651  0.042
O  O126  1  0.65259569  0.63534544  0.08542440  1  -0.517777  0.029453  2.126611  0.047  -0.484616  0.022736  2.366279  0.036  -0.507965  0.017671  2.35418  0.029  -1.127081  0.047142  -0.374779  -0.464894  0.027338  2.373893  0.042
O  O127  1  0.15256344  0.86450762  0.91459065  1  -0.517996  0.029436  2.126398  0.047  -0.48465  0.022728  2.365901  0.036  -0.508008  0.017665  2.353794  0.029  -1.126707  0.047214  -0.374631  -0.464927  0.027373  2.373536  0.042
O  O128  1  0.03400318  0.15016041  0.55979658  1  -0.630409  0.006186  1.999917  0.01  -0.569165  0.003103  2.218178  0.005  -0.59551  0.001688  2.206454  0.003  -1.204828  0.009238  -0.313455  -0.550696  0.004841  2.22636  0.007
O  O129  1  0.53410773  0.34984566  0.44016664  1  -0.630482  0.006186  1.999706  0.01  -0.569249  0.003101  2.217924  0.005  -0.595547  0.001686  2.206159  0.003  -1.205486  0.009251  -0.313522  -0.550691  0.004848  2.226065  0.007
O  O130  1  0.96593198  0.65002291  0.94015549  1  -0.63042  0.006054  1.999745  0.01  -0.569346  0.002937  2.218175  0.005  -0.595697  0.001599  2.206431  0.003  -1.205561  0.008583  -0.313351  -0.550869  0.004553  2.226354  0.007
O  O131  1  0.46590733  0.84974851  0.05983113  1  -0.630626  0.006049  2.00002  0.01  -0.5691  0.002935  2.21805  0.005  -0.595415  0.001598  2.206307  0.003  -1.205354  0.008582  -0.313635  -0.550549  0.004554  2.226173  0.007
O  O132  1  0.01543720  0.19408302  0.43764644  1  -0.572864  0.047963  2.055947  0.078  -0.5489  0.028817  2.320887  0.048  -0.583135  0.021939  2.309475  0.037  -1.133427  0.061878  -0.303082  -0.521351  0.035031  2.328252  0.056
O  O133  1  0.51547707  0.30592587  0.56231288  1  -0.572725  0.047989  2.056191  0.078  -0.548864  0.02883  2.321182  0.048  -0.583095  0.02195  2.309771  0.037  -1.132122  0.061989  -0.303144  -0.521335  0.035092  2.328507  0.057
O  O134  1  0.98458040  0.69397649  0.06229170  1  -0.572756  0.04768  2.055672  0.078  -0.548794  0.028571  2.320504  0.047  -0.582999  0.021778  2.309082  0.037  -1.131517  0.061176  -0.302939  -0.521251  0.034664  2.327864  0.056
O  O135  1  0.48453799  0.80586156  0.93768656  1  -0.57299  0.04769  2.056208  0.078  -0.54907  0.028573  2.321161  0.047  -0.583307  0.02178  2.309755  0.037  -1.132372  0.061251  -0.303247  -0.521503  0.034698  2.328506  0.056
O  O136  1  0.23945157  0.39685278  0.38104776  1  -0.797644  0.047896  1.959377  0.076  -0.770441  0.032937  2.158465  0.053  -0.800684  0.02562  2.123746  0.042  -1.235029  0.068877  -0.578417  -0.745624  0.039063  2.18376  0.061
O  O137  1  0.73935066  0.10318520  0.61899404  1  -0.797456  0.047915  1.959678  0.076  -0.770109  0.032944  2.158782  0.053  -0.800356  0.025623  2.12407  0.042  -1.236499  0.068964  -0.578302  -0.745319  0.03912  2.183988  0.061
O  O138  1  0.76061802  0.89676314  0.11889316  1  -0.798006  0.048225  1.959456  0.076  -0.770424  0.033172  2.159011  0.053  -0.800692  0.025805  2.124291  0.042  -1.235936  0.068999  -0.578214  -0.745599  0.039334  2.184312  0.061
O  O139  1  0.26062889  0.60313121  0.88097587  1  -0.797008  0.048277  1.960021  0.076  -0.769695  0.033208  2.159076  0.053  -0.799976  0.025829  2.124366  0.042  -1.236594  0.069154  -0.578231  -0.744836  0.039428  2.184313  0.061
O  O140  1  0.65663635  0.13814236  0.04907206  1  -0.796916  -0.050196  1.919777  -0.075  -0.772897  -0.033681  2.12859  -0.051  -0.802375  -0.026264  2.096716  -0.041  -1.219874  -0.067303  -0.576306  -0.749512  -0.039641  2.15198  -0.059
O  O141  1  0.15641513  0.36172014  0.95104999  1  -0.796169  -0.050171  1.919379  -0.074  -0.772433  -0.033674  2.127879  -0.051  -0.801844  -0.026258  2.096043  -0.041  -1.223801  -0.067281  -0.576096  -0.749033  -0.039642  2.151226  -0.059
O  O142  1  0.34344085  0.63825166  0.45096974  1  -0.796409  0.048764  1.9204  0.076  -0.772138  0.034015  2.129535  0.053  -0.801635  0.026241  2.097655  0.043  -1.221489  0.071308  -0.576071  -0.748732  0.040515  2.152857  0.062
O  O143  1  0.84340969  0.86179565  0.54902580  1  -0.796146  0.04876  1.920379  0.076  -0.771954  0.034013  2.129425  0.053  -0.801445  0.02624  2.097553  0.043  -1.221614  0.071324  -0.576039  -0.748526  0.040521  2.152715  0.062
