# generated using pymatgen
data_CdH10C11N3O5
_symmetry_space_group_name_H-M   'P 1'
_cell_length_a   8.74648984
_cell_length_b   10.47161213
_cell_length_c   9.89627872
_cell_angle_alpha   83.91353582
_cell_angle_beta   76.34415419
_cell_angle_gamma   55.38589367
_symmetry_Int_Tables_number   1
_chemical_formula_structural   CdH10C11N3O5
_chemical_formula_sum   'Cd2 H20 C22 N6 O10'
_cell_volume   724.42862303
_cell_formula_units_Z   2
loop_
 _symmetry_equiv_pos_site_id
 _symmetry_equiv_pos_as_xyz
  1  'x, y, z'
loop_
 _atom_site_type_symbol
 _atom_site_label
 _atom_site_symmetry_multiplicity
 _atom_site_fract_x
 _atom_site_fract_y
 _atom_site_fract_z
 _atom_site_occupancy
 _atom_site_pbe_bader_charge
 _atom_site_pbe_bader_spin_density
 _atom_site_pbe_cm5_charge
 _atom_site_pbe_ddec_charge
 _atom_site_pbe_ddec_spin_density
 _atom_site_pbe_ddec_sum_bond_order
 _atom_site_pbe_magmom
Cd  Cd0  1  0.09419515  0.73280370  0.94753943  1  1.305086  0  0.786667  1.004585  0  2.016453  0
Cd  Cd1  1  0.90578642  0.26720055  0.05244296  1  1.305129  0  0.786668  1.004552  0  2.016486  0
H  H2  1  0.66258186  0.01518334  0.50888348  1  0.098688  0  0.130045  0.118387  0  0.956182  0
H  H3  1  0.33744609  0.98480053  0.49112298  1  0.098901  0  0.129984  0.1183  0  0.956255  0
H  H4  1  0.64179431  0.85904672  0.57473839  1  0.090391  0  0.118289  0.103929  0  0.984529  0
H  H5  1  0.35822992  0.14093953  0.42527172  1  0.090656  0  0.118265  0.103872  0  0.984369  0
H  H6  1  0.75443398  0.66033530  0.12171887  1  0.183364  0  0.134459  0.110754  0  1.022831  0
H  H7  1  0.24555634  0.33966444  0.87829033  1  0.183446  0  0.134493  0.110768  0  1.022822  0
H  H8  1  0.90664039  0.92689629  0.26973759  1  0.184321  0  0.147558  0.139312  0  0.992307  0
H  H9  1  0.09337390  0.07309059  0.73026040  1  0.184069  0  0.147567  0.139281  0  0.992375  0
H  H10  1  0.78637021  0.53237870  0.72835272  1  0.093988  0  0.103272  0.102346  0  1.035946  0
H  H11  1  0.21366217  0.46759907  0.27161581  1  0.093601  0  0.103208  0.102253  0  1.03586  0
H  H12  1  0.77159806  0.42511669  0.52289477  1  0.114755  0  0.110121  0.121708  0  0.982066  0
H  H13  1  0.22844027  0.57486299  0.47706631  1  0.114606  0  0.110111  0.121719  0  0.982042  0
H  H14  1  0.74359517  0.93417748  0.78126199  1  0.079112  0  0.103306  0.103312  0  1.016375  0
H  H15  1  0.25638195  0.06582897  0.21877075  1  0.078652  0  0.103261  0.103212  0  1.016358  0
H  H16  1  0.54119093  0.82796735  0.82023242  1  0.069985  0  0.100656  0.094288  0  1.021296  0
H  H17  1  0.45878806  0.17203192  0.17980954  1  0.069948  0  0.100675  0.094243  0  1.021167  0
H  H18  1  0.21754066  0.43350424  0.06854139  1  0.651423  0  0.284457  0.382781  0  0.96745  0
H  H19  1  0.78246087  0.56650442  0.93143954  1  0.651399  0  0.284511  0.382896  0  0.967313  0
H  H20  1  0.42862513  0.39710699  0.01608927  1  0.650041  0  0.291322  0.395871  0  0.927055  0
H  H21  1  0.57137287  0.60290998  0.98390598  1  0.64995  0  0.291361  0.396038  0  0.92684  0
C  C22  1  0.60777982  0.94699897  0.49482129  1  0.335427  0  -0.034915  -0.108296  0  3.878924  0
C  C23  1  0.39224641  0.05298383  0.50518864  1  0.308309  0  -0.034784  -0.107995  0  3.878615  0
C  C24  1  0.76046195  0.73254203  0.18821997  1  0.988822  0  0.149537  0.160026  0  3.970477  0
C  C25  1  0.23953786  0.26745357  0.81178651  1  0.989349  0  0.149552  0.160076  0  3.970457  0
C  C26  1  0.84014929  0.86711573  0.26212087  1  1.001472  0  0.164142  0.078396  0  3.898391  0
C  C27  1  0.15986135  0.13287342  0.73788279  1  1.001672  0  0.164027  0.078291  0  3.898554  0
C  C28  1  0.00771272  0.56215844  0.61568378  1  -0.022594  0  -0.018001  -0.031109  0  3.97287  0
C  C29  1  0.99230668  0.43783544  0.38427319  1  -0.022893  0  -0.018164  -0.031521  0  3.973302  0
C  C30  1  0.87952992  0.51898698  0.62814622  1  -0.114141  0  -0.0903  -0.10667  0  3.978705  0
C  C31  1  0.12049557  0.48100054  0.37181599  1  -0.113995  0  -0.090171  -0.10642  0  3.978647  0
C  C32  1  0.87204617  0.45730360  0.51387204  1  -0.003187  0  -0.083777  -0.093628  0  3.961458  0
C  C33  1  0.12797736  0.54269146  0.48609511  1  -0.003522  0  -0.083791  -0.093778  0  3.961576  0
C  C34  1  0.02225478  0.62190973  0.74023535  1  1.530765  0  0.196767  0.552013  0  4.226444  0
C  C35  1  0.97774945  0.37810417  0.25972239  1  1.530393  0  0.197005  0.552582  0  4.226621  0
C  C36  1  0.61267597  0.05796606  0.97860485  1  -0.033314  0  -0.021034  -0.044226  0  3.99328  0
C  C37  1  0.38729119  0.94204334  0.02143381  1  -0.033705  0  -0.020955  -0.043985  0  3.99347  0
C  C38  1  0.63651566  0.96163796  0.87662586  1  -0.010549  0  -0.088125  -0.097878  0  3.998217  0
C  C39  1  0.36346066  0.03835971  0.12341070  1  -0.010764  0  -0.088148  -0.097878  0  3.998372  0
C  C40  1  0.52495783  0.90316431  0.89823910  1  -0.051168  0  -0.09077  -0.095834  0  3.992478  0
C  C41  1  0.47501373  0.09683947  0.10179399  1  -0.050752  0  -0.090656  -0.095463  0  3.991885  0
C  C42  1  0.74526080  0.10817687  0.95958459  1  1.56875  0  0.204807  0.579906  0  4.208301  0
C  C43  1  0.25469830  0.89184021  0.04044815  1  1.56821  0  0.204731  0.579762  0  4.208024  0
N  N44  1  0.70207247  0.86895660  0.35901433  1  -0.837623  0  -0.136272  0.165065  0  3.763671  0
N  N45  1  0.29794929  0.13102777  0.64099542  1  -0.836407  0  -0.136097  0.165182  0  3.763549  0
N  N46  1  0.64949027  0.78369431  0.31379156  1  -0.686774  0  -0.224886  -0.267769  0  3.083675  0
N  N47  1  0.35052396  0.21629287  0.68622160  1  -0.688443  0  -0.225049  -0.267997  0  3.083824  0
N  N48  1  0.88053270  0.78078195  0.15237247  1  -1.226021  0  -0.34787  -0.338415  0  3.517672  0
N  N49  1  0.11946946  0.21921156  0.84762760  1  -1.226011  0  -0.347767  -0.338197  0  3.517619  0
O  O50  1  0.12430648  0.67662046  0.72183533  1  -1.119128  0  -0.334489  -0.547858  0  2.154833  0
O  O51  1  0.87568783  0.32340047  0.27813310  1  -1.118771  0  -0.334498  -0.54796  0  2.154884  0
O  O52  1  0.93499153  0.61579677  0.86098123  1  -1.189702  0  -0.313521  -0.564664  0  2.279719  0
O  O53  1  0.06501545  0.38421448  0.13898016  1  -1.189871  0  -0.313617  -0.564894  0  2.279967  0
O  O54  1  0.91201838  0.02107624  0.88845217  1  -1.179804  0  -0.319012  -0.571107  0  2.231724  0
O  O55  1  0.08793730  0.97894672  0.11157885  1  -1.179807  0  -0.318992  -0.571142  0  2.231562  0
O  O56  1  0.68076960  0.23714497  0.02214526  1  -1.162209  0  -0.326412  -0.561546  0  2.250536  0
O  O57  1  0.31919017  0.76287096  0.97788742  1  -1.161826  0  -0.326385  -0.561514  0  2.250508  0
O  O58  1  0.29412227  0.47018846  0.00933942  1  -1.295946  0  -0.596143  -0.783822  0  2.065396  0
O  O59  1  0.70587992  0.52982319  0.99064521  1  -1.295752  0  -0.596223  -0.784142  0  2.065201  0
