# generated using pymatgen
data_CuH10C14(NO)4
_symmetry_space_group_name_H-M   'P 1'
_cell_length_a   7.90675277
_cell_length_b   9.17938793
_cell_length_c   10.02835282
_cell_angle_alpha   77.31382525
_cell_angle_beta   78.54758703
_cell_angle_gamma   81.19434101
_symmetry_Int_Tables_number   1
_chemical_formula_structural   CuH10C14(NO)4
_chemical_formula_sum   'Cu2 H20 C28 N8 O8'
_cell_volume   691.36612968
_cell_formula_units_Z   2
loop_
 _symmetry_equiv_pos_site_id
 _symmetry_equiv_pos_as_xyz
  1  'x, y, z'
loop_
 _atom_site_type_symbol
 _atom_site_label
 _atom_site_symmetry_multiplicity
 _atom_site_fract_x
 _atom_site_fract_y
 _atom_site_fract_z
 _atom_site_occupancy
 _atom_site_pbe_cm5_charge
 _atom_site_pbe_ddec_charge
 _atom_site_pbe_ddec_spin_density
 _atom_site_pbe_ddec_sum_bond_order
 _atom_site_pbe_magmom
Cu  Cu0  1  0.59848246  0.82987222  0.85322641  1  0.89499  0.979685  -0.003104  2.423554  -0.002
Cu  Cu1  1  0.40150996  0.17012865  0.14676474  1  0.895024  0.979734  0.003095  2.423448  0.002
H  H2  1  0.74983383  0.51148923  0.16477997  1  0.103868  0.106187  -0.002084  1.045684  0.0
H  H3  1  0.25017882  0.48851527  0.83521508  1  0.103854  0.106218  0.002085  1.045725  0.0
H  H4  1  0.83039405  0.33354128  0.37539147  1  0.104261  0.106274  -0.000299  1.003765  0.0
H  H5  1  0.16962779  0.66647219  0.62460098  1  0.104262  0.106295  0.000299  1.003699  0.0
H  H6  1  0.78859183  0.42280849  0.59868838  1  0.10717  0.111341  0.00015  1.006291  0.0
H  H7  1  0.21143142  0.57719374  0.40130652  1  0.107161  0.111276  -0.00015  1.006394  0.0
H  H8  1  0.58372371  0.86224430  0.40065766  1  0.110795  0.125985  0.000234  0.996655  0.0
H  H9  1  0.41625303  0.13774823  0.59934994  1  0.110823  0.125988  -0.000234  0.996698  0.0
H  H10  1  0.25217255  0.87115016  0.74398805  1  0.134236  0.099853  -0.000769  0.994921  -0.002
H  H11  1  0.74781240  0.12885920  0.25601524  1  0.134255  0.099904  0.000769  0.994841  0.002
H  H12  1  0.06527303  0.57251892  0.10827088  1  0.121406  0.117172  -0.001708  1.004805  -0.002
H  H13  1  0.93472852  0.42746057  0.89172391  1  0.121413  0.117189  0.001709  1.004762  0.002
H  H14  1  0.41199136  0.59574344  0.10349384  1  0.124206  0.122366  -0.001894  1.018078  -0.002
H  H15  1  0.58801979  0.40422076  0.89648908  1  0.124125  0.122283  0.001894  1.018301  0.002
H  H16  1  0.85426311  0.94123950  0.57160727  1  0.127186  0.086339  -0.00076  1.050304  0.002
H  H17  1  0.14568082  0.05882943  0.42838537  1  0.127185  0.086315  0.000759  1.050385  -0.002
H  H18  1  0.04621022  0.19013516  0.80149216  1  0.112161  0.093139  0.002127  1.054307  0.002
H  H19  1  0.95380552  0.80986603  0.19852913  1  0.112198  0.093106  -0.002127  1.054364  -0.002
H  H20  1  0.79295171  0.02186654  0.97798525  1  0.121281  0.114016  0.001356  1.052409  0.002
H  H21  1  0.20709350  0.97809494  0.02203481  1  0.12128  0.114114  -0.001358  1.052217  -0.002
C  C22  1  0.62592390  0.80804870  0.14240246  1  0.219274  0.580247  -0.000191  4.17494  0.0
C  C23  1  0.37406473  0.19194157  0.85760478  1  0.219175  0.580067  0.000191  4.175059  0.0
C  C24  1  0.66172040  0.69638412  0.27048745  1  -0.019919  -0.048984  -7.5e-05  3.970746  0.0
C  C25  1  0.33827515  0.30361280  0.72951612  1  -0.019903  -0.048826  7.5e-05  3.970538  0.0
C  C26  1  0.72912351  0.54727101  0.26375624  1  -0.079107  -0.08252  -0.001225  3.942566  0.0
C  C27  1  0.27088296  0.45273127  0.73624032  1  -0.07903  -0.082504  0.001226  3.942584  0.0
C  C28  1  0.77377723  0.44826042  0.38151344  1  -0.083987  -0.073528  -0.001468  3.985315  -0.001
C  C29  1  0.22623657  0.55174524  0.61848215  1  -0.084036  -0.073676  0.001468  3.98539  0.001
C  C30  1  0.75076041  0.49755286  0.50628314  1  -0.067884  -0.06407  -0.000339  3.917095  0.0
C  C31  1  0.24924777  0.50244605  0.49371395  1  -0.067877  -0.063926  0.00034  3.917256  0.0
C  C32  1  0.68093851  0.64622423  0.51407424  1  -0.012504  -0.025811  -0.000672  3.966419  0.0
C  C33  1  0.31907083  0.35377575  0.48592141  1  -0.01251  -0.02577  0.000672  3.966246  0.0
C  C34  1  0.63540528  0.74600803  0.39643362  1  -0.068936  -0.091565  -0.000191  3.896933  0.0
C  C35  1  0.36458539  0.25398653  0.60356829  1  -0.068996  -0.091689  0.00019  3.896956  0.0
C  C36  1  0.66716728  0.69193956  0.65040227  1  0.202565  0.532744  3.7e-05  4.203289  0.0
C  C37  1  0.33284377  0.30805704  0.34959391  1  0.20265  0.532829  -3.8e-05  4.203108  0.0
C  C38  1  0.24473317  0.79305956  0.84272541  1  0.149491  0.181909  0.146909  3.903756  0.09
C  C39  1  0.75525910  0.20694280  0.15727339  1  0.149533  0.182011  -0.146912  3.903546  -0.09
C  C40  1  0.15085292  0.64309536  0.03158924  1  0.035127  0.027062  0.13507  3.882413  0.078
C  C41  1  0.84914563  0.35688747  0.96840423  1  0.035191  0.027088  -0.135056  3.882684  -0.078
C  C42  1  0.32807617  0.65252975  0.03040174  1  0.038468  0.027876  0.150033  3.841873  0.087
C  C43  1  0.67192927  0.34744921  0.96958157  1  0.0385  0.027892  -0.150026  3.84205  -0.087
C  C44  1  0.87126557  0.98848479  0.65765639  1  0.155539  0.206105  -0.184242  3.859517  -0.11
C  C45  1  0.12870181  0.01155165  0.34234425  1  0.155573  0.206084  0.184228  3.859794  0.11
C  C46  1  0.96746491  0.11610388  0.77699505  1  0.032133  0.023459  -0.162572  3.902066  -0.094
C  C47  1  0.03253839  0.88390346  0.22301279  1  0.032092  0.023757  0.162584  3.901878  0.094
C  C48  1  0.84213936  0.02982097  0.86821474  1  0.036886  0.029121  -0.171893  3.84668  -0.1
C  C49  1  0.15788740  0.97016422  0.13180361  1  0.036923  0.028821  0.17187  3.846605  0.1
N  N50  1  0.38459630  0.74581754  0.90941500  1  -0.382189  -0.304167  -0.012353  3.62081  -0.017
N  N51  1  0.61539711  0.25417533  0.09057490  1  -0.382207  -0.304267  0.012353  3.620858  0.017
N  N52  1  0.10162878  0.73157330  0.91477623  1  -0.330336  -0.297677  -0.024829  3.224747  -0.024
N  N53  1  0.89836349  0.26842892  0.08521961  1  -0.33041  -0.297725  0.02482  3.224921  0.024
N  N54  1  0.78419274  0.95017095  0.79053426  1  -0.374769  -0.295971  0.011506  3.609707  0.019
N  N55  1  0.21580023  0.04983650  0.20947619  1  -0.374732  -0.295642  -0.011492  3.60982  -0.019
N  N56  1  0.98273476  0.08950301  0.64680404  1  -0.334759  -0.31374  0.020038  3.223188  0.022
N  N57  1  0.01722600  0.91053487  0.35320329  1  -0.334882  -0.314115  -0.020038  3.222988  -0.022
O  O58  1  0.65346715  0.74977743  0.03146733  1  -0.290867  -0.494868  -0.003236  2.374113  -0.002
O  O59  1  0.34653195  0.25021175  0.96854051  1  -0.290866  -0.494867  0.003237  2.374291  0.002
O  O60  1  0.58129778  0.94272562  0.14771328  1  -0.307782  -0.578078  -0.001889  2.364749  -0.001
O  O61  1  0.41868344  0.05727189  0.85227945  1  -0.307679  -0.577929  0.001888  2.364822  0.001
O  O62  1  0.58369806  0.82537441  0.66351768  1  -0.284878  -0.472916  0.000525  2.21391  0.0
O  O63  1  0.41631008  0.17461481  0.33649071  1  -0.284964  -0.47307  -0.000523  2.213585  0.0
O  O64  1  0.73355664  0.60680330  0.74579517  1  -0.293131  -0.526979  -0.005377  2.214224  -0.005
O  O65  1  0.26645412  0.39319564  0.25420250  1  -0.293116  -0.526972  0.005381  2.214276  0.005
