# generated using pymatgen
data_AlH12C24(O2F)3
_symmetry_space_group_name_H-M   'P 1'
_cell_length_a   3.98741877
_cell_length_b   28.64229685
_cell_length_c   28.64238843
_cell_angle_alpha   119.99925104
_cell_angle_beta   89.99994840
_cell_angle_gamma   90.00040937
_symmetry_Int_Tables_number   1
_chemical_formula_structural   AlH12C24(O2F)3
_chemical_formula_sum   'Al2 H24 C48 O12 F6'
_cell_volume   2832.97557475
_cell_formula_units_Z   2
loop_
 _symmetry_equiv_pos_site_id
 _symmetry_equiv_pos_as_xyz
  1  'x, y, z'
loop_
 _atom_site_type_symbol
 _atom_site_label
 _atom_site_symmetry_multiplicity
 _atom_site_fract_x
 _atom_site_fract_y
 _atom_site_fract_z
 _atom_site_occupancy
 _atom_site_pbe_bader_charge
 _atom_site_pbe_bader_spin_density
 _atom_site_pbe_cm5_charge
 _atom_site_pbe_ddec_charge
 _atom_site_pbe_ddec_spin_density
 _atom_site_pbe_ddec_sum_bond_order
 _atom_site_pbe_magmom
Al  Al0  1  0.00373523  0.50000317  0.50000009  1  2.50368  0  0.426896  1.59854  0  2.573253  0
Al  Al1  1  0.00376608  0.16666870  0.83333382  1  2.503439  0  0.426984  1.598492  0  2.573331  0
H  H2  1  0.21603208  0.18570928  0.69938493  1  0.10594  0  0.110567  0.115412  0  0.983093  0
H  H3  1  0.21998349  0.23990506  0.65362304  1  0.117226  0  0.102792  0.109338  0  1.005051  0
H  H4  1  0.76536411  0.36563479  0.78808322  1  0.109731  0  0.103101  0.108132  0  0.997272  0
H  H5  1  0.78536548  0.30838255  0.83084629  1  0.106707  0  0.110765  0.115368  0  0.985356  0
H  H6  1  0.76536321  0.30103863  0.54525327  1  0.109899  0  0.103121  0.10825  0  0.997355  0
H  H7  1  0.22002318  0.42675715  0.67972160  1  0.117638  0  0.102874  0.109378  0  1.004967  0
H  H8  1  0.21604966  0.48096210  0.63397010  1  0.106115  0  0.110557  0.115308  0  0.983261  0
H  H9  1  0.78534510  0.35829653  0.50249785  1  0.107241  0  0.11079  0.115354  0  0.985212  0
H  H10  1  0.21609016  0.01367707  0.81429444  1  0.108788  0  0.11059  0.115373  0  0.983199  0
H  H11  1  0.22003759  0.91372121  0.76009568  1  0.119136  0  0.102741  0.109272  0  1.005115  0
H  H12  1  0.76541104  0.92246169  0.63436910  1  0.098678  0  0.103096  0.108206  0  0.997226  0
H  H13  1  0.78542145  0.02247602  0.69162573  1  0.101589  0  0.110794  0.115571  0  0.985013  0
H  H14  1  0.76540641  0.74422311  0.69895966  1  0.098396  0  0.103128  0.108331  0  0.997273  0
H  H15  1  0.22000152  0.75296825  0.57324422  1  0.118672  0  0.102902  0.109399  0  1.005123  0
H  H16  1  0.21603923  0.65301472  0.51903947  1  0.108395  0  0.110474  0.11524  0  0.983257  0
H  H17  1  0.78538443  0.64421280  0.64170517  1  0.102016  0  0.110778  0.115432  0  0.985119  0
H  H18  1  0.21608176  0.30062442  0.98633055  1  0.106993  0  0.110601  0.115353  0  0.983259  0
H  H19  1  0.22001036  0.34637440  0.08628536  1  0.08335  0  0.102776  0.109331  0  1.005136  0
H  H20  1  0.76538742  0.21190861  0.07753901  1  0.08921  0  0.103062  0.108182  0  0.997373  0
H  H21  1  0.78542929  0.16915832  0.97752561  1  0.100446  0  0.110759  0.115438  0  0.985312  0
H  H22  1  0.76540048  0.45472908  0.25577381  1  0.089887  0  0.103126  0.108291  0  0.997409  0
H  H23  1  0.22001927  0.32027049  0.24704234  1  0.083408  0  0.102812  0.109429  0  1.005017  0
H  H24  1  0.21604010  0.36602970  0.34699633  1  0.106004  0  0.110537  0.115268  0  0.983318  0
H  H25  1  0.78538160  0.49749266  0.35578518  1  0.100839  0  0.110795  0.115463  0  0.985145  0
C  C26  1  0.50338105  0.46143874  0.41715322  1  1.61376  0  0.274  0.646242  0  4.069998  0
C  C27  1  0.50335798  0.45571822  0.53856228  1  1.539991  0  0.274058  0.646429  0  4.069565  0
C  C28  1  0.50337618  0.58285034  0.54428480  1  1.541787  0  0.274032  0.646429  0  4.069774  0
C  C29  1  0.50339628  0.21095870  0.79478072  1  1.54046  0  0.274035  0.646401  0  4.069868  0
C  C30  1  0.50340316  0.08382739  0.78904693  1  1.539898  0  0.274112  0.647312  0  4.069961  0
C  C31  1  0.50340582  0.20522382  0.91617342  1  1.613562  0  0.274093  0.647118  0  4.069975  0
C  C32  1  0.50185984  0.24369167  0.76772269  1  -0.031274  0  -0.008445  -0.035104  0  3.956724  0
C  C33  1  0.34248322  0.22463133  0.71778593  1  -0.063572  0  -0.077027  -0.081723  0  3.967522  0
C  C34  1  0.34457062  0.25506168  0.69232248  1  -0.083547  0  -0.085673  -0.116736  0  3.96801  0
C  C35  1  0.49570468  0.30646649  0.71753435  1  0.020059  0  -0.014748  0.033392  0  4.069637  0
C  C36  1  0.64822976  0.32596969  0.76837799  1  -0.080022  0  -0.087491  -0.119578  0  3.973948  0
C  C37  1  0.65783662  0.29432855  0.79248753  1  0.058701  0  -0.077301  -0.080835  0  3.972653  0
C  C38  1  0.49489555  0.34040244  0.69309351  1  0.455316  0  0.080931  0.097449  0  4.046552  0
C  C39  1  0.49488031  0.32626057  0.64024244  1  0.543395  0  0.081009  0.097431  0  4.046171  0
C  C40  1  0.64825580  0.34070012  0.56495981  1  -0.079879  0  -0.087565  -0.119955  0  3.973924  0
C  C41  1  0.49571635  0.36020285  0.61580714  1  0.019602  0  -0.014592  0.033663  0  4.06933  0
C  C42  1  0.34461229  0.41160377  0.64101845  1  -0.085033  0  -0.085864  -0.116978  0  3.968738  0
C  C43  1  0.34246887  0.44204075  0.61556164  1  -0.062474  0  -0.076825  -0.081382  0  3.966971  0
C  C44  1  0.50186489  0.42298313  0.56562103  1  -0.031302  0  -0.008563  -0.03521  0  3.956109  0
C  C45  1  0.65782174  0.37234910  0.54085851  1  0.058257  0  -0.077364  -0.080733  0  3.972787  0
C  C46  1  0.50188449  0.02403582  0.75631140  1  0.039134  0  -0.008567  -0.038674  0  3.961561  0
C  C47  1  0.34248967  0.99315963  0.77537083  1  -0.038631  0  -0.076943  -0.080456  0  3.968358  0
C  C48  1  0.34461255  0.93726566  0.74493965  1  -0.056285  0  -0.085672  -0.116676  0  3.967774  0
C  C49  1  0.49572233  0.91107518  0.69353282  1  -0.05445  0  -0.014839  0.033303  0  4.069746  0
C  C50  1  0.64828302  0.94241843  0.67403443  1  -0.056096  0  -0.087583  -0.119846  0  3.973837  0
C  C51  1  0.65787699  0.99816889  0.70567746  1  0.005102  0  -0.077194  -0.07969  0  3.973252  0
C  C52  1  0.49490340  0.85269887  0.65959572  1  0.559211  0  0.080945  0.097399  0  4.046473  0
C  C53  1  0.49488484  0.81399028  0.67373800  1  0.451956  0  0.081045  0.097618  0  4.045875  0
C  C54  1  0.64827010  0.72427175  0.65930061  1  -0.055148  0  -0.087737  -0.120316  0  3.973988  0
C  C55  1  0.49571861  0.75561227  0.63979841  1  -0.056047  0  -0.014595  0.033733  0  4.069591  0
C  C56  1  0.34459528  0.72942262  0.58839816  1  -0.056261  0  -0.085808  -0.116968  0  3.968442  0
C  C57  1  0.34246478  0.67352282  0.55795955  1  -0.038187  0  -0.076833  -0.081322  0  3.966743  0
C  C58  1  0.50187034  0.64264432  0.57701790  1  0.039333  0  -0.008591  -0.035394  0  3.956456  0
C  C59  1  0.65784392  0.66851568  0.62764995  1  0.005029  0  -0.077231  -0.080537  0  3.972237  0
C  C60  1  0.50189406  0.23228254  0.97597033  1  -0.092445  0  -0.008535  -0.038298  0  3.961532  0
C  C61  1  0.34247418  0.28221569  0.00684307  1  -0.076084  0  -0.07699  -0.080622  0  3.968013  0
C  C62  1  0.34459632  0.30767654  0.06274257  1  0.028034  0  -0.085604  -0.116591  0  3.967681  0
C  C63  1  0.49569086  0.28245788  0.08892619  1  -0.01071  0  -0.014981  0.033253  0  4.070007  0
C  C64  1  0.64826960  0.23161646  0.05758539  1  -0.118516  0  -0.087448  -0.11976  0  3.973445  0
C  C65  1  0.65787186  0.20751389  0.00183029  1  0.081025  0  -0.077265  -0.079794  0  3.97369  0
C  C66  1  0.49486119  0.30688428  0.14730063  1  0.551413  0  0.081121  0.097562  0  4.046083  0
C  C67  1  0.49490001  0.35974436  0.18601866  1  0.453625  0  0.080861  0.097202  0  4.045957  0
C  C68  1  0.64827654  0.43502194  0.27572581  1  -0.120598  0  -0.087706  -0.120262  0  3.974066  0
C  C69  1  0.49572304  0.38417680  0.24438986  1  -0.010376  0  -0.014537  0.033972  0  4.069894  0
C  C70  1  0.34460703  0.35897343  0.27058446  1  0.026895  0  -0.085881  -0.117276  0  3.968385  0
C  C71  1  0.34246577  0.38443908  0.32648473  1  -0.075309  0  -0.076768  -0.081199  0  3.966486  0
C  C72  1  0.50187331  0.43437604  0.35735958  1  -0.092472  0  -0.008584  -0.035197  0  3.956468  0
C  C73  1  0.65784959  0.45913338  0.33148534  1  0.082786  0  -0.077254  -0.080712  0  3.972382  0
O  O74  1  0.73869067  0.55797011  0.55308492  1  -1.256679  0  -0.238354  -0.599006  0  2.371991  0
O  O75  1  0.73869695  0.49512028  0.44203070  1  -1.257928  0  -0.238307  -0.598936  0  2.371912  0
O  O76  1  0.73868805  0.44691789  0.50488013  1  -1.248205  0  -0.238302  -0.598941  0  2.371724  0
O  O77  1  0.26885558  0.56014095  0.50974725  1  -1.257654  0  -0.238906  -0.597447  0  2.362524  0
O  O78  1  0.26883616  0.49025369  0.55038898  1  -1.25669  0  -0.238938  -0.597439  0  2.362432  0
O  O79  1  0.26886055  0.44961406  0.43986413  1  -1.255266  0  -0.238939  -0.597381  0  2.36258  0
O  O80  1  0.73872771  0.17154194  0.89129460  1  -1.258086  0  -0.238367  -0.598826  0  2.37153  0
O  O81  1  0.73872408  0.21975819  0.82846065  1  -1.248227  0  -0.238374  -0.598963  0  2.371886  0
O  O82  1  0.73871894  0.10870812  0.78024671  1  -1.25539  0  -0.238445  -0.598879  0  2.371593  0
O  O83  1  0.26890109  0.21705428  0.89346887  1  -1.255132  0  -0.238879  -0.59718  0  2.362379  0
O  O84  1  0.26889352  0.10653372  0.82358362  1  -1.257405  0  -0.238885  -0.597206  0  2.362057  0
O  O85  1  0.26889789  0.17641984  0.78295002  1  -1.256649  0  -0.238948  -0.59748  0  2.36265  0
F  F86  1  0.51540380  0.39465366  0.72958322  1  -0.629205  0  -0.096546  -0.127965  0  1.365699  0
F  F87  1  0.51530832  0.27200949  0.60375124  1  -0.629313  0  -0.096635  -0.127953  0  1.365485  0
F  F88  1  0.51536498  0.83494091  0.60534586  1  -0.634023  0  -0.096557  -0.127946  0  1.365745  0
F  F89  1  0.51534699  0.83174986  0.72798907  1  -0.634053  0  -0.096546  -0.127933  0  1.365495  0
F  F90  1  0.51525939  0.27039342  0.16505914  1  -0.628586  0  -0.096609  -0.12792  0  1.366  0
F  F91  1  0.51540296  0.39622786  0.16825358  1  -0.628536  0  -0.096517  -0.127835  0  1.365899  0
