# generated using pymatgen
data_CaH22C20(NO2)4
_symmetry_space_group_name_H-M   'P 1'
_cell_length_a   8.95289375
_cell_length_b   10.43076629
_cell_length_c   12.98411861
_cell_angle_alpha   97.69866582
_cell_angle_beta   110.17193064
_cell_angle_gamma   90.00116291
_symmetry_Int_Tables_number   1
_chemical_formula_structural   CaH22C20(NO2)4
_chemical_formula_sum   'Ca2 H44 C40 N8 O16'
_cell_volume   1126.50302644
_cell_formula_units_Z   2
loop_
 _symmetry_equiv_pos_site_id
 _symmetry_equiv_pos_as_xyz
  1  'x, y, z'
loop_
 _atom_site_type_symbol
 _atom_site_label
 _atom_site_symmetry_multiplicity
 _atom_site_fract_x
 _atom_site_fract_y
 _atom_site_fract_z
 _atom_site_occupancy
 _atom_site_hle17_bader_spin_density
 _atom_site_hle17_ddec_charge
 _atom_site_hle17_ddec_spin_density
 _atom_site_hle17_ddec_sum_bond_order
 _atom_site_hle17_magmom
 _atom_site_hse06_10hf_bader_spin_density
 _atom_site_hse06_10hf_ddec_charge
 _atom_site_hse06_10hf_ddec_spin_density
 _atom_site_hse06_10hf_ddec_sum_bond_order
 _atom_site_hse06_10hf_magmom
 _atom_site_hse06_bader_spin_density
 _atom_site_hse06_ddec_charge
 _atom_site_hse06_ddec_spin_density
 _atom_site_hse06_ddec_sum_bond_order
 _atom_site_hse06_magmom
 _atom_site_pbe_bader_spin_density
 _atom_site_pbe_cm5_charge
 _atom_site_pbe_ddec_charge
 _atom_site_pbe_ddec_spin_density
 _atom_site_pbe_ddec_sum_bond_order
 _atom_site_pbe_magmom
Ca  Ca0  1  0.44553910  0.40766495  0.90324869  1  0  1.54901  0  1.13642  0  0  1.415781  0  1.500575  0  0  1.458878  0  1.454022  0  0  0.900072  1.382866  0  1.534235  0
Ca  Ca1  1  0.45796252  0.90760081  0.90317651  1  0  1.549536  0  1.134708  0  0  1.415775  0  1.49968  0  0  1.458952  0  1.453019  0  0  0.899908  1.382763  0  1.53339  0
H  H2  1  0.16316907  0.42843846  0.65657233  1  0  0.375764  0  0.916062  0  0  0.348574  0  0.990526  0  0  0.360994  0  0.977463  0  0  0.303217  0.339705  0  0.999749  0
H  H3  1  0.49307708  0.92845327  0.65652194  1  0  0.377051  0  0.913576  0  0  0.349454  0  0.988688  0  0  0.361851  0  0.975659  0  0  0.30367  0.34059  0  0.997923  0
H  H4  1  0.75795780  0.37961909  0.13679977  1  0  0.379412  0  0.909217  0  0  0.352106  0  0.982947  0  0  0.364305  0  0.970396  0  0  0.305313  0.343345  0  0.992021  0
H  H5  1  0.37848537  0.87958281  0.13649841  1  0  0.378482  0  0.910363  0  0  0.351482  0  0.983574  0  0  0.363694  0  0.971017  0  0  0.304679  0.342741  0  0.992561  0
H  H6  1  0.68173453  0.97147001  0.17597514  1  0  0.107789  0  0.960253  0  0  0.110681  0  1.035187  0  0  0.114924  0  1.031297  0  0  0.111994  0.107464  0  1.038269  0
H  H7  1  0.49415952  0.47147105  0.17581989  1  0  0.107674  0  0.96054  0  0  0.110746  0  1.035517  0  0  0.114929  0  1.031661  0  0  0.112225  0.107572  0  1.038548  0
H  H8  1  0.21891072  0.83724934  0.61354084  1  0  0.110061  0  0.952335  0  0  0.112958  0  1.026813  0  0  0.117482  0  1.022527  0  0  0.112946  0.10968  0  1.029864  0
H  H9  1  0.39446914  0.33726967  0.61332293  1  0  0.109974  0  0.951686  0  0  0.112877  0  1.026134  0  0  0.117293  0  1.02191  0  0  0.112776  0.109632  0  1.029154  0
H  H10  1  0.12341703  0.10968000  0.43500499  1  0  0.102016  0  0.962366  0  0  0.104357  0  1.03588  0  0  0.107276  0  1.034105  0  0  0.103587  0.101946  0  1.037968  0
H  H11  1  0.31152562  0.60970213  0.43480713  1  0  0.102195  0  0.962236  0  0  0.105108  0  1.035042  0  0  0.108031  0  1.033239  0  0  0.103972  0.102685  0  1.037191  0
H  H12  1  0.09747501  0.32479178  0.36832472  1  0  0.123518  0  0.94069  0  0  0.131218  0  1.001671  0  0  0.134541  0  1.000965  0  0  0.107317  0.128653  0  1.002787  0
H  H13  1  0.27063365  0.82472821  0.36803426  1  0  0.122451  0  0.94063  0  0  0.130514  0  1.001395  0  0  0.133832  0  1.000698  0  0  0.106935  0.127935  0  1.00254  0
H  H14  1  0.81705951  0.67316616  0.33136407  1  0  0.104239  0  0.949583  0  0  0.107521  0  1.020407  0  0  0.111189  0  1.016958  0  0  0.104463  0.104471  0  1.023901  0
H  H15  1  0.51412077  0.17290424  0.33122462  1  0  0.103479  0  0.949518  0  0  0.107313  0  1.019896  0  0  0.111069  0  1.016366  0  0  0.104173  0.104212  0  1.023439  0
H  H16  1  0.84749683  0.46130863  0.40385423  1  0  0.119652  0  0.941479  0  0  0.129676  0  0.998733  0  0  0.133438  0  0.997482  0  0  0.107562  0.126666  0  1.000513  0
H  H17  1  0.55593985  0.96107759  0.40375313  1  0  0.11951  0  0.941949  0  0  0.129427  0  0.999446  0  0  0.133128  0  0.998295  0  0  0.107321  0.126428  0  1.001209  0
H  H18  1  0.33181605  0.25726346  0.07673688  1  0  0.037046  0  0.951113  0  0  0.042872  0  1.027408  0  0  0.044361  0  1.022487  0  0  0.127721  0.041129  0  1.032064  0
H  H19  1  0.74514728  0.75726445  0.07653815  1  0  0.037247  0  0.9505  0  0  0.042288  0  1.027623  0  0  0.043739  0  1.022738  0  0  0.127394  0.040669  0  1.032135  0
H  H20  1  0.59446912  0.62760052  0.79660763  1  0  0.041192  0  0.981693  0  0  0.047747  0  1.057385  0  0  0.049798  0  1.052544  0  0  0.13204  0.046223  0  1.060615  0
H  H21  1  0.20218348  0.12774582  0.79673611  1  0  0.041762  0  0.981172  0  0  0.04838  0  1.056482  0  0  0.050465  0  1.051655  0  0  0.132214  0.046807  0  1.059786  0
H  H22  1  0.61183072  0.57716683  0.54768294  1  0  0.103549  0  0.960328  0  0  0.118634  0  1.030995  0  0  0.118367  0  1.032118  0  0  0.102337  0.118499  0  1.030932  0
H  H23  1  0.93579680  0.07717958  0.54781429  1  0  0.103174  0  0.960893  0  0  0.118287  0  1.031475  0  0  0.117994  0  1.032632  0  0  0.102478  0.118167  0  1.031378  0
H  H24  1  0.80382595  0.65100522  0.62799767  1  0  0.094964  0  0.957773  0  0  0.115442  0  1.02049  0  0  0.115267  0  1.02258  0  0  0.100734  0.115442  0  1.019181  0
H  H25  1  0.82415061  0.15103795  0.62810340  1  0  0.094909  0  0.957557  0  0  0.114995  0  1.020743  0  0  0.114804  0  1.022855  0  0  0.100685  0.115003  0  1.019394  0
H  H26  1  0.63218524  0.70242448  0.66017346  1  0  0.114314  0  0.938075  0  0  0.13596  0  0.995608  0  0  0.137124  0  0.995067  0  0  0.114656  0.134947  0  0.996315  0
H  H27  1  0.02795227  0.20251637  0.66024291  1  0  0.11357  0  0.938245  0  0  0.135774  0  0.995162  0  0  0.137013  0  0.994475  0  0  0.114499  0.134712  0  0.995956  0
H  H28  1  0.92520090  0.42431137  0.72989218  1  0  0.097842  0  0.937417  0  0  0.117438  0  1.00374  0  0  0.118634  0  1.00221  0  0  0.105185  0.116451  0  1.004883  0
H  H29  1  0.80464084  0.92443761  0.72998167  1  0  0.097757  0  0.936267  0  0  0.117114  0  1.003028  0  0  0.118412  0  1.00139  0  0  0.105025  0.116085  0  1.004195  0
H  H30  1  0.77350415  0.38437982  0.59755547  1  0  0.108368  0  0.934978  0  0  0.131868  0  0.99159  0  0  0.13166  0  0.993074  0  0  0.110167  0.131819  0  0.990857  0
H  H31  1  0.82404130  0.88451617  0.59765353  1  0  0.107877  0  0.9353  0  0  0.131602  0  0.991771  0  0  0.131437  0  0.993211  0  0  0.110049  0.131509  0  0.991088  0
H  H32  1  0.75244616  0.32813634  0.71675890  1  0  0.100077  0  0.964469  0  0  0.118022  0  1.031508  0  0  0.118878  0  1.031523  0  0  0.108061  0.11715  0  1.031791  0
H  H33  1  0.96422168  0.82820032  0.71685575  1  0  0.099698  0  0.965866  0  0  0.117636  0  1.032896  0  0  0.118435  0  1.033007  0  0  0.107877  0.116757  0  1.033179  0
H  H34  1  0.93491525  0.29457147  0.88809567  1  0  0.109849  0  0.961685  0  0  0.125538  0  1.03227  0  0  0.127756  0  1.030073  0  0  0.109778  0.123735  0  1.03413  0
H  H35  1  0.95365686  0.79416661  0.88803112  1  0  0.110114  0  0.96139  0  0  0.125631  0  1.03218  0  0  0.127926  0  1.02989  0  0  0.10992  0.123805  0  1.034078  0
H  H36  1  0.85377325  0.24400347  0.98458238  1  0  0.105373  0  0.943294  0  0  0.124979  0  1.006977  0  0  0.125488  0  1.007055  0  0  0.110634  0.124011  0  1.007716  0
H  H37  1  0.13120109  0.74356937  0.98459892  1  0  0.105271  0  0.944371  0  0  0.124989  0  1.007839  0  0  0.125465  0  1.007952  0  0  0.110835  0.124039  0  1.008552  0
H  H38  1  0.88948536  0.12578748  0.88435594  1  0  0.099331  0  0.93093  0  0  0.121793  0  0.98953  0  0  0.122222  0  0.989674  0  0  0.107431  0.121294  0  0.98962  0
H  H39  1  0.99521255  0.62535965  0.88431040  1  0  0.09918  0  0.930046  0  0  0.12149  0  0.989117  0  0  0.121855  0  0.98933  0  0  0.107419  0.121001  0  0.989202  0
H  H40  1  0.08843210  0.01332355  0.04039556  1  0  0.106866  0  0.930681  0  0  0.125946  0  0.993385  0  0  0.126997  0  0.993  0  0  0.106781  0.124971  0  0.993948  0
H  H41  1  0.95172134  0.51298353  0.04035464  1  0  0.10702  0  0.931067  0  0  0.126453  0  0.993408  0  0  0.127497  0  0.993047  0  0  0.106701  0.125427  0  0.994018  0
H  H42  1  0.04106665  0.12708094  0.13913931  1  0  0.094542  0  0.97637  0  0  0.112412  0  1.043641  0  0  0.111395  0  1.047143  0  0  0.098284  0.113202  0  1.040927  0
H  H43  1  0.09791014  0.62665961  0.13922079  1  0  0.095208  0  0.977017  0  0  0.11279  0  1.044443  0  0  0.111821  0  1.047916  0  0  0.098225  0.113552  0  1.041753  0
H  H44  1  0.24204170  0.11552301  0.14418637  1  0  0.109827  0  0.9379  0  0  0.130315  0  0.999917  0  0  0.130952  0  0.999272  0  0  0.112544  0.129814  0  1.000424  0
H  H45  1  0.90183175  0.61541891  0.14398574  1  0  0.110329  0  0.93848  0  0  0.130775  0  1.000335  0  0  0.131414  0  0.999684  0  0  0.112626  0.130263  0  1.000856  0
C  C46  1  0.28039303  0.62615111  0.71952381  1  0  0.707625  0  3.878624  0  0  0.656104  0  4.170531  0  0  0.69255  0  4.159945  0  0  0.23046  0.631014  0  4.176892  0
C  C47  1  0.43891356  0.12627316  0.71940029  1  0  0.70705  0  3.878957  0  0  0.656046  0  4.170547  0  0  0.692509  0  4.159935  0  0  0.230044  0.631007  0  4.176825  0
C  C48  1  0.61884518  0.18917279  0.07931945  1  0  0.698511  0  3.895721  0  0  0.646086  0  4.192606  0  0  0.682251  0  4.182278  0  0  0.228578  0.621039  0  4.19951  0
C  C49  1  0.46062341  0.68926518  0.07926778  1  0  0.698184  0  3.895879  0  0  0.64624  0  4.191667  0  0  0.682408  0  4.181382  0  0  0.228199  0.62121  0  4.198538  0
C  C50  1  0.15622913  0.63713272  0.61040098  1  0  -0.238212  0  3.784307  0  0  -0.21948  0  4.026237  0  0  -0.234162  0  4.048223  0  0  -0.042764  -0.209067  0  4.010714  0
C  C51  1  0.45370293  0.13707533  0.61018782  1  0  -0.237914  0  3.784943  0  0  -0.220279  0  4.027788  0  0  -0.234975  0  4.049753  0  0  -0.042559  -0.209892  0  4.012251  0
C  C52  1  0.75574285  0.16902513  0.17944569  1  0  -0.238927  0  3.796713  0  0  -0.221727  0  4.040602  0  0  -0.236609  0  4.06354  0  0  -0.042678  -0.21142  0  4.024312  0
C  C53  1  0.42369168  0.66903932  0.17929067  1  0  -0.240373  0  3.79826  0  0  -0.222168  0  4.040724  0  0  -0.237165  0  4.063809  0  0  -0.042535  -0.211855  0  4.024414  0
C  C54  1  0.77239921  0.04910280  0.21808371  1  0  -0.089628  0  3.714813  0  0  -0.122261  0  3.966153  0  0  -0.119064  0  3.985635  0  0  -0.070844  -0.123458  0  3.951894  0
C  C55  1  0.44564969  0.54912576  0.21792171  1  0  -0.089148  0  3.714663  0  0  -0.122524  0  3.965918  0  0  -0.119255  0  3.985512  0  0  -0.071135  -0.123696  0  3.951564  0
C  C56  1  0.13864362  0.75434950  0.56746181  1  0  -0.082941  0  3.708505  0  0  -0.11805  0  3.966154  0  0  -0.113788  0  3.983963  0  0  -0.070717  -0.120072  0  3.953008  0
C  C57  1  0.42849879  0.25429003  0.56723300  1  0  -0.081913  0  3.707004  0  0  -0.116661  0  3.965227  0  0  -0.112269  0  3.983065  0  0  -0.070313  -0.118685  0  3.952025  0
C  C58  1  0.05230873  0.52916189  0.54826818  1  0  0.340618  0  3.794476  0  0  0.323476  0  4.059274  0  0  0.339678  0  4.073926  0  0  0.097547  0.312542  0  4.049184  0
C  C59  1  0.49551676  0.02905631  0.54811316  1  0  0.339908  0  3.796678  0  0  0.323359  0  4.060974  0  0  0.33954  0  4.075659  0  0  0.097249  0.312398  0  4.05091  0
C  C60  1  0.87391728  0.27002684  0.23580600  1  0  0.33711  0  3.798842  0  0  0.320778  0  4.062053  0  0  0.337183  0  4.075838  0  0  0.096568  0.309777  0  4.052452  0
C  C61  1  0.36179528  0.76998322  0.23559929  1  0  0.336598  0  3.802155  0  0  0.319871  0  4.065235  0  0  0.336311  0  4.079068  0  0  0.096386  0.308795  0  4.055689  0
C  C62  1  0.90226598  0.02708427  0.31035619  1  0  0.119887  0  3.853851  0  0  0.126693  0  4.106249  0  0  0.121697  0  4.132024  0  0  0.069996  0.130653  0  4.088117  0
C  C63  1  0.40807193  0.52708846  0.31018831  1  0  0.120921  0  3.850933  0  0  0.127707  0  4.103507  0  0  0.122745  0  4.129199  0  0  0.070215  0.131662  0  4.085452  0
C  C64  1  0.02057899  0.12785751  0.36447949  1  0  -0.074696  0  3.706092  0  0  -0.0952  0  3.951647  0  0  -0.091306  0  3.970034  0  0  -0.074187  -0.098268  0  3.94029  0
C  C65  1  0.34385239  0.62785634  0.36429395  1  0  -0.075709  0  3.705898  0  0  -0.096579  0  3.95124  0  0  -0.092698  0  3.969615  0  0  -0.074546  -0.099767  0  3.940071  0
C  C66  1  0.01926335  0.76805531  0.46694632  1  0  0.11915  0  3.84772  0  0  0.123998  0  4.104822  0  0  0.118767  0  4.130731  0  0  0.071147  0.128133  0  4.086243  0
C  C67  1  0.44751902  0.26792713  0.46674868  1  0  0.118716  0  3.848792  0  0  0.123315  0  4.106505  0  0  0.118082  0  4.132392  0  0  0.07148  0.127451  0  4.08795  0
C  C68  1  0.00660355  0.24703227  0.32776094  1  0  -0.178109  0  3.717544  0  0  -0.195259  0  3.970531  0  0  -0.203911  0  3.989855  0  0  -0.099092  -0.189892  0  3.959071  0
C  C69  1  0.32103659  0.74699986  0.32753137  1  0  -0.176037  0  3.71747  0  0  -0.193654  0  3.970429  0  0  -0.202303  0  3.989755  0  0  -0.098793  -0.188265  0  3.959056  0
C  C70  1  0.91236888  0.66134122  0.40836141  1  0  -0.074279  0  3.705051  0  0  -0.095496  0  3.951435  0  0  -0.091699  0  3.969743  0  0  -0.074092  -0.098386  0  3.940241  0
C  C71  1  0.49581477  0.16117657  0.40823733  1  0  -0.07403  0  3.705156  0  0  -0.095671  0  3.951296  0  0  -0.091973  0  3.969617  0  0  -0.074366  -0.09858  0  3.940169  0
C  C72  1  0.92850656  0.54419199  0.44862262  1  0  -0.182028  0  3.728846  0  0  -0.199602  0  3.983284  0  0  -0.20849  0  4.003083  0  0  -0.100034  -0.194237  0  3.97173  0
C  C73  1  0.51973750  0.04400028  0.44848251  1  0  -0.180854  0  3.729074  0  0  -0.198436  0  3.983351  0  0  -0.207279  0  4.003248  0  0  -0.099038  -0.19307  0  3.971822  0
C  C74  1  0.21932476  0.27507662  0.01202757  1  0  0.405984  0  3.827141  0  0  0.33134  0  4.117815  0  0  0.359444  0  4.118834  0  0  0.186422  0.312183  0  4.117224  0
C  C75  1  0.79302316  0.77490456  0.01183734  1  0  0.404502  0  3.827777  0  0  0.330377  0  4.118506  0  0  0.358502  0  4.119527  0  0  0.186235  0.311162  0  4.117858  0
C  C76  1  0.65610564  0.53714251  0.78936380  1  0  0.388531  0  3.824277  0  0  0.310423  0  4.118189  0  0  0.338432  0  4.118864  0  0  0.177935  0.291726  0  4.116772  0
C  C77  1  0.13337789  0.03724638  0.78950721  1  0  0.386957  0  3.824265  0  0  0.308963  0  4.118049  0  0  0.336924  0  4.118803  0  0  0.177415  0.290288  0  4.116657  0
C  C78  1  0.68910531  0.61914418  0.63141458  1  0  -0.173802  0  3.643094  0  0  -0.27344  0  3.886275  0  0  -0.269898  0  3.897443  0  0  -0.131714  -0.27572  0  3.879143  0
C  C79  1  0.94232257  0.11919953  0.63154565  1  0  -0.172301  0  3.642707  0  0  -0.271959  0  3.8859  0  0  -0.26844  0  3.897129  0  0  -0.131363  -0.274218  0  3.878745  0
C  C80  1  0.79601293  0.40812085  0.68645340  1  0  -0.178302  0  3.669545  0  0  -0.284094  0  3.924006  0  0  -0.280016  0  3.933841  0  0  -0.136067  -0.286673  0  3.917632  0
C  C81  1  0.89041898  0.90822977  0.68656910  1  0  -0.176554  0  3.668804  0  0  -0.282476  0  3.92354  0  0  -0.278447  0  3.933329  0  0  -0.135382  -0.285013  0  3.917249  0
C  C82  1  0.93390182  0.21853965  0.93816203  1  0  -0.167051  0  3.635601  0  0  -0.266146  0  3.880852  0  0  -0.261949  0  3.889196  0  0  -0.129113  -0.268457  0  3.875544  0
C  C83  1  0.00465792  0.71812190  0.93811042  1  0  -0.166909  0  3.632655  0  0  -0.265858  0  3.878104  0  0  -0.261651  0  3.886413  0  0  -0.129597  -0.268168  0  3.872799  0
C  C84  1  0.11754691  0.11042490  0.08895998  1  0  -0.167562  0  3.644125  0  0  -0.269051  0  3.892564  0  0  -0.265204  0  3.903573  0  0  -0.129685  -0.271036  0  3.884287  0
C  C85  1  0.97128847  0.61012047  0.08888246  1  0  -0.169197  0  3.646614  0  0  -0.27077  0  3.894877  0  0  -0.266931  0  3.905822  0  0  -0.12974  -0.272724  0  3.886714  0
N  N86  1  0.90448721  0.90341663  0.34232823  1  0  -0.179172  0  3.029477  0  0  -0.160595  0  3.319714  0  0  -0.157591  0  3.32494  0  0  -0.170145  -0.162724  0  3.31632  0
N  N87  1  0.43779229  0.40335760  0.34213607  1  0  -0.178833  0  3.029045  0  0  -0.160169  0  3.319078  0  0  -0.157185  0  3.32432  0  0  -0.169793  -0.162321  0  3.315704  0
N  N88  1  0.01479147  0.89082471  0.43326113  1  0  -0.175898  0  3.058553  0  0  -0.153401  0  3.352221  0  0  -0.150446  0  3.357966  0  0  -0.166699  -0.155412  0  3.348307  0
N  N89  1  0.41845586  0.39074560  0.43307170  1  0  -0.176452  0  3.060147  0  0  -0.154008  0  3.354026  0  0  -0.15105  0  3.359765  0  0  -0.167281  -0.156047  0  3.350158  0
N  N90  1  0.09438888  0.20734143  0.01459090  1  0  -0.086802  0  3.506253  0  0  0.016861  0  3.73872  0  0  -0.003329  0  3.763957  0  0  -0.278887  0.030606  0  3.720973  0
N  N91  1  0.92044815  0.70705977  0.01448447  1  0  -0.085618  0  3.503575  0  0  0.018229  0  3.735813  0  0  -0.001953  0  3.761044  0  0  -0.278192  0.031977  0  3.718077  0
N  N92  1  0.71261946  0.52296661  0.70616285  1  0  -0.086018  0  3.51662  0  0  0.019156  0  3.751242  0  0  -0.001487  0  3.776894  0  0  -0.282343  0.032912  0  3.733503  0
N  N93  1  0.99359617  0.02305241  0.70631309  1  0  -0.086489  0  3.51642  0  0  0.018626  0  3.751129  0  0  -0.002066  0  3.776867  0  0  -0.282395  0.032345  0  3.733409  0
O  O94  1  0.60643932  0.30514492  0.05218669  1  0  -0.71376  0  1.999244  0  0  -0.646111  0  2.238807  0  0  -0.673624  0  2.225655  0  0  -0.363671  -0.626207  0  2.248641  0
O  O95  1  0.44576535  0.80523530  0.05212137  1  0  -0.712881  0  2.000115  0  0  -0.645815  0  2.239572  0  0  -0.673327  0  2.226406  0  0  -0.363449  -0.625898  0  2.249373  0
O  O96  1  0.29129899  0.51339778  0.75262450  1  0  -0.711667  0  1.990712  0  0  -0.644137  0  2.226312  0  0  -0.671622  0  2.213034  0  0  -0.360181  -0.624214  0  2.23451  0
O  O97  1  0.46130089  0.01356479  0.75258906  1  0  -0.712364  0  1.989945  0  0  -0.64462  0  2.225559  0  0  -0.672134  0  2.212279  0  0  -0.360226  -0.624636  0  2.233706  0
O  O98  1  0.52108560  0.09649656  0.02524630  1  0  -0.697378  0  1.977981  0  0  -0.642389  0  2.231881  0  0  -0.668084  0  2.218509  0  0  -0.374397  -0.623583  0  2.240898  0
O  O99  1  0.50447870  0.59665398  0.02524843  1  0  -0.697216  0  1.977791  0  0  -0.642595  0  2.231371  0  0  -0.66824  0  2.217974  0  0  -0.374431  -0.623794  0  2.240416  0
O  O100  1  0.06919291  0.41251745  0.58276916  1  0  -0.509727  0  2.114643  0  0  -0.461024  0  2.331516  0  0  -0.483534  0  2.324966  0  0  -0.339635  -0.444968  0  2.336142  0
O  O101  1  0.51311394  0.91244753  0.58268159  1  0  -0.510687  0  2.113296  0  0  -0.461716  0  2.330262  0  0  -0.484202  0  2.323716  0  0  -0.340104  -0.445685  0  2.334928  0
O  O102  1  0.36946805  0.72355621  0.77456282  1  0  -0.695657  0  1.989419  0  0  -0.640169  0  2.24418  0  0  -0.665885  0  2.230596  0  0  -0.371016  -0.621676  0  2.253387  0
O  O103  1  0.40513096  0.22374648  0.77449844  1  0  -0.695486  0  1.98929  0  0  -0.640208  0  2.243853  0  0  -0.665899  0  2.230256  0  0  -0.370952  -0.621717  0  2.253035  0
O  O104  1  0.86355361  0.38714194  0.20228333  1  0  -0.502893  0  2.093412  0  0  -0.452385  0  2.303297  0  0  -0.474668  0  2.296346  0  0  -0.339292  -0.436453  0  2.308319  0
O  O105  1  0.33833439  0.88700971  0.20196644  1  0  -0.502107  0  2.094674  0  0  -0.451559  0  2.304189  0  0  -0.473841  0  2.297252  0  0  -0.338384  -0.435643  0  2.3092  0
O  O106  1  0.21516340  0.35135838  0.94382516  1  0  -0.609913  0  1.982418  0  0  -0.555363  0  2.229901  0  0  -0.57968  0  2.221983  0  0  -0.358439  -0.538109  0  2.235194  0
O  O107  1  0.72918792  0.85126293  0.94362324  1  0  -0.609965  0  1.982583  0  0  -0.555057  0  2.229273  0  0  -0.579353  0  2.221283  0  0  -0.358207  -0.537827  0  2.234628  0
O  O108  1  0.66889973  0.45494231  0.85419649  1  0  -0.597875  0  2.006441  0  0  -0.541373  0  2.259417  0  0  -0.565957  0  2.25333  0  0  -0.355922  -0.523845  0  2.263068  0
O  O109  1  0.18548081  0.95503264  0.85429189  1  0  -0.596987  0  2.005093  0  0  -0.54085  0  2.258686  0  0  -0.565363  0  2.252469  0  0  -0.355913  -0.523337  0  2.262325  0
