# generated using pymatgen
data_Cu3H21(C5N2)4
_symmetry_space_group_name_H-M   'P 1'
_cell_length_a   11.36512116
_cell_length_b   11.36159623
_cell_length_c   13.20250000
_cell_angle_alpha   64.80127850
_cell_angle_beta   71.22247564
_cell_angle_gamma   71.09579215
_symmetry_Int_Tables_number   1
_chemical_formula_structural   Cu3H21(C5N2)4
_chemical_formula_sum   'Cu6 H42 C40 N16'
_cell_volume   1425.25542812
_cell_formula_units_Z   2
loop_
 _symmetry_equiv_pos_site_id
 _symmetry_equiv_pos_as_xyz
  1  'x, y, z'
loop_
 _atom_site_type_symbol
 _atom_site_label
 _atom_site_symmetry_multiplicity
 _atom_site_fract_x
 _atom_site_fract_y
 _atom_site_fract_z
 _atom_site_occupancy
 _atom_site_hle17_bader_spin_density
 _atom_site_hle17_ddec_charge
 _atom_site_hle17_ddec_spin_density
 _atom_site_hle17_ddec_sum_bond_order
 _atom_site_hle17_magmom
 _atom_site_hse06_10hf_bader_spin_density
 _atom_site_hse06_10hf_ddec_charge
 _atom_site_hse06_10hf_ddec_spin_density
 _atom_site_hse06_10hf_ddec_sum_bond_order
 _atom_site_hse06_10hf_magmom
 _atom_site_hse06_bader_spin_density
 _atom_site_hse06_ddec_charge
 _atom_site_hse06_ddec_spin_density
 _atom_site_hse06_ddec_sum_bond_order
 _atom_site_hse06_magmom
 _atom_site_pbe_bader_charge
 _atom_site_pbe_bader_spin_density
 _atom_site_pbe_cm5_charge
 _atom_site_pbe_ddec_charge
 _atom_site_pbe_ddec_spin_density
 _atom_site_pbe_ddec_sum_bond_order
 _atom_site_pbe_magmom
Cu  Cu0  1  0.61455476  0.23486132  0.09159456  1  0  0.395931  0  2.243716  0  0  0.297782  0  2.741029  0  0  0.2949  0  2.699151  0  0.649702  0  0.50047  0.302073  0  2.766907  0
Cu  Cu1  1  0.38544270  0.76513928  0.90840282  1  0  0.395913  0  2.243779  0  0  0.297771  0  2.741106  0  0  0.294873  0  2.699211  0  0.649618  0  0.500496  0.302057  0  2.767003  0
Cu  Cu2  1  0.46748154  0.13251243  0.50506250  1  0  0.37461  0  2.295722  0  0  0.27955  0  2.797476  0  0  0.280363  0  2.744542  0  0.646356  0  0.483054  0.281189  0  2.832091  0
Cu  Cu3  1  0.53251705  0.86748718  0.49493644  1  0  0.374639  0  2.295699  0  0  0.279584  0  2.797465  0  0  0.28042  0  2.744542  0  0.646588  0  0.483058  0.281223  0  2.83208  0
Cu  Cu4  1  0.69086458  0.05230027  0.79676735  1  0  0.405774  0  2.260859  0  0  0.314602  0  2.7465  0  0  0.30934  0  2.704869  0  0.656065  0  0.506721  0.321648  0  2.771102  0
Cu  Cu5  1  0.30913680  0.94769934  0.20322931  1  0  0.405767  0  2.26089  0  0  0.314613  0  2.74654  0  0  0.309334  0  2.70487  0  0.656063  0  0.506706  0.321661  0  2.771125  0
H  H6  1  0.15787802  0.03952996  0.95493927  1  0  0.126239  0  0.960389  0  0  0.143867  0  1.025655  0  0  0.144875  0  1.026455  0  0.085584  0  0.093329  0.143106  0  1.02508  0
H  H7  1  0.84212067  0.96047364  0.04506046  1  0  0.126258  0  0.960332  0  0  0.143901  0  1.025595  0  0  0.144907  0  1.026399  0  0.085812  0  0.093342  0.143139  0  1.025022  0
H  H8  1  0.00697004  0.13173895  0.92085664  1  0  0.118881  0  0.945015  0  0  0.141431  0  1.001963  0  0  0.142722  0  1.002053  0  0.052691  0  0.097728  0.140554  0  1.001747  0
H  H9  1  0.99302793  0.86826365  0.07914517  1  0  0.118907  0  0.945034  0  0  0.141476  0  1.001961  0  0  0.142765  0  1.002053  0  0.052657  0  0.097746  0.140604  0  1.001739  0
H  H10  1  0.12661010  0.21585437  0.89520475  1  0  0.114824  0  0.938855  0  0  0.135016  0  0.997993  0  0  0.136611  0  0.998134  0  0.023227  0  0.093132  0.133964  0  0.997785  0
H  H11  1  0.87338931  0.78415023  0.10479214  1  0  0.114897  0  0.938927  0  0  0.135112  0  0.998026  0  0  0.136708  0  0.998164  0  0.023221  0  0.093158  0.13406  0  0.99782  0
H  H12  1  0.35011397  0.14165558  0.73370220  1  0  0.296117  0  0.874164  0  0  0.283619  0  0.927316  0  0  0.288838  0  0.924934  0  0.489302  0  0.335967  0.27973  0  0.929468  0
H  H13  1  0.64987822  0.85834801  0.26629781  1  0  0.296069  0  0.874113  0  0  0.283603  0  0.927228  0  0  0.288819  0  0.924849  0  0.489187  0  0.335938  0.279713  0  0.92938  0
H  H14  1  0.58086996  0.40431914  0.21717173  1  0  0.296307  0  0.87268  0  0  0.287028  0  0.918806  0  0  0.292526  0  0.915925  0  0.497417  0  0.338758  0.283116  0  0.921007  0
H  H15  1  0.41912956  0.59568046  0.78283150  1  0  0.2963  0  0.872646  0  0  0.287031  0  0.918776  0  0  0.29253  0  0.915892  0  0.497463  0  0.338731  0.28312  0  0.920978  0
H  H16  1  0.21323685  0.15853149  0.42356041  1  0  0.118349  0  0.935408  0  0  0.139254  0  0.995191  0  0  0.14091  0  0.994611  0  0.050698  0  0.095037  0.138025  0  0.995599  0
H  H17  1  0.78676080  0.84147709  0.57643551  1  0  0.118389  0  0.935515  0  0  0.139316  0  0.995257  0  0  0.140971  0  0.994677  0  0.050769  0  0.095062  0.138085  0  0.995666  0
H  H18  1  0.07847871  0.08698405  0.50838385  1  0  0.111033  0  0.940385  0  0  0.133161  0  0.996917  0  0  0.134317  0  0.996905  0  0.027584  0  0.092239  0.132312  0  0.996965  0
H  H19  1  0.92151885  0.91302054  0.49161204  1  0  0.111049  0  0.940331  0  0  0.133183  0  0.996858  0  0  0.134339  0  0.996845  0  0.028047  0  0.092254  0.132338  0  0.996901  0
H  H20  1  0.23552147  0.98565543  0.50093860  1  0  0.126484  0  0.951669  0  0  0.145425  0  1.014622  0  0  0.146789  0  1.014706  0  0.07505  0  0.094775  0.144364  0  1.014633  0
H  H21  1  0.76447732  0.01435215  0.49905661  1  0  0.126499  0  0.951596  0  0  0.145429  0  1.014576  0  0  0.146787  0  1.014666  0  0.074982  0  0.094779  0.144368  0  1.014585  0
H  H22  1  0.90331838  0.12118540  0.80199572  1  0  0.099223  0  0.930693  0  0  0.117311  0  0.989108  0  0  0.118709  0  0.988116  0  0.090196  0  0.103696  0.116248  0  0.989861  0
H  H23  1  0.09667919  0.87881022  0.19800422  1  0  0.099189  0  0.930656  0  0  0.117277  0  0.989075  0  0  0.118675  0  0.98808  0  0.090109  0  0.103699  0.116218  0  0.98983  0
H  H24  1  0.92418756  0.11642594  0.66646728  1  0  0.094428  0  0.919384  0  0  0.111297  0  0.979829  0  0  0.113964  0  0.97632  0  0.041089  0  0.103718  0.109036  0  0.982784  0
H  H25  1  0.07581073  0.88357068  0.33353284  1  0  0.094316  0  0.919373  0  0  0.11122  0  0.979782  0  0  0.113885  0  0.97627  0  0.041222  0  0.103675  0.108961  0  0.982742  0
H  H26  1  0.16255681  0.84684058  0.80126362  1  0  0.109909  0  0.969938  0  0  0.114287  0  1.041176  0  0  0.118696  0  1.038883  0  0.101563  0  0.102026  0.11134  0  1.042513  0
H  H27  1  0.83744715  0.15316003  0.19873423  1  0  0.109929  0  0.969983  0  0  0.114307  0  1.041211  0  0  0.118713  0  1.038922  0  0.101443  0  0.102057  0.111362  0  1.042544  0
H  H28  1  0.13636434  0.61080808  0.89370917  1  0  0.086317  0  0.974609  0  0  0.093504  0  1.041689  0  0  0.095911  0  1.039995  0  0.091406  0  0.101153  0.091672  0  1.043006  0
H  H29  1  0.86363590  0.38919252  0.10629274  1  0  0.086309  0  0.97456  0  0  0.093475  0  1.041686  0  0  0.095883  0  1.039992  0  0.091483  0  0.101142  0.091662  0  1.042982  0
H  H30  1  0.91847028  0.56643095  0.93843663  1  0  0.097963  0  0.98157  0  0  0.108199  0  1.044944  0  0  0.110572  0  1.04565  0  0.073869  0  0.099664  0.10657  0  1.044447  0
H  H31  1  0.08153338  0.43356667  0.06156618  1  0  0.097967  0  0.981572  0  0  0.108189  0  1.044964  0  0  0.110561  0  1.045671  0  0.073905  0  0.099658  0.10656  0  1.044464  0
H  H32  1  0.67487071  0.78136133  0.81184041  1  0  0.108776  0  0.920753  0  0  0.127655  0  0.979204  0  0  0.12836  0  0.979096  0  0.098863  0  0.107363  0.127086  0  0.979154  0
H  H33  1  0.32513036  0.21863529  0.18816272  1  0  0.108777  0  0.920787  0  0  0.12762  0  0.979248  0  0  0.128321  0  0.979143  0  0.098801  0  0.107376  0.127058  0  0.9792  0
H  H34  1  0.63180634  0.83944173  0.92440946  1  0  0.095277  0  0.947355  0  0  0.109508  0  1.017874  0  0  0.112709  0  1.01327  0  0.044762  0  0.097956  0.107237  0  1.020745  0
H  H35  1  0.36819618  0.16055688  0.07559255  1  0  0.095257  0  0.947365  0  0  0.109461  0  1.017884  0  0  0.112664  0  1.013279  0  0.044533  0  0.097931  0.107193  0  1.02076  0
H  H36  1  0.51271336  0.65417352  0.23763987  1  0  0.127525  0  0.931435  0  0  0.148794  0  0.987294  0  0  0.150821  0  0.986472  0  0.093817  0  0.100713  0.147243  0  0.987977  0
H  H37  1  0.48728389  0.34582808  0.76236251  1  0  0.127546  0  0.931474  0  0  0.148825  0  0.987321  0  0  0.150841  0  0.986513  0  0.093851  0  0.100742  0.147274  0  0.988004  0
H  H38  1  0.59018462  0.77420270  0.12222946  1  0  0.129495  0  0.941972  0  0  0.15111  0  0.999537  0  0  0.152441  0  0.999875  0  0.078221  0  0.100159  0.14987  0  0.999688  0
H  H39  1  0.40981470  0.22579791  0.87777043  1  0  0.129479  0  0.941994  0  0  0.151093  0  0.999572  0  0  0.152424  0  0.999907  0  0.078208  0  0.100159  0.149854  0  0.99972  0
H  H40  1  0.67924346  0.63566494  0.21744621  1  0  0.115208  0  0.929031  0  0  0.135957  0  0.986755  0  0  0.137959  0  0.986165  0  0.039506  0  0.095595  0.134612  0  0.98706  0
H  H41  1  0.32075565  0.36433666  0.78255565  1  0  0.115201  0  0.929074  0  0  0.13596  0  0.986793  0  0  0.137962  0  0.9862  0  0.039512  0  0.095599  0.134615  0  0.987097  0
H  H42  1  0.82359570  0.49574569  0.80530140  1  0  0.113806  0  0.927989  0  0  0.137401  0  0.981118  0  0  0.138656  0  0.981225  0  0.040567  0  0.094896  0.136507  0  0.981012  0
H  H43  1  0.17640961  0.50425292  0.19470362  1  0  0.113789  0  0.92803  0  0  0.137394  0  0.981152  0  0  0.138649  0  0.981261  0  0.040652  0  0.094904  0.1365  0  0.981046  0
H  H44  1  0.67025633  0.58216957  0.77715396  1  0  0.121031  0  0.945245  0  0  0.140015  0  1.007283  0  0  0.141294  0  1.007208  0  0.061381  0  0.0946  0.13907  0  1.007385  0
H  H45  1  0.32975032  0.41782705  0.22284991  1  0  0.120989  0  0.945307  0  0  0.140004  0  1.007328  0  0  0.141282  0  1.007253  0  0.061306  0  0.094593  0.139056  0  1.007432  0
H  H46  1  0.70316002  0.40495307  0.84843334  1  0  0.123117  0  0.951319  0  0  0.142269  0  1.013067  0  0  0.144254  0  1.011937  0  0.074275  0  0.095503  0.140859  0  1.013772  0
H  H47  1  0.29684756  0.59504354  0.15156875  1  0  0.123064  0  0.951344  0  0  0.142214  0  1.013109  0  0  0.144198  0  1.01198  0  0.074221  0  0.095478  0.140803  0  1.013815  0
C  C48  1  0.10969046  0.12732835  0.89258596  1  0  -0.351742  0  3.730861  0  0  -0.425906  0  3.964212  0  0  -0.4294  0  3.973024  0  -0.029082  0  -0.233786  -0.423307  0  3.957953  0
C  C49  1  0.89030699  0.87267225  0.10741218  1  0  -0.351909  0  3.7309  0  0  -0.426124  0  3.964257  0  0  -0.429619  0  3.97307  0  -0.029295  0  -0.233851  -0.423529  0  3.958  0
C  C50  1  0.15660738  0.12108473  0.77550684  1  0  0.213923  0  3.739881  0  0  0.200973  0  4.01175  0  0  0.210697  0  4.030712  0  0.397026  0  0.097929  0.194705  0  3.998634  0
C  C51  1  0.84338728  0.87891587  0.22449283  1  0  0.213967  0  3.739911  0  0  0.200994  0  4.011784  0  0  0.210714  0  4.030748  0  0.397018  0  0.09794  0.194725  0  3.998672  0
C  C52  1  0.09742798  0.10043813  0.70835167  1  0  -0.143331  0  3.783918  0  0  -0.13035  0  4.033593  0  0  -0.14122  0  4.061758  0  0.001093  0  -0.040837  -0.123267  0  4.014527  0
C  C53  1  0.90256947  0.89956247  0.29164722  1  0  -0.143515  0  3.784024  0  0  -0.130468  0  4.033638  0  0  -0.141342  0  4.061803  0  0.00131  0  -0.040883  -0.123379  0  4.014575  0
C  C54  1  0.18817968  0.10378221  0.60490615  1  0  0.211443  0  3.747528  0  0  0.210985  0  4.008514  0  0  0.218192  0  4.030212  0  0.456685  0  0.097924  0.20636  0  3.99362  0
C  C55  1  0.81181529  0.89622138  0.39509233  1  0  0.211605  0  3.747408  0  0  0.211077  0  4.008439  0  0  0.218282  0  4.030143  0  0.456608  0  0.098005  0.206453  0  3.993544  0
C  C56  1  0.17763644  0.08295919  0.50439627  1  0  -0.345879  0  3.733127  0  0  -0.424088  0  3.968342  0  0  -0.426777  0  3.976541  0  -0.026545  0  -0.23559  -0.421942  0  3.962536  0
C  C57  1  0.82236132  0.91704441  0.49560220  1  0  -0.345995  0  3.733087  0  0  -0.424216  0  3.968337  0  0  -0.426895  0  3.976542  0  -0.026987  0  -0.235656  -0.422071  0  3.96253  0
C  C58  1  0.96825246  0.07262094  0.74156612  1  0  -0.192341  0  3.777835  0  0  -0.241794  0  4.024571  0  0  -0.241333  0  4.034806  0  -0.013268  0  -0.150645  -0.242019  0  4.017984  0
C  C59  1  0.03174685  0.92737967  0.25843226  1  0  -0.19211  0  3.77778  0  0  -0.241594  0  4.024457  0  0  -0.241123  0  4.034678  0  -0.013273  0  -0.150598  -0.241837  0  4.017891  0
C  C60  1  0.96376287  0.92664108  0.79586268  1  0  0.272143  0  3.682666  0  0  0.277362  0  3.920918  0  0  0.285329  0  3.941451  0  0.46739  0  0.121034  0.271979  0  3.907395  0
C  C61  1  0.03623728  0.07335554  0.20413692  1  0  0.272064  0  3.68259  0  0  0.277297  0  3.92084  0  0  0.28526  0  3.941373  0  0.467332  0  0.121003  0.271919  0  3.907318  0
C  C62  1  0.06989841  0.82372504  0.82142309  1  0  -0.173002  0  3.711183  0  0  -0.188412  0  3.952885  0  0  -0.197738  0  3.974021  0  0.039154  0  -0.092019  -0.182695  0  3.93886  0
C  C63  1  0.93010390  0.17627457  0.17857483  1  0  -0.172965  0  3.711466  0  0  -0.188373  0  3.953151  0  0  -0.197701  0  3.974294  0  0.039334  0  -0.092027  -0.182659  0  3.93913  0
C  C64  1  0.05463966  0.69251137  0.87297563  1  0  -0.003488  0  3.766274  0  0  -0.020306  0  4.016424  0  0  -0.013755  0  4.033187  0  -0.11385  0  -0.077657  -0.024447  0  4.005329  0
C  C65  1  0.94536060  0.30748026  0.12702654  1  0  -0.003715  0  3.766314  0  0  -0.020531  0  4.016509  0  0  -0.013982  0  4.033273  0  -0.113886  0  -0.077806  -0.024688  0  4.005406  0
C  C66  1  0.93425063  0.66749603  0.89805392  1  0  -0.1901  0  3.747156  0  0  -0.207215  0  3.989637  0  0  -0.216565  0  4.012291  0  -0.050221  0  -0.099274  -0.201391  0  3.974631  0
C  C67  1  0.06575406  0.33250557  0.10194564  1  0  -0.189879  0  3.746693  0  0  -0.20701  0  3.98913  0  0  -0.216358  0  4.011784  0  -0.050188  0  -0.099173  -0.201184  0  3.974124  0
C  C68  1  0.83158263  0.77460140  0.87105496  1  0  0.273651  0  3.694529  0  0  0.277783  0  3.93553  0  0  0.2858  0  3.95562  0  0.497745  0  0.118157  0.272348  0  3.922134  0
C  C69  1  0.16842093  0.22539223  0.12894859  1  0  0.273438  0  3.694754  0  0  0.277644  0  3.935637  0  0  0.285656  0  3.955729  0  0.497847  0  0.118178  0.272215  0  3.922243  0
C  C70  1  0.69729641  0.75927543  0.89431758  1  0  -0.201845  0  3.771047  0  0  -0.250612  0  4.011267  0  0  -0.250361  0  4.021271  0  -0.033238  0  -0.153097  -0.250442  0  4.003972  0
C  C71  1  0.30270652  0.24072119  0.10568505  1  0  -0.201678  0  3.771119  0  0  -0.250321  0  4.011146  0  0  -0.250074  0  4.021168  0  -0.032878  0  -0.153031  -0.250181  0  4.003889  0
C  C72  1  0.60134159  0.66724385  0.17263628  1  0  -0.354356  0  3.736757  0  0  -0.430381  0  3.969879  0  0  -0.4342  0  3.978975  0  -0.074846  0  -0.231806  -0.427482  0  3.963773  0
C  C73  1  0.39865793  0.33275575  0.82736392  1  0  -0.354355  0  3.736873  0  0  -0.4304  0  3.970003  0  0  -0.434206  0  3.979102  0  -0.074652  0  -0.231851  -0.4275  0  3.963896  0
C  C74  1  0.62740223  0.59177123  0.09649801  1  0  0.222413  0  3.728877  0  0  0.210827  0  3.996884  0  0  0.219836  0  4.01766  0  0.342501  0  0.103663  0.204754  0  3.982809  0
C  C75  1  0.37259791  0.40822539  0.90350463  1  0  0.222455  0  3.728845  0  0  0.210887  0  3.996875  0  0  0.219898  0  4.017645  0  0.342088  0  0.103724  0.204816  0  3.982797  0
C  C76  1  0.66974961  0.62789331  0.97756177  1  0  -0.140423  0  3.77818  0  0  -0.128234  0  4.036772  0  0  -0.137519  0  4.060984  0  0.089535  0  -0.038243  -0.12231  0  4.020163  0
C  C77  1  0.33025167  0.37210231  0.02244395  1  0  -0.140483  0  3.77839  0  0  -0.128373  0  4.037039  0  0  -0.137661  0  4.061256  0  0.089294  0  -0.038265  -0.122443  0  4.020434  0
C  C78  1  0.67933714  0.51481743  0.95319196  1  0  0.205807  0  3.751773  0  0  0.200024  0  4.02569  0  0  0.208526  0  4.043798  0  0.460709  0  0.095304  0.194635  0  4.013193  0
C  C79  1  0.32066673  0.48517918  0.04681192  1  0  0.205702  0  3.751944  0  0  0.199958  0  4.025863  0  0  0.208459  0  4.043974  0  0.460776  0  0.095271  0.19457  0  4.013361  0
C  C80  1  0.72114234  0.49828241  0.84000856  1  0  -0.347984  0  3.726961  0  0  -0.423327  0  3.95828  0  0  -0.425964  0  3.965763  0  -0.074411  0  -0.235756  -0.421302  0  3.952891  0
C  C81  1  0.27886297  0.50171620  0.15999495  1  0  -0.347871  0  3.727091  0  0  -0.423244  0  3.958357  0  0  -0.425879  0  3.965843  0  -0.074437  0  -0.235739  -0.421215  0  3.952965  0
C  C82  1  0.51747511  0.16749124  0.35119861  1  0  -0.119661  0  3.583354  0  0  -0.123558  0  3.971826  0  0  -0.104389  0  3.956295  0  0.668969  0  -0.069698  -0.137595  0  3.982592  0
C  C83  1  0.48252069  0.83250837  0.64880110  1  0  -0.119652  0  3.583727  0  0  -0.123552  0  3.972211  0  0  -0.1044  0  3.956686  0  0.668818  0  -0.069636  -0.137585  0  3.982976  0
C  C84  1  0.60662706  0.10594615  0.68162934  1  0  -0.1415  0  3.563071  0  0  -0.145488  0  3.938987  0  0  -0.12938  0  3.932155  0  0.690257  0  -0.070149  -0.157428  0  3.943172  0
C  C85  1  0.39337339  0.89405346  0.31836379  1  0  -0.141648  0  3.563011  0  0  -0.145661  0  3.938966  0  0  -0.129536  0  3.932113  0  0.689626  0  -0.070231  -0.1576  0  3.943142  0
C  C86  1  0.64474989  0.15502992  0.98919681  1  0  -0.130896  0  3.598595  0  0  -0.12993  0  3.98161  0  0  -0.11292  0  3.97135  0  0.683061  0  -0.071559  -0.141644  0  3.987892  0
C  C87  1  0.35525014  0.84497168  0.01079721  1  0  -0.130947  0  3.598461  0  0  -0.129991  0  3.981498  0  0  -0.112967  0  3.971206  0  0.683017  0  -0.071642  -0.141711  0  3.987793  0
N  N88  1  0.29575780  0.12597975  0.60837848  1  0  -0.231237  0  3.253463  0  0  -0.192939  0  3.568926  0  0  -0.201276  0  3.576611  0  -0.721535  0  -0.286985  -0.18787  0  3.563947  0
N  N89  1  0.70423738  0.87402285  0.39162031  1  0  -0.231319  0  3.253541  0  0  -0.192994  0  3.569022  0  0  -0.201339  0  3.57672  0  -0.721611  0  -0.286999  -0.187925  0  3.564044  0
N  N90  1  0.27451181  0.13629109  0.71162306  1  0  -0.206686  0  3.471015  0  0  -0.158421  0  3.711464  0  0  -0.170687  0  3.729178  0  -0.832341  0  -0.287888  -0.150418  0  3.699852  0
N  N91  1  0.72548916  0.86371051  0.28837752  1  0  -0.206562  0  3.471093  0  0  -0.158323  0  3.711497  0  0  -0.170583  0  3.729215  0  -0.832303  0  -0.28787  -0.150321  0  3.699884  0
N  N92  1  0.84719984  0.90152806  0.82049361  1  0  -0.37036  0  3.284379  0  0  -0.307477  0  3.557861  0  0  -0.320196  0  3.566931  0  -1.237032  0  -0.355921  -0.299741  0  3.551528  0
N  N93  1  0.15280082  0.09847055  0.17950664  1  0  -0.370236  0  3.284514  0  0  -0.307425  0  3.558012  0  0  -0.320139  0  3.567073  0  -1.237122  0  -0.355905  -0.299688  0  3.551668  0
N  N94  1  0.61336454  0.46473492  0.13598509  1  0  -0.211614  0  3.477809  0  0  -0.1589  0  3.711595  0  0  -0.172181  0  3.73034  0  -0.835918  0  -0.289696  -0.15015  0  3.6993  0
N  N95  1  0.38663539  0.53526269  0.86401951  1  0  -0.211673  0  3.477873  0  0  -0.159005  0  3.711724  0  0  -0.172285  0  3.730462  0  -0.835909  0  -0.289674  -0.150258  0  3.69943  0
N  N96  1  0.64395851  0.41596413  0.05092431  1  0  -0.248663  0  3.243184  0  0  -0.213329  0  3.56815  0  0  -0.22051  0  3.574856  0  -0.74357  0  -0.288164  -0.2092  0  3.563781  0
N  N97  1  0.35604421  0.58403349  0.94907952  1  0  -0.248511  0  3.243307  0  0  -0.213194  0  3.568298  0  0  -0.220367  0  3.574992  0  -0.743289  0  -0.288166  -0.209063  0  3.56393  0
N  N98  1  0.55075900  0.19539117  0.25088314  1  0  -0.402066  0  3.347959  0  0  -0.342206  0  3.686474  0  0  -0.356271  0  3.688796  0  -1.388313  0  -0.455378  -0.333162  0  3.684265  0
N  N99  1  0.44923494  0.80460844  0.74911331  1  0  -0.402123  0  3.34846  0  0  -0.342217  0  3.686868  0  0  -0.356305  0  3.689267  0  -1.388311  0  -0.455435  -0.333176  0  3.684667  0
N  N100  1  0.55143178  0.13318423  0.61007439  1  0  -0.391882  0  3.340262  0  0  -0.326338  0  3.658799  0  0  -0.342219  0  3.663514  0  -1.400936  0  -0.443419  -0.315867  0  3.65531  0
N  N101  1  0.44857002  0.86681338  0.38992288  1  0  -0.391786  0  3.340116  0  0  -0.326245  0  3.658676  0  0  -0.342134  0  3.663403  0  -1.400406  0  -0.44336  -0.315778  0  3.655189  0
N  N102  1  0.66020043  0.10995307  0.91910604  1  0  -0.406914  0  3.373946  0  0  -0.346769  0  3.707269  0  0  -0.360019  0  3.708931  0  -1.402292  0  -0.4547  -0.338515  0  3.705174  0
N  N103  1  0.33979991  0.89005152  0.08088907  1  0  -0.406831  0  3.373748  0  0  -0.346674  0  3.707059  0  0  -0.35992  0  3.708703  0  -1.40209  0  -0.454601  -0.338414  0  3.704958  0
