# generated using pymatgen
data_CuH6C8O5
_symmetry_space_group_name_H-M   'P 1'
_cell_length_a   6.60535976
_cell_length_b   19.28476139
_cell_length_c   19.30600557
_cell_angle_alpha   90.25564059
_cell_angle_beta   89.86745654
_cell_angle_gamma   89.65033129
_symmetry_Int_Tables_number   1
_chemical_formula_structural   CuH6C8O5
_chemical_formula_sum   'Cu8 H48 C64 O40'
_cell_volume   2459.17577960
_cell_formula_units_Z   8
loop_
 _symmetry_equiv_pos_site_id
 _symmetry_equiv_pos_as_xyz
  1  'x, y, z'
loop_
 _atom_site_type_symbol
 _atom_site_label
 _atom_site_symmetry_multiplicity
 _atom_site_fract_x
 _atom_site_fract_y
 _atom_site_fract_z
 _atom_site_occupancy
 _atom_site_pbe_bader_charge
 _atom_site_pbe_bader_spin_density
 _atom_site_pbe_cm5_charge
 _atom_site_pbe_ddec_charge
 _atom_site_pbe_ddec_spin_density
 _atom_site_pbe_ddec_sum_bond_order
 _atom_site_pbe_magmom
Cu  Cu0  1  0.14734356  0.52961441  0.52931008  1  1.08129  -0.552716  0.675149  0.826973  -0.70749  2.291211  -0.55
Cu  Cu1  1  0.14725882  0.97005706  0.97004205  1  1.080283  0.552039  0.678375  0.826767  0.707459  2.310725  0.549
Cu  Cu2  1  0.14757943  0.97028528  0.52961799  1  1.081195  0.55181  0.677706  0.826721  0.706689  2.307507  0.549
Cu  Cu3  1  0.14878184  0.52961545  0.97009033  1  1.052704  0.000227  0.656008  0.798104  0.000309  2.293628  0.0
Cu  Cu4  1  0.85138408  0.47035269  0.02973210  1  1.050094  -0.000178  0.656275  0.798176  -0.000252  2.292759  0.0
Cu  Cu5  1  0.85240738  0.02978535  0.47050673  1  1.080189  -0.551811  0.677545  0.82625  -0.706642  2.305391  -0.549
Cu  Cu6  1  0.85241216  0.02994701  0.03009144  1  1.081881  -0.552137  0.677969  0.825774  -0.707594  2.309944  -0.549
Cu  Cu7  1  0.85303458  0.47047081  0.47055760  1  1.07957  0.552703  0.675139  0.825937  0.707673  2.293237  0.55
H  H8  1  0.54828820  0.55905622  0.36128638  1  0.13393  -0.000226  0.105538  0.11534  -0.000224  1.029849  0.0
H  H9  1  0.54628831  0.93808408  0.13757401  1  0.138512  0.000147  0.107134  0.113229  0.000112  1.061099  0.0
H  H10  1  0.55115312  0.13719451  0.55994662  1  0.128409  0.000234  0.105699  0.11523  0.00023  1.033205  0.0
H  H11  1  0.54320912  0.36030443  0.93788816  1  0.121965  -1e-06  0.107562  0.113536  -1e-06  1.054798  0.0
H  H12  1  0.45183655  0.44127049  0.86159874  1  0.132797  -1e-06  0.105626  0.116054  -1e-06  1.032109  0.0
H  H13  1  0.45393926  0.06279763  0.63948848  1  0.165457  -0.000151  0.107537  0.113593  -0.000121  1.054823  0.0
H  H14  1  0.44834087  0.86287978  0.05959085  1  0.1271  -0.000213  0.105804  0.115638  -0.000212  1.03328  0.0
H  H15  1  0.45489882  0.63953245  0.43926106  1  0.122814  0.000164  0.106794  0.112794  0.000132  1.056681  0.0
H  H16  1  0.45213867  0.44103187  0.63849115  1  0.131673  0.000229  0.10565  0.115959  0.000226  1.030213  0.0
H  H17  1  0.45331969  0.06187946  0.86249312  1  0.135967  -0.00015  0.107185  0.113315  -0.000114  1.06077  0.0
H  H18  1  0.44889756  0.86286144  0.44013141  1  0.128165  -0.000227  0.105785  0.115542  -0.000221  1.033608  0.0
H  H19  1  0.45673806  0.63957322  0.06195125  1  0.121522  3e-06  0.10741  0.11324  2e-06  1.054266  0.0
H  H20  1  0.54841387  0.55857718  0.13818610  1  0.129486  3e-06  0.105667  0.115802  2e-06  1.031997  0.0
H  H21  1  0.54582923  0.93715388  0.36060601  1  0.163769  0.000147  0.107226  0.113183  0.000117  1.056072  0.0
H  H22  1  0.55154155  0.13700592  0.94056975  1  0.125675  0.000221  0.105877  0.115694  0.000219  1.032956  0.0
H  H23  1  0.54530202  0.36051904  0.56075061  1  0.121004  -0.000164  0.106941  0.112734  -0.000132  1.056616  0.0
H  H24  1  0.72669458  0.57966796  0.24960883  1  0.088842  0.000256  0.103597  0.103296  0.00013  0.997009  0.0
H  H25  1  0.72268564  0.91495708  0.24877692  1  0.103227  -0.000442  0.109348  0.113806  -0.000227  0.976243  0.0
H  H26  1  0.72543057  0.24936717  0.58212435  1  0.048149  -1.4e-05  0.106477  0.108696  -8e-06  0.987663  0.0
H  H27  1  0.72492408  0.24901319  0.91748161  1  0.050422  -0.000241  0.106412  0.108415  -0.000121  0.987537  0.0
H  H28  1  0.27366277  0.42025883  0.75012745  1  0.090479  -0.000256  0.103584  0.103716  -0.00013  0.996508  0.0
H  H29  1  0.27701182  0.08499133  0.75128962  1  0.10312  0.000441  0.109322  0.113722  0.000227  0.976354  0.0
H  H30  1  0.27502429  0.75083787  0.08252298  1  0.049807  0.000241  0.106476  0.108669  0.000121  0.98775  0.0
H  H31  1  0.27465357  0.75067936  0.41793604  1  0.049975  1.2e-05  0.106299  0.108355  8e-06  0.987562  0.0
H  H32  1  0.01342188  0.49713154  0.24996396  1  0.130698  0.000305  0.111183  0.123431  0.000265  1.004702  0.0
H  H33  1  0.02024939  0.01061373  0.25003457  1  0.108034  -0.000723  0.109855  0.120182  -0.000617  1.00613  0.0
H  H34  1  0.01857457  0.24785977  0.49268370  1  0.151046  3.8e-05  0.110459  0.121636  2.7e-05  1.005329  0.0
H  H35  1  0.01678343  0.24808691  0.00688377  1  0.147105  -0.00031  0.110975  0.121658  -0.000273  1.005808  0.0
H  H36  1  0.98676515  0.50298297  0.74992924  1  0.128595  -0.000305  0.111112  0.123199  -0.000265  1.004465  0.0
H  H37  1  0.97980860  0.98961037  0.75011169  1  0.107925  0.000722  0.1097  0.119916  0.000614  1.005568  0.0
H  H38  1  0.98318603  0.75192445  0.99316209  1  0.147671  0.000311  0.11093  0.121628  0.000273  1.005684  0.0
H  H39  1  0.98140127  0.75222245  0.50751770  1  0.148941  -4.4e-05  0.110571  0.121908  -2.9e-05  1.005328  0.0
H  H40  1  0.40160186  0.62728662  0.57669271  1  0.589175  8.5e-05  0.323565  0.402606  5.3e-05  0.873105  0.0
H  H41  1  0.40663931  0.92386456  0.87195668  1  0.580543  -8.9e-05  0.322355  0.400816  -5.6e-05  0.877382  0.0
H  H42  1  0.40262940  0.92581996  0.62832679  1  0.633359  -8e-05  0.321743  0.399886  -5.5e-05  0.877888  0.0
H  H43  1  0.40254044  0.62831787  0.92627609  1  0.632475  -2e-06  0.321718  0.400531  -2e-06  0.876979  0.0
H  H44  1  0.59697155  0.37146957  0.07267652  1  0.628664  1e-06  0.320792  0.400114  1e-06  0.878529  0.0
H  H45  1  0.59677748  0.07333569  0.37164796  1  0.632476  8e-05  0.321213  0.3995  5.5e-05  0.879076  0.0
H  H46  1  0.59274963  0.07550940  0.12824493  1  0.57837  8.9e-05  0.322147  0.400724  5.6e-05  0.876733  0.0
H  H47  1  0.59889911  0.37280814  0.42308895  1  0.589282  -8.5e-05  0.323176  0.402243  -5.3e-05  0.873314  0.0
H  H48  1  0.52943742  0.56892311  0.54133764  1  0.616507  1.1e-05  0.297817  0.385917  5.1e-05  0.947836  0.0
H  H49  1  0.52953118  0.95799704  0.93155107  1  0.614409  -1.5e-05  0.298428  0.385674  -5.7e-05  0.947826  0.0
H  H50  1  0.52865383  0.95887673  0.56902256  1  0.640012  -1.5e-05  0.298215  0.385919  -5.8e-05  0.947707  0.0
H  H51  1  0.53093066  0.56916937  0.95909701  1  0.635965  1e-06  0.297991  0.384986  1e-06  0.948757  0.0
H  H52  1  0.46867524  0.43129180  0.04112145  1  0.640716  -1e-06  0.298216  0.385545  -1e-06  0.947436  0.0
H  H53  1  0.47095758  0.04148634  0.43162352  1  0.614007  5e-06  0.29887  0.386184  4.8e-05  0.94661  0.0
H  H54  1  0.47001099  0.04215981  0.06820211  1  0.612384  8e-06  0.299097  0.385925  4.9e-05  0.946997  0.0
H  H55  1  0.47094321  0.43098262  0.45873165  1  0.617667  -1.4e-05  0.297812  0.385949  -5.4e-05  0.948034  0.0
C  C56  1  0.26867183  0.52853265  0.31261146  1  0.0416  -0.00061  -0.017983  -0.035845  -0.000452  3.963088  0.0
C  C57  1  0.27173407  0.97549605  0.18698924  1  0.006333  0.000189  -0.020257  -0.045656  0.000224  3.986963  0.0
C  C58  1  0.27243533  0.18580137  0.52701855  1  -0.00394  0.000169  -0.018264  -0.035926  0.000125  3.967781  0.0
C  C59  1  0.26862694  0.31126059  0.97410224  1  -0.075949  0.000734  -0.018391  -0.040763  0.000525  3.978642  0.001
C  C60  1  0.73143265  0.47177309  0.81274511  1  0.011045  0.000675  -0.015613  -0.030441  0.00049  3.956733  0.001
C  C61  1  0.72832857  0.02500623  0.68794699  1  0.019189  -0.000196  -0.019866  -0.043626  -0.000229  3.983753  0.0
C  C62  1  0.72822275  0.81415130  0.02712176  1  -0.077788  -0.000704  -0.017874  -0.03523  -0.000501  3.965919  0.0
C  C63  1  0.72938753  0.68882788  0.47511968  1  0.023722  -0.001134  -0.020836  -0.044742  -0.000772  3.98014  -0.001
C  C64  1  0.73164565  0.47156919  0.68724178  1  0.044376  0.000598  -0.017912  -0.03549  0.000443  3.963848  0.0
C  C65  1  0.72808643  0.02455810  0.81311220  1  0.003307  -0.000208  -0.020323  -0.046017  -0.000236  3.987579  0.0
C  C66  1  0.72754230  0.81427088  0.47312896  1  -0.000123  -0.000165  -0.018034  -0.036381  -0.000126  3.968498  0.0
C  C67  1  0.73123323  0.68865318  0.02584658  1  -0.076189  -0.000754  -0.018416  -0.041103  -0.00054  3.978241  -0.001
C  C68  1  0.26872254  0.52819824  0.18710427  1  -0.055632  -0.000717  -0.015607  -0.030657  -0.000508  3.956328  -0.001
C  C69  1  0.27159452  0.97508517  0.31216070  1  0.018659  0.0002  -0.019642  -0.04314  0.000231  3.983149  0.0
C  C70  1  0.27174885  0.18577563  0.97296794  1  -0.078945  0.000679  -0.017931  -0.035097  0.000482  3.966043  0.0
C  C71  1  0.27069009  0.31124886  0.52499361  1  0.02306  0.001119  -0.020687  -0.044316  0.000763  3.981076  0.001
C  C72  1  0.47002435  0.55154247  0.31231455  1  -0.096213  0.001014  -0.072219  -0.064354  0.000618  3.922092  0.001
C  C73  1  0.46996613  0.94851935  0.18665901  1  -0.000635  -0.000844  -0.076972  -0.090649  -0.000533  3.946197  -0.001
C  C74  1  0.47255808  0.18617756  0.55149342  1  -0.019735  -0.001134  -0.07215  -0.063358  -0.000719  3.914544  -0.001
C  C75  1  0.46783162  0.31128211  0.94818288  1  0.043283  0.00011  -0.077286  -0.092236  7.2e-05  3.947719  0.0
C  C76  1  0.53018269  0.44865167  0.81257089  1  -0.057603  0.000114  -0.072822  -0.066122  7.4e-05  3.921044  0.0
C  C77  1  0.53003735  0.05197740  0.68832696  1  -0.006288  0.000761  -0.076876  -0.091359  0.000486  3.944661  0.001
C  C78  1  0.52767362  0.81388658  0.05150583  1  -0.012449  0.000984  -0.07164  -0.062994  0.000624  3.914372  0.001
C  C79  1  0.53060178  0.68864463  0.44917366  1  -0.03221  -0.001044  -0.077022  -0.090491  -0.000661  3.947585  -0.001
C  C80  1  0.53034077  0.44850578  0.68747639  1  -0.099106  -0.001019  -0.072489  -0.065117  -0.000619  3.922528  -0.001
C  C81  1  0.52974453  0.05146799  0.81342575  1  0.004049  0.000798  -0.07675  -0.090675  0.000502  3.946563  0.001
C  C82  1  0.52746371  0.81388572  0.44860485  1  -0.026623  0.001119  -0.072465  -0.063494  0.000709  3.914502  0.001
C  C83  1  0.53208015  0.68862019  0.05176434  1  0.043931  -0.000114  -0.077215  -0.091531  -7.5e-05  3.94869  0.0
C  C84  1  0.47008375  0.55125722  0.18723531  1  -0.056046  -0.000107  -0.072829  -0.066387  -7e-05  3.920157  0.0
C  C85  1  0.46976243  0.94802905  0.31176661  1  -0.007039  -0.000812  -0.076908  -0.091503  -0.000519  3.945701  -0.001
C  C86  1  0.47228896  0.18602279  0.94861232  1  -0.011986  -0.000991  -0.072154  -0.063898  -0.000626  3.915659  -0.001
C  C87  1  0.46951092  0.31142263  0.55089091  1  -0.029022  0.001018  -0.077032  -0.090486  0.000644  3.947744  0.001
C  C88  1  0.56960597  0.56264711  0.24973279  1  0.003124  0.000758  -0.087816  -0.083425  0.000545  3.998864  0.001
C  C89  1  0.56851871  0.93550605  0.24904482  1  -0.159659  -0.001313  -0.084914  -0.072242  -0.000914  3.986669  -0.001
C  C90  1  0.57001679  0.24893263  0.56325535  1  -0.008465  -7.4e-05  -0.086685  -0.079214  -5.2e-05  3.994593  0.0
C  C91  1  0.56921859  0.24869685  0.93636871  1  -0.084039  -0.000715  -0.086172  -0.078145  -0.000515  3.993692  -0.001
C  C92  1  0.43070396  0.43731974  0.75003883  1  0.004669  -0.000753  -0.088292  -0.085043  -0.000543  3.999118  -0.001
C  C93  1  0.43124637  0.06449417  0.75103010  1  -0.163676  0.001316  -0.084873  -0.071966  0.000916  3.9864  0.001
C  C94  1  0.43073543  0.75118900  0.06366237  1  -0.085692  0.000722  -0.086396  -0.079071  0.000518  3.994733  0.001
C  C95  1  0.43007469  0.75113054  0.43682580  1  -0.002283  8.1e-05  -0.086612  -0.079014  5.7e-05  3.994471  0.0
C  C96  1  0.16837860  0.51612411  0.24989653  1  -0.044765  -0.00126  -0.072313  -0.104134  -0.000778  3.905471  -0.001
C  C97  1  0.17329520  0.98936654  0.24975535  1  -0.086801  0.002031  -0.07109  -0.090562  0.001207  3.910881  0.002
C  C98  1  0.17242505  0.24825721  0.51281192  1  -0.126987  0.00024  -0.070366  -0.095113  0.00018  3.909215  0.0
C  C99  1  0.17085945  0.24835075  0.98673828  1  0.023935  0.001207  -0.071322  -0.096676  0.000797  3.91037  0.001
C  C100  1  0.83182242  0.48395922  0.74997432  1  -0.107951  0.001285  -0.072133  -0.103699  0.00078  3.905739  0.001
C  C101  1  0.82663959  0.01076893  0.75035503  1  -0.087276  -0.00204  -0.070768  -0.089727  -0.00121  3.910073  -0.002
C  C102  1  0.82908039  0.75159527  0.01329294  1  0.02409  -0.001207  -0.071379  -0.096726  -0.000797  3.909331  -0.001
C  C103  1  0.82757960  0.75182960  0.48736514  1  -0.128826  -0.00025  -0.070649  -0.095382  -0.000185  3.909714  0.0
C  C104  1  0.16477950  0.51745636  0.38061300  1  1.524938  -0.000493  0.215301  0.573478  -0.000452  4.157193  0.0
C  C105  1  0.16537077  0.98826589  0.12003690  1  1.505054  0.001534  0.216002  0.568801  0.001181  4.171988  0.002
C  C106  1  0.16781365  0.11817451  0.51666626  1  1.501318  0.000299  0.214856  0.572469  0.000293  4.160232  0.0
C  C107  1  0.16189320  0.37883710  0.98733132  1  1.542158  0.000133  0.216756  0.566049  9.8e-05  4.173345  0.0
C  C108  1  0.83540274  0.48307555  0.88082959  1  1.518473  0.000139  0.214388  0.569204  9.9e-05  4.166727  0.0
C  C109  1  0.83461981  0.01236633  0.62061821  1  1.507298  -0.001487  0.216163  0.568415  -0.001148  4.168838  -0.002
C  C110  1  0.83271726  0.88175621  0.01664886  1  1.504291  -0.000467  0.215984  0.574314  -0.000432  4.158382  0.0
C  C111  1  0.83516949  0.62136827  0.48853848  1  1.505509  0.001315  0.216321  0.568704  0.001039  4.166729  0.002
C  C112  1  0.83559380  0.48266257  0.61925268  1  1.524117  0.000502  0.214957  0.572658  0.000455  4.159325  0.0
C  C113  1  0.83431659  0.01177030  0.88008785  1  1.506547  -0.00153  0.216494  0.569313  -0.001175  4.172109  -0.002
C  C114  1  0.83222771  0.88190119  0.48342892  1  1.502164  -0.000285  0.215609  0.574774  -0.000299  4.158425  0.0
C  C115  1  0.83799255  0.62109890  0.01260356  1  1.539177  -0.000136  0.216533  0.565922  -0.0001  4.168984  0.0
C  C116  1  0.16459825  0.51686383  0.11904413  1  1.519293  -0.00014  0.214396  0.569426  -0.0001  4.164268  0.0
C  C117  1  0.16529121  0.98771319  0.37950811  1  1.509445  0.001482  0.216114  0.567326  0.001143  4.171218  0.002
C  C118  1  0.16721905  0.11820559  0.98348496  1  1.503579  0.000475  0.215671  0.573667  0.000426  4.159925  0.0
C  C119  1  0.16508420  0.37870388  0.51145768  1  1.505628  -0.001328  0.216887  0.568899  -0.001044  4.166407  -0.002
O  O120  1  0.99473982  0.48638800  0.38110828  1  -1.089944  0.087402  -0.310694  -0.506537  0.05657  2.305812  0.078
O  O121  1  0.99090134  0.01620458  0.12137271  1  -1.099465  -0.084342  -0.305825  -0.504007  -0.054804  2.326613  -0.076
O  O122  1  0.99604744  0.11821270  0.48657073  1  -1.092825  -0.085706  -0.310877  -0.507127  -0.055487  2.316589  -0.077
O  O123  1  0.98807796  0.37794120  0.01528474  1  -1.100015  0.000264  -0.301142  -0.494819  0.000184  2.32253  0.0
O  O124  1  0.00502349  0.51425580  0.88079417  1  -1.088824  0.000278  -0.306367  -0.499077  0.000198  2.308118  0.0
O  O125  1  0.01017620  0.98526421  0.62146399  1  -1.101835  0.083815  -0.305475  -0.504512  0.054431  2.323771  0.076
O  O126  1  0.00336004  0.88160600  0.98554558  1  -1.092123  0.086202  -0.310819  -0.507206  0.055804  2.316231  0.077
O  O127  1  0.00930956  0.62207407  0.51616036  1  -1.09604  -0.084578  -0.305116  -0.503826  -0.054991  2.31719  -0.077
O  O128  1  0.00598065  0.51350558  0.61878266  1  -1.092687  -0.087404  -0.310549  -0.506565  -0.05655  2.306761  -0.078
O  O129  1  0.00957403  0.98441103  0.87873179  1  -1.101549  0.083921  -0.30631  -0.504834  0.054504  2.326349  0.076
O  O130  1  0.00290515  0.88195075  0.51425076  1  -1.09341  0.086022  -0.311104  -0.508373  0.05567  2.317257  0.077
O  O131  1  0.01279303  0.62209239  0.98537046  1  -1.096133  -0.000264  -0.301087  -0.495372  -0.000185  2.320902  0.0
O  O132  1  0.99368253  0.48653546  0.11915241  1  -1.088388  -0.000269  -0.306257  -0.49887  -0.000192  2.307739  0.0
O  O133  1  0.99075695  0.01558551  0.37872321  1  -1.103882  -0.084318  -0.305437  -0.503464  -0.054754  2.324239  -0.076
O  O134  1  0.99581578  0.11843270  0.01408161  1  -1.092051  -0.08601  -0.310829  -0.507157  -0.055671  2.316145  -0.077
O  O135  1  0.99073782  0.37798257  0.48399745  1  -1.095982  0.084406  -0.305067  -0.503253  0.054872  2.317047  0.076
O  O136  1  0.25659428  0.54079647  0.43418651  1  -1.107782  -0.093455  -0.312788  -0.530063  -0.06042  2.410439  -0.084
O  O137  1  0.26306653  0.96963244  0.06526471  1  -1.122111  0.077877  -0.309599  -0.539611  0.050811  2.424989  0.071
O  O138  1  0.26057510  0.06455336  0.53978137  1  -1.099704  0.093092  -0.312825  -0.529504  0.060257  2.418117  0.084
O  O139  1  0.26000249  0.43322728  0.96907317  1  -1.114546  3.6e-05  -0.306439  -0.534447  1.9e-05  2.424686  0.0
O  O140  1  0.74292172  0.45967828  0.93408704  1  -1.103714  -0.000335  -0.309743  -0.52486  -0.000219  2.410331  0.0
O  O141  1  0.73583165  0.03010943  0.56608727  1  -1.118989  -0.077406  -0.30946  -0.540542  -0.050537  2.42281  -0.07
O  O142  1  0.74116281  0.93546430  0.04072826  1  -1.10279  -0.092933  -0.312838  -0.529589  -0.060131  2.416496  -0.084
O  O143  1  0.73705429  0.56661379  0.47086077  1  -1.117345  0.077046  -0.309853  -0.541889  0.050268  2.415034  0.07
O  O144  1  0.74342146  0.45952499  0.56565024  1  -1.107711  0.093487  -0.312716  -0.52959  0.060466  2.411261  0.084
O  O145  1  0.73583307  0.02978964  0.93490612  1  -1.121438  -0.077513  -0.309376  -0.539767  -0.050716  2.427384  -0.07
O  O146  1  0.74073548  0.93542494  0.45953044  1  -1.100035  -0.093299  -0.31334  -0.529859  -0.060391  2.414983  -0.084
O  O147  1  0.73905602  0.56660032  0.03001024  1  -1.114219  -4e-05  -0.305962  -0.534061  -2.3e-05  2.423709  0.0
O  O148  1  0.25847711  0.53943030  0.06568067  1  -1.105079  0.00034  -0.309886  -0.525804  0.000223  2.409012  0.0
O  O149  1  0.26311674  0.96915677  0.43396198  1  -1.118602  0.077946  -0.309348  -0.539517  0.050851  2.42236  0.071
O  O150  1  0.25958992  0.06442371  0.95993029  1  -1.101974  0.092968  -0.312629  -0.529468  0.060185  2.418877  0.084
O  O151  1  0.26357405  0.43348380  0.52885403  1  -1.117728  -0.076882  -0.310179  -0.542576  -0.050172  2.415213  -0.07
O  O152  1  0.42218457  0.57727266  0.57597142  1  -1.170335  0.001754  -0.574383  -0.722993  0.000968  2.043315  0.001
O  O153  1  0.42471509  0.92318010  0.92196473  1  -1.160022  -0.001745  -0.574082  -0.722428  -0.000965  2.044755  -0.001
O  O154  1  0.42360288  0.92412365  0.57842853  1  -1.238379  -0.001732  -0.574736  -0.722771  -0.000951  2.042312  0.0
O  O155  1  0.42471219  0.57838940  0.92460595  1  -1.233429  1e-06  -0.575051  -0.721874  1e-06  2.041951  0.0
O  O156  1  0.57529186  0.42139383  0.07523841  1  -1.233642  -1e-06  -0.574222  -0.721708  -1e-06  2.041288  0.0
O  O157  1  0.57635625  0.07588599  0.42154326  1  -1.211241  0.001706  -0.574548  -0.722009  0.000937  2.042781  0.0
O  O158  1  0.57502454  0.07674574  0.07822968  1  -1.155391  0.001734  -0.574092  -0.721794  0.000959  2.044536  0.001
O  O159  1  0.57809181  0.42280721  0.42400868  1  -1.17154  -0.001758  -0.574196  -0.722812  -0.000971  2.043094  -0.001
