# generated using pymatgen
data_CoH3(C3O2)3
_symmetry_space_group_name_H-M   'P 1'
_cell_length_a   14.33660479
_cell_length_b   17.85518786
_cell_length_c   19.98060214
_cell_angle_alpha   91.74912004
_cell_angle_beta   90.00467207
_cell_angle_gamma   89.99974111
_symmetry_Int_Tables_number   1
_chemical_formula_structural   CoH3(C3O2)3
_chemical_formula_sum   'Co12 H36 C108 O72'
_cell_volume   5112.30676018
_cell_formula_units_Z   12
loop_
 _symmetry_equiv_pos_site_id
 _symmetry_equiv_pos_as_xyz
  1  'x, y, z'
loop_
 _atom_site_type_symbol
 _atom_site_label
 _atom_site_symmetry_multiplicity
 _atom_site_fract_x
 _atom_site_fract_y
 _atom_site_fract_z
 _atom_site_occupancy
 _atom_site_pbe_bader_charge
 _atom_site_pbe_bader_spin_density
 _atom_site_pbe_cm5_charge
 _atom_site_pbe_ddec_charge
 _atom_site_pbe_ddec_spin_density
 _atom_site_pbe_ddec_sum_bond_order
 _atom_site_pbe_magmom
Co  Co0  1  0.94745180  0.75471875  0.08244348  1  1.539975  2.881037  0.803601  1.25979  3.404203  2.482716  2.858
Co  Co1  1  0.80408914  0.79905215  0.95069438  1  1.446384  2.829041  0.817373  1.146693  3.317407  2.462261  2.785
Co  Co2  1  0.80607724  0.29746331  0.91285113  1  1.54064  2.931127  0.832541  1.231022  3.471356  2.559117  2.896
Co  Co3  1  0.44748223  0.74525654  0.41760067  1  1.539414  2.881181  0.803677  1.259544  3.404446  2.48327  2.858
Co  Co4  1  0.30410655  0.70091284  0.54929955  1  1.445595  2.829021  0.817716  1.14689  3.317249  2.463034  2.784
Co  Co5  1  0.30610243  0.20253825  0.58712545  1  1.54011  2.931278  0.832487  1.231192  3.471462  2.55823  2.896
Co  Co6  1  0.05255966  0.24525842  0.91758848  1  1.539789  2.881263  0.803689  1.259831  3.404628  2.483014  2.858
Co  Co7  1  0.19592929  0.20093171  0.04932473  1  1.445628  2.828898  0.817585  1.146692  3.317155  2.462646  2.784
Co  Co8  1  0.19385261  0.70254798  0.08716265  1  1.540372  2.931158  0.832627  1.23114  3.471294  2.558877  2.896
Co  Co9  1  0.55257387  0.25472724  0.58239693  1  1.539766  2.881088  0.803683  1.25993  3.404399  2.482997  2.858
Co  Co10  1  0.69590631  0.29904289  0.45068734  1  1.445999  2.828904  0.817549  1.146831  3.31723  2.463069  2.784
Co  Co11  1  0.69393554  0.79745064  0.41289178  1  1.540217  2.931079  0.832533  1.231289  3.47112  2.55833  2.896
H  H12  1  0.85395401  0.52496823  0.90170706  1  0.146945  0.00072  0.12414  0.136476  0.000413  0.970998  0.0
H  H13  1  0.00320058  0.80381283  0.93532142  1  0.133157  0.000268  0.11164  0.117068  -0.000308  1.05675  0.0
H  H14  1  0.99005536  0.03230831  0.87510190  1  0.145346  0.000688  0.119558  0.134886  0.000392  0.9795  0.0
H  H15  1  0.19393238  0.96627988  0.02094500  1  0.131264  0.000777  0.123113  0.135229  0.000382  0.970242  0.0
H  H16  1  0.42080020  0.70958577  0.21974577  1  0.094107  0.0017  0.118971  0.130944  0.000984  0.983402  0.001
H  H17  1  0.56052259  0.72065229  0.02999115  1  0.132079  0.001071  0.123525  0.134228  0.000634  0.982633  0.001
H  H18  1  0.71843854  0.74403875  0.21353482  1  0.134844  0.000928  0.120144  0.132748  0.000513  0.981278  0.0
H  H19  1  0.13969181  0.45505633  0.92860139  1  0.12609  0.000806  0.119571  0.130711  0.000482  0.983737  0.0
H  H20  1  0.06455035  0.68533480  0.96204077  1  0.138338  0.000902  0.111512  0.120631  0.00044  1.054286  0.001
H  H21  1  0.35392986  0.97497879  0.59829485  1  0.146493  0.00072  0.124198  0.136487  0.000413  0.971042  0.0
H  H22  1  0.50319293  0.69615313  0.56468299  1  0.133129  0.000268  0.11158  0.117036  -0.000308  1.056665  0.0
H  H23  1  0.49007753  0.46764653  0.62487727  1  0.145994  0.000686  0.119535  0.131735  0.000394  0.982883  0.0
H  H24  1  0.69393249  0.53371069  0.47904968  1  0.131103  0.000776  0.123162  0.135335  0.000382  0.970079  0.0
H  H25  1  0.92090017  0.79054750  0.28028520  1  0.095144  0.001696  0.119206  0.130981  0.000983  0.983446  0.001
H  H26  1  0.06070175  0.77964392  0.47003778  1  0.130586  0.001074  0.123543  0.134355  0.000635  0.982477  0.001
H  H27  1  0.21850071  0.75595466  0.28647788  1  0.134496  0.000929  0.120248  0.132734  0.000514  0.981127  0.0
H  H28  1  0.63964964  0.04494160  0.57139891  1  0.124898  0.000808  0.119666  0.130814  0.000482  0.983562  0.0
H  H29  1  0.56454865  0.81464622  0.53796809  1  0.138106  0.000898  0.111574  0.120686  0.000438  1.054189  0.001
H  H30  1  0.14604769  0.47496071  0.09830870  1  0.146816  0.00072  0.124187  0.136372  0.000413  0.97126  0.0
H  H31  1  0.99683180  0.19616808  0.06465458  1  0.133219  0.000267  0.111689  0.117235  -0.000308  1.056735  0.0
H  H32  1  0.00992611  0.96767092  0.12487506  1  0.146442  0.000686  0.119623  0.131729  0.000394  0.983023  0.0
H  H33  1  0.80605187  0.03373187  0.97903927  1  0.130628  0.000777  0.123126  0.135349  0.000382  0.969982  0.0
H  H34  1  0.57913035  0.29051068  0.78026860  1  0.095413  0.001698  0.119152  0.130884  0.000984  0.983431  0.001
H  H35  1  0.43938285  0.27951085  0.97002486  1  0.131092  0.001072  0.123583  0.134317  0.000633  0.982329  0.001
H  H36  1  0.28152619  0.25594170  0.78646969  1  0.135076  0.000929  0.1202  0.132737  0.000515  0.981317  0.0
H  H37  1  0.86034755  0.54494417  0.07136809  1  0.126127  0.000807  0.11955  0.130566  0.000482  0.984061  0.0
H  H38  1  0.93540949  0.31465054  0.03791982  1  0.139845  0.000896  0.111645  0.12083  0.000439  1.054103  0.001
H  H39  1  0.64602859  0.02499093  0.40168738  1  0.147197  0.000719  0.1241  0.136274  0.000413  0.971113  0.0
H  H40  1  0.49678435  0.30380597  0.43530599  1  0.132813  0.000269  0.111603  0.116964  -0.000308  1.056682  0.0
H  H41  1  0.50994369  0.53230300  0.37509795  1  0.145519  0.000687  0.11954  0.13491  0.000391  0.97947  0.0
H  H42  1  0.30606571  0.46627244  0.52092187  1  0.131248  0.000776  0.123193  0.135247  0.000382  0.970179  0.0
H  H43  1  0.07917337  0.20946210  0.71972604  1  0.09454  0.001699  0.119171  0.131129  0.000984  0.983275  0.001
H  H44  1  0.93940387  0.22042784  0.52996397  1  0.130966  0.001072  0.123602  0.134374  0.000634  0.982513  0.001
H  H45  1  0.78156515  0.24401008  0.71352075  1  0.134401  0.000929  0.120177  0.132657  0.000514  0.981138  0.0
H  H46  1  0.36031370  0.95504174  0.42863470  1  0.125607  0.000808  0.119454  0.130447  0.000482  0.984061  0.0
H  H47  1  0.43543910  0.18533256  0.46204239  1  0.138552  0.0009  0.111493  0.120653  0.000439  1.054343  0.001
C  C48  1  0.73447363  0.74534847  0.07718908  1  1.527195  -0.003661  0.247157  0.627172  -0.00428  4.079787  -0.003
C  C49  1  0.88468667  0.67431628  0.93729656  1  1.47349  0.000161  0.225438  0.592457  -0.000541  4.076924  -0.002
C  C50  1  0.95253448  0.61225821  0.93036408  1  0.068137  0.009482  -0.010386  -0.027802  0.005469  3.970171  0.007
C  C51  1  0.92664191  0.53890577  0.91204246  1  -0.055758  0.0031  -0.051152  -0.070188  0.001647  3.860559  0.002
C  C52  1  0.99493994  0.48260820  0.91100217  1  -0.010388  0.019351  -0.011591  -0.047449  0.011032  3.955175  0.015
C  C53  1  0.96865102  0.40190750  0.90170642  1  1.540265  -0.004338  0.234851  0.612326  -0.004678  4.129442  -0.003
C  C54  1  0.13690915  0.81847726  0.02531912  1  1.502472  -6.4e-05  0.23065  0.595249  -0.001482  4.083036  -0.003
C  C55  1  0.10359981  0.87823599  0.98132548  1  0.006402  0.009625  -0.007532  -0.018787  0.005545  3.950846  0.007
C  C56  1  0.03013716  0.86058030  0.93748862  1  -0.052646  0.000426  -0.06778  -0.094383  -0.000816  3.906022  0.001
C  C57  1  0.98835751  0.91547924  0.89941341  1  -0.045752  0.01464  -0.01187  -0.042328  0.007928  3.973508  0.011
C  C58  1  0.02341564  0.98853775  0.90337440  1  0.010155  0.002641  -0.054017  -0.072869  0.001297  3.877656  0.002
C  C59  1  0.09758810  0.00650987  0.94661412  1  0.046312  0.017273  -0.011964  -0.0433  0.009938  3.953211  0.014
C  C60  1  0.13856556  0.95136339  0.98563118  1  -0.021673  0.001781  -0.050974  -0.069791  0.00075  3.854683  0.001
C  C61  1  0.12247718  0.08730466  0.95739109  1  1.550911  -0.003551  0.230349  0.609691  -0.004279  4.145074  -0.004
C  C62  1  0.89882238  0.90033782  0.86212469  1  1.531495  -0.000127  0.228213  0.582895  -0.000716  4.126715  -0.004
C  C63  1  0.57324097  0.73361597  0.29845743  1  1.565297  -0.005434  0.242787  0.620782  -0.00581  4.099648  -0.004
C  C64  1  0.57019280  0.72649845  0.22399252  1  -0.007031  0.022782  -0.010225  -0.046445  0.012823  3.972371  0.018
C  C65  1  0.48476278  0.71524795  0.19095961  1  -0.069224  0.001863  -0.051297  -0.065006  0.000561  3.867393  0.001
C  C66  1  0.48197642  0.71274517  0.12106246  1  0.024664  0.026477  -0.00361  -0.029941  0.01507  3.962296  0.021
C  C67  1  0.56397350  0.72181748  0.08442340  1  0.000818  -0.002348  -0.048256  -0.062574  -0.003755  3.867692  -0.001
C  C68  1  0.64903662  0.73286569  0.11744783  1  0.085715  0.022823  -0.009342  -0.044373  0.013024  3.980994  0.018
C  C69  1  0.65255747  0.73479286  0.18744696  1  -0.049139  -0.000996  -0.053545  -0.068878  -0.002257  3.877211  -0.001
C  C70  1  0.39293921  0.70420608  0.08214028  1  1.503728  -0.009141  0.233305  0.570821  -0.010483  4.129809  -0.013
C  C71  1  0.08782228  0.49955475  0.92754941  1  0.056804  0.004613  -0.052203  -0.066371  0.002703  3.87653  0.003
C  C72  1  0.11293924  0.57278722  0.94635053  1  -0.088818  0.015913  -0.01163  -0.040606  0.008896  3.979123  0.012
C  C73  1  0.04536379  0.62871521  0.94645385  1  -0.026473  0.002431  -0.068358  -0.089083  0.000953  3.905417  0.002
C  C74  1  0.20729654  0.58949707  0.97592138  1  1.559039  -0.001482  0.226811  0.571969  -0.002085  4.140803  -0.006
C  C75  1  0.23455900  0.75469763  0.42283836  1  1.530219  -0.003683  0.247284  0.627151  -0.00429  4.080494  -0.003
C  C76  1  0.38468874  0.82564583  0.56270502  1  1.472534  0.000158  0.22526  0.5921  -0.000546  4.076785  -0.002
C  C77  1  0.45253136  0.88771336  0.56964169  1  0.06844  0.009479  -0.010289  -0.027828  0.005469  3.969672  0.007
C  C78  1  0.42662435  0.96106751  0.58796585  1  -0.055962  0.003094  -0.051329  -0.07032  0.001644  3.860311  0.002
C  C79  1  0.49491772  0.01737247  0.58899293  1  -0.008267  0.019336  -0.011362  -0.047056  0.011025  3.954876  0.015
C  C80  1  0.46862794  0.09807149  0.59828161  1  1.540183  -0.004331  0.234796  0.612218  -0.004673  4.12883  -0.003
C  C81  1  0.63692245  0.68151916  0.47472893  1  1.501386  -5.8e-05  0.230839  0.595815  -0.00148  4.083312  -0.003
C  C82  1  0.60359647  0.62174054  0.51869306  1  0.006916  0.009623  -0.007605  -0.019124  0.005543  3.950423  0.007
C  C83  1  0.53013661  0.63939122  0.56251449  1  -0.052715  0.000428  -0.067706  -0.094398  -0.000814  3.905812  0.001
C  C84  1  0.48835221  0.58447989  0.60057463  1  -0.045456  0.014631  -0.011874  -0.04212  0.007922  3.973279  0.011
C  C85  1  0.52341143  0.51142641  0.59660211  1  0.009687  0.002644  -0.054136  -0.070405  0.001297  3.878086  0.002
C  C86  1  0.59758349  0.49346116  0.55336855  1  0.044532  0.017276  -0.011583  -0.042855  0.009935  3.952292  0.014
C  C87  1  0.63856221  0.54861021  0.51436230  1  -0.021325  0.001783  -0.050906  -0.069688  0.000751  3.854496  0.001
C  C88  1  0.62248653  0.41266410  0.54259398  1  1.551562  -0.003564  0.230275  0.609804  -0.004284  4.145123  -0.004
C  C89  1  0.39884355  0.59962704  0.63786627  1  1.533354  -0.000109  0.228085  0.582351  -0.000695  4.127325  -0.004
C  C90  1  0.07326830  0.76637770  0.20158033  1  1.566812  -0.005447  0.243019  0.621793  -0.005828  4.099506  -0.004
C  C91  1  0.07026343  0.77354339  0.27603924  1  -0.006363  0.02279  -0.010614  -0.047231  0.01283  3.972956  0.018
C  C92  1  0.98485699  0.78486510  0.30907860  1  -0.067811  0.001834  -0.051553  -0.06547  0.00054  3.867924  0.001
C  C93  1  0.98209950  0.78745136  0.37897463  1  0.023885  0.026528  -0.003338  -0.028652  0.015086  3.961748  0.021
C  C94  1  0.06411230  0.77837226  0.41560412  1  0.001184  -0.002345  -0.04852  -0.063448  -0.003763  3.868733  -0.001
C  C95  1  0.14914105  0.76723539  0.38256997  1  0.082284  0.022842  -0.009268  -0.044249  0.013031  3.981836  0.018
C  C96  1  0.15264278  0.76523932  0.31257685  1  -0.049661  -0.001005  -0.053435  -0.068345  -0.002267  3.876622  -0.001
C  C97  1  0.89309596  0.79610440  0.41792495  1  1.506439  -0.009162  0.23302  0.570409  -0.010482  4.128467  -0.013
C  C98  1  0.58778610  0.00043710  0.57245472  1  0.056958  0.00461  -0.052383  -0.066464  0.002699  3.876513  0.003
C  C99  1  0.61293092  0.92721169  0.55366310  1  -0.08767  0.015956  -0.011701  -0.040666  0.008923  3.979361  0.012
C  C100  1  0.54536977  0.87126528  0.55355538  1  -0.027141  0.002411  -0.068433  -0.08906  0.000939  3.905024  0.002
C  C101  1  0.70730310  0.91053876  0.52411219  1  1.559196  -0.001468  0.226711  0.571564  -0.00207  4.141769  -0.006
C  C102  1  0.26547645  0.25467678  0.92281103  1  1.528434  -0.003687  0.247365  0.627376  -0.004308  4.079827  -0.003
C  C103  1  0.11529131  0.32564277  0.06267790  1  1.471913  0.000176  0.225301  0.592047  -0.000535  4.076476  -0.002
C  C104  1  0.04744978  0.38771656  0.06961777  1  0.068507  0.009482  -0.0104  -0.028006  0.005471  3.96967  0.007
C  C105  1  0.07336467  0.46106347  0.08796428  1  -0.055732  0.003092  -0.051225  -0.069868  0.001643  3.860336  0.002
C  C106  1  0.00508059  0.51737390  0.08899287  1  -0.007802  0.019331  -0.011432  -0.047231  0.011024  3.955005  0.015
C  C107  1  0.03137369  0.59806288  0.09830436  1  1.540125  -0.004341  0.234558  0.611884  -0.004679  4.12951  -0.003
C  C108  1  0.86309673  0.18153627  0.97469472  1  1.501259  -6.5e-05  0.230988  0.595681  -0.001481  4.082784  -0.003
C  C109  1  0.89640956  0.12176344  0.01865898  1  0.006222  0.009618  -0.007529  -0.018959  0.005542  3.951305  0.007
C  C110  1  0.96987778  0.13941013  0.06248861  1  -0.052956  0.000441  -0.067802  -0.094379  -0.000804  3.906203  0.001
C  C111  1  0.01165814  0.08450781  0.10055674  1  -0.045337  0.014619  -0.011912  -0.042531  0.007915  3.973282  0.011
C  C112  1  0.97658257  0.01144930  0.09659674  1  0.009277  0.002659  -0.05435  -0.07047  0.001308  3.877763  0.002
C  C113  1  0.90240732  0.99348840  0.05336131  1  0.045995  0.017262  -0.011535  -0.042808  0.009931  3.951909  0.014
C  C114  1  0.86143195  0.04863994  0.01434737  1  -0.021067  0.001796  -0.051025  -0.069845  0.000761  3.854627  0.001
C  C115  1  0.87750917  0.91269029  0.04259627  1  1.550729  -0.003542  0.23018  0.6096  -0.004265  4.145066  -0.004
C  C116  1  0.10118908  0.09963972  0.13784872  1  1.534355  -0.000103  0.228129  0.582837  -0.000697  4.1266  -0.004
C  C117  1  0.42675096  0.26636898  0.70155371  1  1.566727  -0.005453  0.24267  0.620935  -0.005823  4.099472  -0.004
C  C118  1  0.42976984  0.27352069  0.77602245  1  -0.006461  0.022792  -0.010415  -0.04682  0.012828  3.972794  0.018
C  C119  1  0.51517126  0.28482612  0.80906222  1  -0.069363  0.001841  -0.051591  -0.06532  0.000542  3.867983  0.001
C  C120  1  0.51794785  0.28737988  0.87895812  1  0.023745  0.026521  -0.003673  -0.029055  0.015082  3.961898  0.021
C  C121  1  0.43594589  0.27828962  0.91559173  1  0.000622  -0.00236  -0.048252  -0.062978  -0.003773  3.868532  -0.001
C  C122  1  0.35091067  0.26718760  0.88255947  1  0.085021  0.022813  -0.00936  -0.044656  0.013021  3.982208  0.018
C  C123  1  0.34739330  0.26521617  0.81256126  1  -0.05019  -0.000997  -0.053356  -0.068305  -0.002259  3.876836  -0.001
C  C124  1  0.60698576  0.29597721  0.91787072  1  1.504611  -0.009156  0.232959  0.569991  -0.010477  4.129821  -0.013
C  C125  1  0.91220452  0.50044635  0.07243259  1  0.055772  0.00461  -0.052184  -0.066212  0.002699  3.876719  0.003
C  C126  1  0.88705687  0.42722788  0.05363131  1  -0.089859  0.015943  -0.011546  -0.040378  0.008912  3.979489  0.012
C  C127  1  0.95460582  0.37127631  0.05351240  1  -0.028204  0.002419  -0.068556  -0.089329  0.000942  3.905086  0.002
C  C128  1  0.79269608  0.41055275  0.02405331  1  1.560146  -0.001467  0.226271  0.571084  -0.002068  4.141658  -0.006
C  C129  1  0.76547339  0.24527891  0.57717307  1  1.530395  -0.003695  0.247299  0.627146  -0.004302  4.079885  -0.003
C  C130  1  0.61530388  0.17432340  0.43729722  1  1.473336  0.000165  0.225349  0.592341  -0.000537  4.076549  -0.002
C  C131  1  0.54745499  0.11225979  0.43035914  1  0.068389  0.00948  -0.010416  -0.027707  0.005468  3.969892  0.007
C  C132  1  0.57334247  0.03890564  0.41203649  1  -0.055645  0.003093  -0.051085  -0.070003  0.001643  3.86053  0.002
C  C133  1  0.50505678  0.98259286  0.41101321  1  -0.010178  0.019349  -0.011613  -0.047332  0.011031  3.955231  0.015
C  C134  1  0.53135981  0.90189779  0.40173564  1  1.539455  -0.004348  0.234537  0.611936  -0.004688  4.12994  -0.003
C  C135  1  0.36308343  0.31846181  0.52526759  1  1.501412  -6.2e-05  0.230949  0.595865  -0.001483  4.082536  -0.003
C  C136  1  0.39639476  0.37823256  0.48129225  1  0.005653  0.009621  -0.007479  -0.018817  0.005542  3.950777  0.007
C  C137  1  0.46985602  0.36057684  0.43747170  1  -0.051056  0.000433  -0.067902  -0.094529  -0.000808  3.906298  0.001
C  C138  1  0.51163972  0.41547357  0.39940419  1  -0.046383  0.014627  -0.011873  -0.042237  0.007921  3.973527  0.011
C  C139  1  0.47658468  0.48853768  0.40337097  1  0.010021  0.002655  -0.053975  -0.072937  0.001307  3.877421  0.002
C  C140  1  0.40241541  0.50650685  0.44660563  1  0.046035  0.017263  -0.011933  -0.043304  0.009931  3.95306  0.014
C  C141  1  0.36143530  0.45136006  0.48561443  1  -0.021139  0.001793  -0.051037  -0.069797  0.000759  3.854737  0.001
C  C142  1  0.37751865  0.58729550  0.45737949  1  1.550653  -0.003538  0.230396  0.610033  -0.004268  4.144915  -0.004
C  C143  1  0.60116861  0.40032422  0.36212252  1  1.533442  -9e-05  0.22824  0.582844  -0.000691  4.127395  -0.004
C  C144  1  0.92677176  0.23360388  0.79842872  1  1.566826  -0.005432  0.242775  0.62086  -0.005813  4.099349  -0.004
C  C145  1  0.92979337  0.22643762  0.72396630  1  -0.006304  0.022783  -0.010499  -0.046736  0.012825  3.972509  0.018
C  C146  1  0.01520957  0.21514171  0.69093457  1  -0.068821  0.001862  -0.051347  -0.065348  0.000561  3.867024  0.001
C  C147  1  0.01796497  0.21259297  0.62103496  1  0.02296  0.026526  -0.003611  -0.02894  0.015086  3.961851  0.021
C  C148  1  0.93595915  0.22166701  0.58439834  1  0.000757  -0.002355  -0.048321  -0.063312  -0.003769  3.868506  -0.001
C  C149  1  0.85092203  0.23276408  0.61742801  1  0.083993  0.022841  -0.009327  -0.044242  0.013029  3.981008  0.018
C  C150  1  0.84742587  0.23473215  0.68742544  1  -0.048488  -0.000994  -0.053523  -0.068474  -0.002255  3.876337  -0.001
C  C151  1  0.10699363  0.20399946  0.58212314  1  1.504072  -0.00916  0.233136  0.570278  -0.010486  4.129164  -0.013
C  C152  1  0.41218560  0.99953666  0.42756315  1  0.056437  0.00461  -0.052012  -0.066035  0.002699  3.876525  0.003
C  C153  1  0.38706101  0.07276713  0.44635639  1  -0.089232  0.015942  -0.011552  -0.040427  0.008912  3.979357  0.012
C  C154  1  0.45462076  0.12871126  0.44645555  1  -0.026903  0.002413  -0.068388  -0.089202  0.00094  3.905283  0.002
C  C155  1  0.29270208  0.08944233  0.47591937  1  1.55961  -0.001464  0.226456  0.571525  -0.002067  4.141849  -0.006
O  O156  1  0.81358463  0.74086344  0.10534421  1  -1.100706  0.155978  -0.275494  -0.518599  0.086144  2.317092  0.135
O  O157  1  0.72147116  0.76034750  0.01524111  1  -1.095195  0.16723  -0.294003  -0.528666  0.092211  2.353287  0.138
O  O158  1  0.90730651  0.73065387  0.97932693  1  -1.106718  0.207555  -0.308875  -0.624344  0.116214  2.507192  0.183
O  O159  1  0.81091419  0.68006060  0.90461160  1  -1.083856  0.103549  -0.261804  -0.457598  0.055393  2.065385  0.09
O  O160  1  0.03430123  0.35462889  0.90668067  1  -1.13615  0.121869  -0.291799  -0.551617  0.066817  2.394162  0.108
O  O161  1  0.88241044  0.38605887  0.89203334  1  -1.091666  0.166655  -0.284814  -0.535312  0.091521  2.317379  0.143
O  O162  1  0.07860497  0.76565010  0.04183245  1  -1.129617  0.175417  -0.30236  -0.625047  0.099913  2.506509  0.155
O  O163  1  0.21947242  0.81319790  0.04573230  1  -1.054292  0.160824  -0.247778  -0.442047  0.087524  2.103714  0.14
O  O164  1  0.18713015  0.10358060  0.99996108  1  -1.111051  0.145593  -0.299169  -0.550344  0.079199  2.312572  0.126
O  O165  1  0.07472335  0.13451652  0.92604433  1  -1.147858  0.106056  -0.292886  -0.567951  0.057997  2.415371  0.095
O  O166  1  0.85800753  0.83439909  0.87498355  1  -1.014505  0.293453  -0.308328  -0.533706  0.159834  2.269677  0.243
O  O167  1  0.86366605  0.94560413  0.82490432  1  -1.065654  0.108044  -0.260988  -0.417188  0.057262  1.990932  0.089
O  O168  1  0.65090385  0.74822729  0.32627855  1  -1.103423  0.142009  -0.280767  -0.528527  0.077792  2.332685  0.124
O  O169  1  0.49559745  0.72476902  0.32934254  1  -1.080469  0.204761  -0.281485  -0.512874  0.112194  2.332715  0.175
O  O170  1  0.31618467  0.69911148  0.11937774  1  -0.999362  0.294472  -0.289074  -0.509809  0.159932  2.220215  0.249
O  O171  1  0.39372808  0.70452789  0.02059873  1  -0.985696  0.168928  -0.231017  -0.384966  0.088677  2.037555  0.142
O  O172  1  0.21734084  0.65912750  0.00059738  1  -0.975542  0.34147  -0.273065  -0.49522  0.182738  2.282759  0.295
O  O173  1  0.26895583  0.54182548  0.97902623  1  -1.052665  0.142737  -0.255995  -0.409951  0.075243  1.966932  0.118
O  O174  1  0.31364654  0.75914048  0.39466680  1  -1.103076  0.156023  -0.275741  -0.518848  0.086163  2.317946  0.135
O  O175  1  0.22154485  0.73967278  0.48476893  1  -1.094847  0.167188  -0.293996  -0.528338  0.092192  2.35386  0.138
O  O176  1  0.40731463  0.76930042  0.52068980  1  -1.106226  0.207607  -0.308649  -0.623985  0.116243  2.50746  0.183
O  O177  1  0.31092490  0.81988031  0.59539016  1  -1.08404  0.103586  -0.261871  -0.45751  0.055422  2.065465  0.09
O  O178  1  0.53424554  0.14535847  0.59330120  1  -1.136374  0.121759  -0.291851  -0.551719  0.066758  2.394198  0.108
O  O179  1  0.38238068  0.11391129  0.60796394  1  -1.091144  0.166809  -0.284798  -0.535378  0.091609  2.316861  0.143
O  O180  1  0.57862162  0.73433009  0.45819728  1  -1.128638  0.175268  -0.302249  -0.625088  0.099828  2.507034  0.155
O  O181  1  0.71950080  0.68684898  0.45435735  1  -1.05423  0.160875  -0.248172  -0.442522  0.087595  2.103699  0.14
O  O182  1  0.68713127  0.39639650  0.50002647  1  -1.11104  0.145623  -0.299298  -0.550595  0.079215  2.31276  0.126
O  O183  1  0.57476308  0.36544446  0.57393825  1  -1.147976  0.106031  -0.292894  -0.567709  0.057985  2.415307  0.095
O  O184  1  0.35802332  0.66556299  0.62499845  1  -1.014967  0.293466  -0.30833  -0.533628  0.159829  2.27  0.242
O  O185  1  0.36370779  0.55437595  0.67510148  1  -1.067062  0.107975  -0.261018  -0.416754  0.057221  1.990859  0.089
O  O186  1  0.15090997  0.75168570  0.17378828  1  -1.104267  0.142103  -0.280898  -0.528851  0.077869  2.333716  0.124
O  O187  1  0.99564599  0.77526995  0.17066545  1  -1.081383  0.204803  -0.28136  -0.513368  0.112217  2.333167  0.175
O  O188  1  0.81626601  0.80098852  0.38071486  1  -0.998854  0.294378  -0.289173  -0.510174  0.15992  2.219602  0.249
O  O189  1  0.89398042  0.79604536  0.47946699  1  -0.986311  0.169112  -0.230694  -0.384555  0.088699  2.036977  0.143
O  O190  1  0.71742148  0.84090354  0.49944520  1  -0.975301  0.341549  -0.273009  -0.495123  0.182756  2.282289  0.295
O  O191  1  0.76888918  0.95826242  0.52102023  1  -1.053053  0.14257  -0.255867  -0.409772  0.075166  1.96801  0.118
O  O192  1  0.18638079  0.25912529  0.89462448  1  -1.102362  0.156086  -0.275708  -0.518761  0.086185  2.317272  0.135
O  O193  1  0.27845381  0.23967045  0.98475482  1  -1.094867  0.167216  -0.294107  -0.52867  0.092205  2.353555  0.138
O  O194  1  0.09267705  0.26929623  0.02065082  1  -1.106496  0.207587  -0.308847  -0.624182  0.11624  2.50727  0.183
O  O195  1  0.18906030  0.31988560  0.09537306  1  -1.083294  0.103576  -0.261751  -0.457376  0.055417  2.065855  0.09
O  O196  1  0.96574232  0.64535335  0.09335942  1  -1.135776  0.121848  -0.29175  -0.551558  0.0668  2.393981  0.108
O  O197  1  0.11761358  0.61389970  0.10796613  1  -1.092091  0.166673  -0.284716  -0.535134  0.091538  2.317553  0.143
O  O198  1  0.92140231  0.23436060  0.95817081  1  -1.129365  0.175335  -0.302416  -0.625127  0.099871  2.506074  0.155
O  O199  1  0.78052300  0.18685441  0.95431703  1  -1.053814  0.16086  -0.248095  -0.442314  0.08757  2.103941  0.14
O  O200  1  0.81284923  0.89642836  0.00002462  1  -1.110991  0.145689  -0.29902  -0.550251  0.079251  2.312146  0.126
O  O201  1  0.92523231  0.86546781  0.07394876  1  -1.147763  0.105929  -0.29287  -0.567582  0.057928  2.414711  0.095
O  O202  1  0.14199068  0.16559029  0.12501218  1  -1.01439  0.293502  -0.308476  -0.533736  0.159857  2.269676  0.243
O  O203  1  0.13636215  0.05435653  0.17504967  1  -1.068359  0.107951  -0.260942  -0.416986  0.057211  1.99058  0.089
O  O204  1  0.34907971  0.25169501  0.67376057  1  -1.103495  0.142147  -0.280722  -0.528455  0.077883  2.332634  0.124
O  O205  1  0.50436030  0.27524272  0.67063972  1  -1.081468  0.204649  -0.281261  -0.513031  0.112131  2.332954  0.175
O  O206  1  0.68376819  0.30090481  0.88062365  1  -0.998569  0.294463  -0.289201  -0.509826  0.159939  2.220531  0.249
O  O207  1  0.60618084  0.29583243  0.97940861  1  -0.985401  0.168913  -0.230514  -0.384353  0.088614  2.037453  0.142
O  O208  1  0.78260087  0.34091619  0.99938866  1  -0.975341  0.341615  -0.272963  -0.495082  0.182822  2.282963  0.295
O  O209  1  0.73109609  0.45825959  0.02093632  1  -1.053427  0.14252  -0.255537  -0.409398  0.075123  1.967856  0.118
O  O210  1  0.68637747  0.24081362  0.60533556  1  -1.102597  0.156073  -0.275621  -0.518767  0.086182  2.317813  0.135
O  O211  1  0.77845685  0.26030543  0.51523653  1  -1.095482  0.167257  -0.294116  -0.52852  0.092228  2.353659  0.138
O  O212  1  0.59268637  0.23066550  0.47932587  1  -1.106662  0.207618  -0.308783  -0.624274  0.116254  2.507435  0.183
O  O213  1  0.68907400  0.18007658  0.40460978  1  -1.083664  0.103568  -0.261748  -0.457537  0.055405  2.065348  0.09
O  O214  1  0.46571081  0.85462482  0.40671539  1  -1.136105  0.121886  -0.291533  -0.551237  0.066826  2.394461  0.108
O  O215  1  0.61759940  0.88603731  0.39206782  1  -1.090363  0.166657  -0.284731  -0.535353  0.091528  2.317402  0.143
O  O216  1  0.42140588  0.26566214  0.54181303  1  -1.12904  0.17524  -0.302526  -0.625467  0.099816  2.506457  0.155
O  O217  1  0.28049881  0.31315498  0.54564424  1  -1.053954  0.160831  -0.248027  -0.442348  0.08757  2.103316  0.14
O  O218  1  0.31287461  0.60356926  0.49994515  1  -1.11069  0.145644  -0.299315  -0.550677  0.079241  2.312614  0.126
O  O219  1  0.42525605  0.63451067  0.42603711  1  -1.14796  0.106016  -0.292893  -0.568008  0.057974  2.415284  0.095
O  O220  1  0.64197280  0.33438042  0.37498814  1  -1.014337  0.293442  -0.308285  -0.533731  0.159853  2.2702  0.242
O  O221  1  0.63632390  0.44558715  0.32491112  1  -1.068311  0.107898  -0.261115  -0.417219  0.057191  1.991467  0.089
O  O222  1  0.84912241  0.24827349  0.82622722  1  -1.104261  0.141968  -0.280611  -0.528369  0.077785  2.332829  0.124
O  O223  1  0.00441570  0.22473568  0.82933168  1  -1.081108  0.204823  -0.281336  -0.512936  0.112218  2.332449  0.175
O  O224  1  0.18378731  0.19906223  0.61936896  1  -0.998225  0.294462  -0.289245  -0.509973  0.159939  2.219779  0.249
O  O225  1  0.10616218  0.20414311  0.52058418  1  -0.985213  0.169004  -0.23068  -0.384604  0.088656  2.037218  0.142
O  O226  1  0.28261091  0.15909096  0.50057417  1  -0.974693  0.341738  -0.273018  -0.495212  0.182877  2.282163  0.295
O  O227  1  0.23110206  0.04174342  0.47903947  1  -1.053344  0.142429  -0.255593  -0.409612  0.075079  1.968353  0.118
