# generated using pymatgen
data_ZnH12C13N2O5
_symmetry_space_group_name_H-M   'P 1'
_cell_length_a   8.41822985
_cell_length_b   18.36807298
_cell_length_c   19.06711401
_cell_angle_alpha   105.09987431
_cell_angle_beta   90.00014820
_cell_angle_gamma   89.99991364
_symmetry_Int_Tables_number   1
_chemical_formula_structural   ZnH12C13N2O5
_chemical_formula_sum   'Zn8 H96 C104 N16 O40'
_cell_volume   2846.48934910
_cell_formula_units_Z   8
loop_
 _symmetry_equiv_pos_site_id
 _symmetry_equiv_pos_as_xyz
  1  'x, y, z'
loop_
 _atom_site_type_symbol
 _atom_site_label
 _atom_site_symmetry_multiplicity
 _atom_site_fract_x
 _atom_site_fract_y
 _atom_site_fract_z
 _atom_site_occupancy
 _atom_site_pbe_bader_charge
 _atom_site_pbe_bader_spin_density
 _atom_site_pbe_cm5_charge
 _atom_site_pbe_ddec_charge
 _atom_site_pbe_ddec_spin_density
 _atom_site_pbe_ddec_sum_bond_order
 _atom_site_pbe_magmom
Zn  Zn0  1  0.29033907  0.55695502  0.35465100  1  1.319918  0  0.69202  0.870657  0  2.385397  0
Zn  Zn1  1  0.79033568  0.44304460  0.14534919  1  1.320075  0  0.692024  0.870692  0  2.385347  0
Zn  Zn2  1  0.70966105  0.44304379  0.64534837  1  1.320044  0  0.692011  0.870659  0  2.385431  0
Zn  Zn3  1  0.20966443  0.55695533  0.85465047  1  1.320084  0  0.692048  0.870733  0  2.385273  0
Zn  Zn4  1  0.08533065  0.94052711  0.65045066  1  1.320577  0  0.686899  0.877337  0  2.29484  0
Zn  Zn5  1  0.58532854  0.05947319  0.84955096  1  1.320564  0  0.686897  0.877363  0  2.294749  0
Zn  Zn6  1  0.91467184  0.05947169  0.34954819  1  1.320637  0  0.68691  0.877359  0  2.294808  0
Zn  Zn7  1  0.41467158  0.94052617  0.15044908  1  1.320547  0  0.686897  0.877348  0  2.294789  0
H  H8  1  0.43145260  0.33631556  0.47841451  1  0.057064  0  0.107416  0.105446  0  1.008118  0
H  H9  1  0.93145370  0.66368230  0.02158331  1  0.057108  0  0.107409  0.105382  0  1.008238  0
H  H10  1  0.56854752  0.66368324  0.52158487  1  0.05708  0  0.107433  0.105467  0  1.008159  0
H  H11  1  0.06854761  0.33631819  0.97841596  1  0.05713  0  0.107425  0.105411  0  1.008199  0
H  H12  1  0.08684122  0.45191410  0.63313031  1  0.100287  0  0.107985  0.114952  0  1.021279  0
H  H13  1  0.58683760  0.54808563  0.86686855  1  0.100519  0  0.108008  0.114975  0  1.021245  0
H  H14  1  0.91315890  0.54808583  0.36686935  1  0.100283  0  0.107983  0.114926  0  1.021235  0
H  H15  1  0.41316133  0.45191543  0.13313139  1  0.10051  0  0.10801  0.114947  0  1.021259  0
H  H16  1  0.53205417  0.38149786  0.38889103  1  0.081653  0  0.120917  0.088476  0  0.950527  0
H  H17  1  0.03204999  0.61850185  0.11110837  1  0.081654  0  0.120922  0.088506  0  0.950576  0
H  H18  1  0.46794832  0.61850150  0.61110902  1  0.081653  0  0.120911  0.088479  0  0.950538  0
H  H19  1  0.96794657  0.38149864  0.88889142  1  0.081675  0  0.120906  0.088483  0  0.95056  0
H  H20  1  0.51307230  0.41038399  0.25131589  1  0.138508  0  0.125909  0.147721  0  0.963643  0
H  H21  1  0.01307258  0.58961743  0.24868443  1  0.138482  0  0.1259  0.147715  0  0.963616  0
H  H22  1  0.48692782  0.58961537  0.74868415  1  0.138518  0  0.125891  0.14771  0  0.963606  0
H  H23  1  0.98692635  0.41038250  0.75131523  1  0.138487  0  0.125893  0.147682  0  0.963595  0
H  H24  1  0.67940546  0.44737734  0.30458326  1  0.092056  0  0.112523  0.116037  0  1.00196  0
H  H25  1  0.17940555  0.55262288  0.19541591  1  0.092052  0  0.11252  0.116031  0  1.001964  0
H  H26  1  0.32059466  0.55262090  0.69541545  1  0.092067  0  0.112503  0.116018  0  1.002002  0
H  H27  1  0.82059457  0.44737818  0.80458456  1  0.09205  0  0.112516  0.116035  0  1.001971  0
H  H28  1  0.30967794  0.27104267  0.56023122  1  0.007723  0  0.087133  0.120132  0  1.028216  0
H  H29  1  0.80967890  0.72895584  0.93976444  1  0.007823  0  0.087118  0.120156  0  1.0282  0
H  H30  1  0.69032337  0.72895726  0.43976844  1  0.007733  0  0.087121  0.120134  0  1.028222  0
H  H31  1  0.19032240  0.27104465  0.06023326  1  0.007799  0  0.087122  0.120142  0  1.028259  0
H  H32  1  0.33101868  0.33656285  0.64627943  1  0.032296  0  0.088649  0.13389  0  1.018614  0
H  H33  1  0.83101816  0.66343283  0.85371765  1  0.032271  0  0.088643  0.1339  0  1.018647  0
H  H34  1  0.66898263  0.66343708  0.35371971  1  0.032285  0  0.088644  0.133886  0  1.018615  0
H  H35  1  0.16898314  0.33656597  0.14628173  1  0.032281  0  0.088664  0.133925  0  1.018614  0
H  H36  1  0.13892479  0.30955024  0.61193476  1  0.09487  0  0.092929  0.146792  0  1.036806  0
H  H37  1  0.63892558  0.69044665  0.88806083  1  0.094906  0  0.092931  0.146858  0  1.036793  0
H  H38  1  0.86107651  0.69044857  0.38806515  1  0.094631  0  0.092928  0.146788  0  1.036795  0
H  H39  1  0.36107573  0.30955271  0.11193712  1  0.094861  0  0.092956  0.146868  0  1.036775  0
H  H40  1  0.99976218  0.57411906  0.63727136  1  0.19865  0  0.127164  0.103379  0  1.029753  0
H  H41  1  0.49976010  0.42587937  0.86272712  1  0.1986  0  0.127194  0.103417  0  1.029704  0
H  H42  1  0.00023557  0.42587917  0.36272787  1  0.198644  0  0.127197  0.103438  0  1.029689  0
H  H43  1  0.50023883  0.57411943  0.13727226  1  0.198615  0  0.127187  0.103412  0  1.029737  0
H  H44  1  0.94658813  0.70632854  0.65687537  1  0.088239  0  0.126291  0.130779  0  0.943172  0
H  H45  1  0.44658281  0.29366992  0.84312515  1  0.088262  0  0.126272  0.130747  0  0.943209  0
H  H46  1  0.05341199  0.29367139  0.34312429  1  0.088199  0  0.126278  0.130777  0  0.94317  0
H  H47  1  0.55341612  0.70632889  0.15687527  1  0.088243  0  0.126288  0.13077  0  0.943176  0
H  H48  1  0.85904572  0.70424756  0.57169294  1  0.087521  0  0.11408  0.112233  0  1.001968  0
H  H49  1  0.35904209  0.29575263  0.92830844  1  0.087654  0  0.11411  0.112301  0  1.001966  0
H  H50  1  0.14095321  0.29575180  0.42830605  1  0.087544  0  0.114069  0.112243  0  1.00202  0
H  H51  1  0.64095922  0.70424618  0.07169252  1  0.087536  0  0.114081  0.112266  0  1.002041  0
H  H52  1  0.20430072  0.15601994  0.51040308  1  0.090692  0  0.102983  0.100254  0  1.01889  0
H  H53  1  0.70430873  0.84398143  0.98959580  1  0.090716  0  0.103021  0.100308  0  1.018837  0
H  H54  1  0.79569940  0.84398168  0.48959753  1  0.090745  0  0.103002  0.100288  0  1.018818  0
H  H55  1  0.29569495  0.15601850  0.01040334  1  0.090695  0  0.103009  0.100285  0  1.01889  0
H  H56  1  0.45938700  0.97998848  0.36100123  1  0.098698  0  0.109874  0.11991  0  0.989624  0
H  H57  1  0.95938972  0.02001162  0.13899875  1  0.098675  0  0.109871  0.119898  0  0.989623  0
H  H58  1  0.54061431  0.02001257  0.63899766  1  0.098733  0  0.109874  0.11993  0  0.9896  0
H  H59  1  0.04061159  0.97998943  0.86100119  1  0.0987  0  0.109877  0.119936  0  0.989604  0
H  H60  1  0.06498670  0.14066121  0.60390297  1  0.165269  0  0.117728  0.095984  0  1.015962  0
H  H61  1  0.56499885  0.85933966  0.89609772  1  0.165327  0  0.117746  0.095933  0  1.015991  0
H  H62  1  0.93500629  0.85934041  0.39609659  1  0.165317  0  0.117744  0.095976  0  1.015964  0
H  H63  1  0.43500839  0.14066027  0.10390246  1  0.165304  0  0.117734  0.09597  0  1.015947  0
H  H64  1  0.88172636  0.13497329  0.68799022  1  0.094809  0  0.108996  0.115362  0  1.016215  0
H  H65  1  0.38172848  0.86502632  0.81201104  1  0.094832  0  0.109006  0.115428  0  1.016176  0
H  H66  1  0.11826782  0.86502495  0.31200902  1  0.094831  0  0.108983  0.115415  0  1.016209  0
H  H67  1  0.61826689  0.13497417  0.18799138  1  0.094873  0  0.109003  0.115432  0  1.016185  0
H  H68  1  0.03597630  0.12511980  0.74747361  1  0.071553  0  0.12102  0.128488  0  0.959363  0
H  H69  1  0.53597568  0.87488221  0.75252786  1  0.071578  0  0.121031  0.128532  0  0.959391  0
H  H70  1  0.96402026  0.87487956  0.25252486  1  0.071481  0  0.121016  0.128501  0  0.959308  0
H  H71  1  0.46401850  0.12511885  0.24747471  1  0.071503  0  0.121031  0.128512  0  0.959305  0
H  H72  1  0.38173677  0.18981015  0.42583488  1  0.021113  0  0.080481  0.1106  0  1.023871  0
H  H73  1  0.88174007  0.81018999  0.07416608  1  0.021333  0  0.08048  0.110604  0  1.023751  0
H  H74  1  0.61826335  0.81019092  0.57416768  1  0.021363  0  0.080469  0.110621  0  1.023775  0
H  H75  1  0.11825767  0.18981050  0.92583477  1  0.021333  0  0.080505  0.110649  0  1.023781  0
H  H76  1  0.52042622  0.12403707  0.37518485  1  0.09878  0  0.091683  0.139112  0  1.023644  0
H  H77  1  0.02043077  0.87596209  0.12481545  1  0.098724  0  0.091687  0.139087  0  1.023629  0
H  H78  1  0.47957033  0.87596342  0.62481600  1  0.098726  0  0.091675  0.139107  0  1.023698  0
H  H79  1  0.97956934  0.12403728  0.87518512  1  0.098735  0  0.091681  0.139095  0  1.023647  0
H  H80  1  0.32012392  0.12646078  0.34337064  1  0.070415  0  0.091547  0.138581  0  1.019697  0
H  H81  1  0.82012987  0.87354051  0.15662948  1  0.070396  0  0.091553  0.138586  0  1.019727  0
H  H82  1  0.67987264  0.87354141  0.65663010  1  0.070381  0  0.091537  0.138586  0  1.019725  0
H  H83  1  0.17987025  0.12646111  0.84337112  1  0.070417  0  0.091564  0.138612  0  1.019697  0
H  H84  1  0.42833199  0.85406952  0.36417329  1  0.12994  0  0.135435  0.102014  0  0.946926  0
H  H85  1  0.92833428  0.14593173  0.13582851  1  0.129945  0  0.135411  0.101998  0  0.946986  0
H  H86  1  0.57166694  0.14593041  0.63582584  1  0.129952  0  0.135441  0.102023  0  0.946904  0
H  H87  1  0.07167059  0.85406876  0.86417286  1  0.130013  0  0.135454  0.102011  0  0.94693  0
H  H88  1  0.35891172  0.70435653  0.44905238  1  0.07631  0  0.115222  0.11395  0  1.008785  0
H  H89  1  0.85890945  0.29564363  0.05094960  1  0.076206  0  0.115194  0.113957  0  1.0087  0
H  H90  1  0.64108959  0.29564396  0.55094689  1  0.076276  0  0.115225  0.113907  0  1.008748  0
H  H91  1  0.14109067  0.70435574  0.94904992  1  0.076192  0  0.115213  0.113986  0  1.008755  0
H  H92  1  0.42868977  0.72552172  0.36784713  1  0.077518  0  0.118287  0.1158  0  0.987922  0
H  H93  1  0.92868924  0.27447841  0.13215492  1  0.077484  0  0.118274  0.115775  0  0.987945  0
H  H94  1  0.57131035  0.27447877  0.63215214  1  0.077547  0  0.118297  0.115805  0  0.987918  0
H  H95  1  0.07131207  0.72552265  0.86784607  1  0.077518  0  0.11829  0.115816  0  0.987919  0
H  H96  1  0.13063483  0.63684893  0.52147326  1  0.53133  0  0.314283  0.269067  0  0.981038  0
H  H97  1  0.63063010  0.36315192  0.97852802  1  0.531393  0  0.314277  0.269061  0  0.981  0
H  H98  1  0.86936410  0.36314875  0.47852636  1  0.531317  0  0.314316  0.269128  0  0.980944  0
H  H99  1  0.36937002  0.63684914  0.02147297  1  0.531398  0  0.314294  0.26908  0  0.980991  0
H  H100  1  0.28067787  0.83177003  0.49873221  1  0.557831  0  0.310253  0.280509  0  0.984953  0
H  H101  1  0.78067810  0.16823015  0.00126917  1  0.557826  0  0.31026  0.280541  0  0.984953  0
H  H102  1  0.71932344  0.16823046  0.50126707  1  0.557789  0  0.310234  0.28048  0  0.98497  0
H  H103  1  0.21932558  0.83176809  0.99873269  1  0.557603  0  0.310259  0.280523  0  0.984858  0
C  C104  1  0.25789924  0.50863949  0.49138574  1  0.730344  0  0.110701  0.297864  0  4.050928  0
C  C105  1  0.75790321  0.49135900  0.00861204  1  0.730156  0  0.110664  0.297683  0  4.051166  0
C  C106  1  0.74209969  0.49135931  0.50861311  1  0.730414  0  0.110709  0.29782  0  4.050986  0
C  C107  1  0.24209572  0.50864205  0.99138790  1  0.730432  0  0.110714  0.297735  0  4.05115  0
C  C108  1  0.35446589  0.44246612  0.46372336  1  0.027339  0  -0.033541  -0.086925  0  4.032594  0
C  C109  1  0.85446980  0.55753177  0.03627333  1  0.027309  0  -0.033473  -0.086792  0  4.03255  0
C  C110  1  0.64553185  0.55753268  0.53627497  1  0.027475  0  -0.033509  -0.086837  0  4.032654  0
C  C111  1  0.14552557  0.44247042  0.96372741  1  0.027271  0  -0.03341  -0.086631  0  4.032455  0
C  C112  1  0.35446728  0.38503984  0.50000139  1  -0.125597  0  -0.069962  -0.141108  0  3.941784  0
C  C113  1  0.85447016  0.61495809  0.99999627  1  -0.125256  0  -0.070075  -0.14118  0  3.941938  0
C  C114  1  0.64553046  0.61495953  0.49999865  1  -0.125635  0  -0.069987  -0.141182  0  3.941857  0
C  C115  1  0.14552759  0.38504353  0.00000433  1  -0.125725  0  -0.07012  -0.141304  0  3.942077  0
C  C116  1  0.25930018  0.38626577  0.56065959  1  0.088037  0  -0.022529  0.142665  0  4.003246  0
C  C117  1  0.75929914  0.61373220  0.93933850  1  0.087738  0  -0.022418  0.14281  0  4.003251  0
C  C118  1  0.74069756  0.61373303  0.43934031  1  0.087748  0  -0.022514  0.142694  0  4.003173  0
C  C119  1  0.24069860  0.38626829  0.06066078  1  0.088042  0  -0.022505  0.142674  0  4.003377  0
C  C120  1  0.16449400  0.44968755  0.58688567  1  -0.085928  0  -0.072127  -0.123256  0  3.893796  0
C  C121  1  0.66449420  0.55031158  0.91311312  1  -0.085934  0  -0.072111  -0.123224  0  3.893896  0
C  C122  1  0.83550493  0.55031238  0.41311504  1  -0.085608  0  -0.072127  -0.123251  0  3.893764  0
C  C123  1  0.33550592  0.44968947  0.08688682  1  -0.085861  0  -0.072095  -0.123186  0  3.893911  0
C  C124  1  0.16431562  0.51120073  0.55551148  1  -0.01959  0  -0.036314  -0.101395  0  4.055846  0
C  C125  1  0.66431621  0.48879728  0.94448599  1  -0.019355  0  -0.036354  -0.101433  0  4.055981  0
C  C126  1  0.83568450  0.48879808  0.44448790  1  -0.019675  0  -0.036312  -0.101383  0  4.055861  0
C  C127  1  0.33568153  0.51120378  0.05551448  1  -0.019639  0  -0.036404  -0.101431  0  4.056005  0
C  C128  1  0.45489420  0.43178827  0.40015659  1  0.61844  0  0.084984  0.121078  0  3.918036  0
C  C129  1  0.95489251  0.56821183  0.09984286  1  0.618123  0  0.084946  0.120958  0  3.91808  0
C  C130  1  0.54510473  0.56821053  0.59984226  1  0.618258  0  0.085012  0.121088  0  3.917918  0
C  C131  1  0.04510524  0.43178922  0.90015708  1  0.618275  0  0.085029  0.121033  0  3.91801  0
C  C132  1  0.55573095  0.46011730  0.29320984  1  0.247691  0  -0.071611  -0.224121  0  3.965548  0
C  C133  1  0.05573115  0.53988297  0.20679025  1  0.247735  0  -0.071615  -0.22411  0  3.96553  0
C  C134  1  0.44426917  0.53988037  0.70678925  1  0.247704  0  -0.071647  -0.224213  0  3.96572  0
C  C135  1  0.94426778  0.46011752  0.79320955  1  0.247699  0  -0.071623  -0.2241  0  3.965555  0
C  C136  1  0.55235473  0.52651050  0.25855256  1  1.578805  0  0.21669  0.617548  0  4.135182  0
C  C137  1  0.05235417  0.47349034  0.24144767  1  1.578749  0  0.216659  0.617453  0  4.135321  0
C  C138  1  0.44764539  0.47348830  0.74144682  1  1.578779  0  0.216764  0.617725  0  4.135085  0
C  C139  1  0.94764595  0.52650959  0.75855199  1  1.578782  0  0.216646  0.617436  0  4.135365  0
C  C140  1  0.25915665  0.32233196  0.59634365  1  -0.046724  0  -0.246372  -0.421185  0  3.937775  0
C  C141  1  0.75915401  0.67766544  0.90365272  1  -0.046857  0  -0.246366  -0.421328  0  3.937882  0
C  C142  1  0.74084347  0.67766741  0.40365586  1  -0.046468  0  -0.246362  -0.421193  0  3.937762  0
C  C143  1  0.24084492  0.32233448  0.09634484  1  -0.046747  0  -0.246378  -0.421284  0  3.937863  0
C  C144  1  0.06922436  0.57542928  0.58897642  1  0.518472  0  0.097447  0.116054  0  3.835334  0
C  C145  1  0.56922259  0.42456876  0.91102095  1  0.51864  0  0.09747  0.116124  0  3.835194  0
C  C146  1  0.93077576  0.42456895  0.41102229  1  0.51847  0  0.09746  0.116064  0  3.835256  0
C  C147  1  0.43077753  0.57543004  0.08897791  1  0.518479  0  0.097427  0.116049  0  3.835382  0
C  C148  1  0.97297356  0.70430817  0.60003652  1  0.274405  0  -0.054044  -0.184144  0  3.873676  0
C  C149  1  0.47296976  0.29569141  0.89996484  1  0.27422  0  -0.054131  -0.184285  0  3.873818  0
C  C150  1  0.02702537  0.29569120  0.39996248  1  0.274412  0  -0.054028  -0.184195  0  3.873776  0
C  C151  1  0.52703036  0.70430852  0.10003587  1  0.274283  0  -0.05411  -0.184247  0  3.873812  0
C  C152  1  0.06683756  0.77496369  0.59446159  1  1.646221  0  0.208958  0.605605  0  4.204923  0
C  C153  1  0.56683285  0.22503550  0.90554077  1  1.646203  0  0.208899  0.605653  0  4.20481  0
C  C154  1  0.93316256  0.22503512  0.40553778  1  1.64622  0  0.208907  0.605591  0  4.204901  0
C  C155  1  0.43316251  0.77496330  0.09445808  1  1.64638  0  0.208938  0.605648  0  4.204937  0
C  C156  1  0.24698889  0.97161012  0.51484762  1  0.746543  0  0.118063  0.316351  0  4.047957  0
C  C157  1  0.74699243  0.02839124  0.98515235  1  0.746628  0  0.118085  0.316343  0  4.047895  0
C  C158  1  0.75301479  0.02839094  0.48515232  1  0.746559  0  0.118087  0.316346  0  4.048007  0
C  C159  1  0.25301244  0.97160869  0.01484836  1  0.746561  0  0.118014  0.316213  0  4.048151  0
C  C160  1  0.19764637  0.04923290  0.53525385  1  0.007571  0  -0.036228  -0.090705  0  4.056841  0
C  C161  1  0.69765031  0.95076791  0.96474540  1  0.007506  0  -0.036199  -0.090566  0  4.056756  0
C  C162  1  0.80235732  0.95076872  0.46474675  1  0.007542  0  -0.036233  -0.09072  0  4.05689  0
C  C163  1  0.30235456  0.04923145  0.03525307  1  0.007552  0  -0.03623  -0.090635  0  4.056783  0
C  C164  1  0.24602094  0.09770936  0.49346416  1  -0.056802  0  -0.068888  -0.132321  0  3.935568  0
C  C165  1  0.74602829  0.90229196  0.00653536  1  -0.056981  0  -0.068917  -0.132445  0  3.935623  0
C  C166  1  0.75398036  0.90229282  0.50653658  1  -0.056802  0  -0.068882  -0.132329  0  3.935518  0
C  C167  1  0.25397776  0.09770797  0.99346430  1  -0.056896  0  -0.068882  -0.13234  0  3.935609  0
C  C168  1  0.34394518  0.07591641  0.43212576  1  0.056036  0  -0.020955  0.144522  0  4.00587  0
C  C169  1  0.84395164  0.92408431  0.06787320  1  0.05624  0  -0.020982  0.144563  0  4.005838  0
C  C170  1  0.65605612  0.92408465  0.56787366  1  0.05661  0  -0.02095  0.144577  0  4.005863  0
C  C171  1  0.15605086  0.07591562  0.93212751  1  0.05613  0  -0.020995  0.144495  0  4.00595  0
C  C172  1  0.38676660  0.00023813  0.40979926  1  -0.104738  0  -0.066869  -0.120907  0  3.887624  0
C  C173  1  0.88677175  0.99976200  0.09019960  1  -0.104748  0  -0.066839  -0.120868  0  3.887635  0
C  C174  1  0.61323352  0.99976236  0.59019949  1  -0.104752  0  -0.066857  -0.120983  0  3.887732  0
C  C175  1  0.11323194  0.00023849  0.90980019  1  -0.104716  0  -0.066876  -0.120985  0  3.887701  0
C  C176  1  0.33800074  0.94782154  0.44816683  1  0.034796  0  -0.032646  -0.096479  0  4.058083  0
C  C177  1  0.83800760  0.05217918  0.05183370  1  0.034741  0  -0.032747  -0.096611  0  4.058308  0
C  C178  1  0.66199700  0.05217951  0.55183206  1  0.034893  0  -0.032747  -0.096552  0  4.05826  0
C  C179  1  0.16199846  0.94782131  0.94816715  1  0.03484  0  -0.032656  -0.096443  0  4.058163  0
C  C180  1  0.09971617  0.08154226  0.59741863  1  0.557347  0  0.078329  0.114774  0  3.917298  0
C  C181  1  0.59972104  0.91845972  0.90258185  1  0.557315  0  0.078354  0.114877  0  3.917345  0
C  C182  1  0.90028157  0.91845879  0.40258078  1  0.557328  0  0.078269  0.114751  0  3.91734  0
C  C183  1  0.40028027  0.08154134  0.09741862  1  0.557335  0  0.078295  0.114735  0  3.917225  0
C  C184  1  0.95536666  0.09315157  0.70482519  1  0.301917  0  -0.072718  -0.206355  0  3.963973  0
C  C185  1  0.45537092  0.90684914  0.79517590  1  0.301677  0  -0.072803  -0.206606  0  3.964065  0
C  C186  1  0.04462752  0.90684723  0.29517366  1  0.301804  0  -0.072749  -0.206487  0  3.963954  0
C  C187  1  0.54462801  0.09315136  0.20482599  1  0.301791  0  -0.072753  -0.206495  0  3.963899  0
C  C188  1  0.85448815  0.04438364  0.74087327  1  1.579925  0  0.208853  0.610689  0  4.194872  0
C  C189  1  0.35448967  0.95561711  0.75912824  1  1.580368  0  0.208853  0.610761  0  4.194868  0
C  C190  1  0.14551078  0.95561460  0.25912649  1  1.579914  0  0.20887  0.610722  0  4.194849  0
C  C191  1  0.64550807  0.04438338  0.24087313  1  1.580377  0  0.208863  0.610726  0  4.194879  0
C  C192  1  0.39533939  0.13192086  0.39166741  1  -0.101929  0  -0.244531  -0.413588  0  3.94389  0
C  C193  1  0.89534270  0.86807984  0.10833317  1  -0.102092  0  -0.244519  -0.413556  0  3.943702  0
C  C194  1  0.60465598  0.86808020  0.60833358  1  -0.102615  0  -0.244474  -0.413579  0  3.943772  0
C  C195  1  0.10465742  0.13192066  0.89166820  1  -0.102096  0  -0.244536  -0.413595  0  3.943798  0
C  C196  1  0.37209821  0.87054864  0.41778623  1  0.50997  0  0.09987  0.124315  0  3.873802  0
C  C197  1  0.87210380  0.12945207  0.08221538  1  0.509929  0  0.099925  0.124341  0  3.874015  0
C  C198  1  0.62789834  0.12945241  0.58221266  1  0.509887  0  0.099917  0.124381  0  3.873836  0
C  C199  1  0.12790226  0.87054786  0.91778638  1  0.509913  0  0.099921  0.124421  0  3.873821  0
C  C200  1  0.33610865  0.73759325  0.41000124  1  0.318037  0  -0.060214  -0.206105  0  3.926842  0
C  C201  1  0.83610910  0.26240578  0.08999991  1  0.318154  0  -0.060201  -0.206164  0  3.926862  0
C  C202  1  0.66389028  0.26240611  0.58999670  1  0.318005  0  -0.06024  -0.206058  0  3.926785  0
C  C203  1  0.16389339  0.73759359  0.91000066  1  0.318139  0  -0.060204  -0.206202  0  3.926891  0
C  C204  1  0.17441307  0.71303250  0.37231533  1  1.612136  0  0.209972  0.611178  0  4.175438  0
C  C205  1  0.67441484  0.28696717  0.12768580  1  1.611443  0  0.21  0.611358  0  4.17523  0
C  C206  1  0.82558586  0.28696687  0.62768367  1  1.611539  0  0.209955  0.611215  0  4.175338  0
C  C207  1  0.32558646  0.71303276  0.87231439  1  1.611465  0  0.209979  0.611275  0  4.175332  0
N  N208  1  0.45644539  0.47570794  0.35723220  1  -1.17844  0  -0.349734  -0.2344  0  3.564483  0
N  N209  1  0.95644529  0.52429161  0.14276765  1  -1.178553  0  -0.349726  -0.234359  0  3.564475  0
N  N210  1  0.54355473  0.52428974  0.64276743  1  -1.178537  0  -0.349768  -0.234431  0  3.564556  0
N  N211  1  0.04355364  0.47570889  0.85723163  1  -1.178576  0  -0.349788  -0.234422  0  3.564499  0
N  N212  1  0.06061431  0.63640063  0.56604583  1  -1.241522  0  -0.363807  -0.125052  0  3.656085  0
N  N213  1  0.56061169  0.36359854  0.93395390  1  -1.241689  0  -0.363802  -0.125091  0  3.656006  0
N  N214  1  0.93938344  0.36359760  0.43395393  1  -1.241457  0  -0.363861  -0.125121  0  3.656044  0
N  N215  1  0.43938843  0.63640082  0.06604614  1  -1.241562  0  -0.363786  -0.125076  0  3.656048  0
N  N216  1  0.04947183  0.04818386  0.64531858  1  -1.206323  0  -0.348364  -0.242604  0  3.546802  0
N  N217  1  0.54947394  0.95181758  0.85468381  1  -1.206147  0  -0.348354  -0.242591  0  3.546698  0
N  N218  1  0.95052472  0.95181550  0.35468094  1  -1.20624  0  -0.34834  -0.242591  0  3.546797  0
N  N219  1  0.45052380  0.04818404  0.14531890  1  -1.206213  0  -0.348351  -0.242551  0  3.546689  0
N  N220  1  0.33676554  0.81625918  0.44824201  1  -1.252977  0  -0.375136  -0.147326  0  3.651677  0
N  N221  1  0.83676840  0.18374098  0.05175890  1  -1.252911  0  -0.375108  -0.147278  0  3.651818  0
N  N222  1  0.66323339  0.18374131  0.55175674  1  -1.252979  0  -0.37508  -0.147271  0  3.651701  0
N  N223  1  0.16323528  0.81625895  0.94824233  1  -1.25275  0  -0.375144  -0.147339  0  3.651598  0
O  O224  1  0.25238128  0.56521647  0.46253537  1  -1.15448  0  -0.311779  -0.510651  0  2.400567  0
O  O225  1  0.75238322  0.43478147  0.03746331  1  -1.154494  0  -0.311774  -0.510561  0  2.400577  0
O  O226  1  0.74761884  0.43478234  0.53746453  1  -1.154509  0  -0.311797  -0.510627  0  2.400544  0
O  O227  1  0.24761808  0.56521846  0.96253634  1  -1.154514  0  -0.311813  -0.510632  0  2.400645  0
O  O228  1  0.45298109  0.57955962  0.28111560  1  -1.177842  0  -0.317919  -0.552307  0  2.280472  0
O  O229  1  0.95297939  0.42044161  0.21888414  1  -1.177792  0  -0.317905  -0.552282  0  2.280546  0
O  O230  1  0.54702022  0.42043918  0.71888378  1  -1.177878  0  -0.317932  -0.552359  0  2.280416  0
O  O231  1  0.04701954  0.57955775  0.78111433  1  -1.177801  0  -0.317861  -0.552231  0  2.280547  0
O  O232  1  0.64623417  0.52588541  0.20616438  1  -1.193452  0  -0.321865  -0.552682  0  2.337601  0
O  O233  1  0.14623510  0.47411370  0.29383605  1  -1.193449  0  -0.321812  -0.552586  0  2.337532  0
O  O234  1  0.35376595  0.47411396  0.79383514  1  -1.193442  0  -0.321849  -0.552721  0  2.337558  0
O  O235  1  0.85376383  0.52588510  0.70616333  1  -1.193459  0  -0.321829  -0.552606  0  2.337531  0
O  O236  1  0.99215678  0.83607932  0.62315012  1  -1.17682  0  -0.323621  -0.543448  0  2.320948  0
O  O237  1  0.49214971  0.16391969  0.87685426  1  -1.176803  0  -0.323576  -0.543493  0  2.320943  0
O  O238  1  0.00784334  0.16391948  0.37684926  1  -1.176857  0  -0.323562  -0.543399  0  2.320948  0
O  O239  1  0.50785160  0.83608024  0.12314382  1  -1.176839  0  -0.323556  -0.543463  0  2.320966  0
O  O240  1  0.19779375  0.76517021  0.56252805  1  -1.176453  0  -0.32669  -0.552532  0  2.13656  0
O  O241  1  0.69779277  0.23482891  0.93747236  1  -1.176447  0  -0.326654  -0.552485  0  2.136458  0
O  O242  1  0.80220518  0.23482972  0.43747214  1  -1.176458  0  -0.3267  -0.55255  0  2.136535  0
O  O243  1  0.30220735  0.76516876  0.06252674  1  -1.176524  0  -0.326685  -0.552494  0  2.136601  0
O  O244  1  0.21237372  0.92402703  0.55153667  1  -1.150964  0  -0.295949  -0.492153  0  2.36896  0
O  O245  1  0.71237689  0.07597547  0.94846406  1  -1.151  0  -0.295927  -0.492168  0  2.369107  0
O  O246  1  0.78762877  0.07597459  0.44846288  1  -1.151058  0  -0.295967  -0.492162  0  2.369042  0
O  O247  1  0.28762442  0.92402503  0.05153678  1  -1.151039  0  -0.295918  -0.49213  0  2.369183  0
O  O248  1  0.88591481  0.97512884  0.72987050  1  -1.16398  0  -0.312934  -0.543513  0  2.202863  0
O  O249  1  0.38591589  0.02487076  0.77012919  1  -1.163992  0  -0.312933  -0.543519  0  2.202942  0
O  O250  1  0.11408649  0.02486996  0.27012835  1  -1.163932  0  -0.312914  -0.543504  0  2.202836  0
O  O251  1  0.61408185  0.97512917  0.22987099  1  -1.163975  0  -0.312899  -0.543481  0  2.203053  0
O  O252  1  0.74701075  0.08171935  0.78228377  1  -1.191304  0  -0.331912  -0.564332  0  2.362633  0
O  O253  1  0.24701333  0.91828088  0.71771644  1  -1.19171  0  -0.331895  -0.564339  0  2.362645  0
O  O254  1  0.25299056  0.91828001  0.21771627  1  -1.191321  0  -0.331928  -0.564337  0  2.362628  0
O  O255  1  0.75298679  0.08171905  0.28228321  1  -1.191742  0  -0.331945  -0.564379  0  2.362594  0
O  O256  1  0.14564819  0.64140931  0.35590426  1  -1.172267  0  -0.338147  -0.579682  0  2.37386  0
O  O257  1  0.64564744  0.35858811  0.14409627  1  -1.172237  0  -0.33812  -0.579767  0  2.37382  0
O  O258  1  0.85435312  0.35859005  0.64409474  1  -1.172247  0  -0.338135  -0.57974  0  2.373826  0
O  O259  1  0.35435505  0.64141126  0.85590272  1  -1.17226  0  -0.338184  -0.579773  0  2.373811  0
O  O260  1  0.08325127  0.76087010  0.35940223  1  -1.179487  0  -0.314185  -0.530852  0  2.155526  0
O  O261  1  0.58325090  0.23912678  0.14059809  1  -1.178879  0  -0.314252  -0.530958  0  2.155372  0
O  O262  1  0.91674766  0.23912870  0.64059714  1  -1.178889  0  -0.314188  -0.53087  0  2.155503  0
O  O263  1  0.41675040  0.76087258  0.85940195  1  -1.178887  0  -0.314211  -0.530901  0  2.15543  0
