# generated using pymatgen
data_CdH20C14(NO2)4
_symmetry_space_group_name_H-M   'P 1'
_cell_length_a   7.25560132
_cell_length_b   9.09140762
_cell_length_c   13.35974738
_cell_angle_alpha   89.99997021
_cell_angle_beta   90.00007243
_cell_angle_gamma   96.36931829
_symmetry_Int_Tables_number   1
_chemical_formula_structural   CdH20C14(NO2)4
_chemical_formula_sum   'Cd2 H40 C28 N8 O16'
_cell_volume   875.81783081
_cell_formula_units_Z   2
loop_
 _symmetry_equiv_pos_site_id
 _symmetry_equiv_pos_as_xyz
  1  'x, y, z'
loop_
 _atom_site_type_symbol
 _atom_site_label
 _atom_site_symmetry_multiplicity
 _atom_site_fract_x
 _atom_site_fract_y
 _atom_site_fract_z
 _atom_site_occupancy
 _atom_site_hle17_bader_spin_density
 _atom_site_hle17_ddec_charge
 _atom_site_hle17_ddec_spin_density
 _atom_site_hle17_ddec_sum_bond_order
 _atom_site_hle17_magmom
 _atom_site_hse06_10hf_bader_spin_density
 _atom_site_hse06_10hf_ddec_charge
 _atom_site_hse06_10hf_ddec_spin_density
 _atom_site_hse06_10hf_ddec_sum_bond_order
 _atom_site_hse06_10hf_magmom
 _atom_site_hse06_bader_spin_density
 _atom_site_hse06_ddec_charge
 _atom_site_hse06_ddec_spin_density
 _atom_site_hse06_ddec_sum_bond_order
 _atom_site_hse06_magmom
 _atom_site_pbe_bader_spin_density
 _atom_site_pbe_cm5_charge
 _atom_site_pbe_ddec_charge
 _atom_site_pbe_ddec_spin_density
 _atom_site_pbe_ddec_sum_bond_order
 _atom_site_pbe_magmom
Cd  Cd0  1  0.49999857  0.50000083  0.49999980  1  0  1.146169  0  1.644335  0  0  0.946872  0  2.095272  0  0  1.000915  0  2.044059  0  0  0.787907  0.906072  0  2.131912  0
Cd  Cd1  1  0.00000047  0.49999764  0.99999936  1  0  1.146096  0  1.644384  0  0  0.946798  0  2.09531  0  0  1.000839  0  2.044103  0  0  0.787883  0.905996  0  2.131951  0
H  H2  1  0.73100831  0.66292509  0.34182246  1  0  0.422604  0  0.871269  0  0  0.390596  0  0.939277  0  0  0.400494  0  0.924646  0  0  0.294323  0.383501  0  0.949748  0
H  H3  1  0.76899118  0.33707512  0.84182225  1  0  0.422604  0  0.871272  0  0  0.390597  0  0.939276  0  0  0.400495  0  0.924646  0  0  0.294324  0.383504  0  0.949745  0
H  H4  1  0.26899125  0.33707434  0.65817640  1  0  0.422607  0  0.871304  0  0  0.390591  0  0.93929  0  0  0.400488  0  0.92466  0  0  0.29434  0.383499  0  0.949755  0
H  H5  1  0.23100854  0.66292542  0.15817735  1  0  0.422606  0  0.871268  0  0  0.390595  0  0.93928  0  0  0.400492  0  0.92465  0  0  0.294331  0.383502  0  0.949747  0
H  H6  1  0.88022617  0.60160049  0.41334558  1  0  0.417655  0  0.886714  0  0  0.382714  0  0.958125  0  0  0.394105  0  0.941302  0  0  0.287855  0.374494  0  0.970255  0
H  H7  1  0.61977349  0.39839968  0.91334525  1  0  0.417675  0  0.886683  0  0  0.382744  0  0.958078  0  0  0.394132  0  0.941259  0  0  0.287868  0.374523  0  0.970208  0
H  H8  1  0.11977477  0.39839894  0.58665403  1  0  0.417669  0  0.886695  0  0  0.382735  0  0.958095  0  0  0.394126  0  0.941271  0  0  0.287879  0.374514  0  0.970225  0
H  H9  1  0.38022624  0.60160086  0.08665436  1  0  0.417643  0  0.886731  0  0  0.382708  0  0.958136  0  0  0.394099  0  0.941313  0  0  0.287861  0.374488  0  0.970266  0
H  H10  1  0.53788537  0.51049588  0.73543241  1  0  0.073461  0  0.979025  0  0  0.077709  0  1.052414  0  0  0.079957  0  1.050163  0  0  0.110774  0.075942  0  1.054248  0
H  H11  1  0.96211129  0.48950552  0.23543358  1  0  0.073472  0  0.978967  0  0  0.077721  0  1.052359  0  0  0.07997  0  1.050106  0  0  0.110762  0.075954  0  1.054194  0
H  H12  1  0.46210763  0.48950581  0.26456495  1  0  0.073484  0  0.978945  0  0  0.077701  0  1.052372  0  0  0.07995  0  1.05012  0  0  0.110752  0.075933  0  1.054206  0
H  H13  1  0.03789670  0.51049498  0.76456603  1  0  0.07353  0  0.978902  0  0  0.077733  0  1.05233  0  0  0.079982  0  1.050079  0  0  0.110769  0.075964  0  1.054163  0
H  H14  1  0.55886866  0.68921076  0.87529581  1  0  0.116552  0  0.957181  0  0  0.124393  0  1.022624  0  0  0.127692  0  1.021319  0  0  0.108276  0.121948  0  1.023657  0
H  H15  1  0.94112508  0.31078725  0.37529553  1  0  0.116539  0  0.957226  0  0  0.124392  0  1.022646  0  0  0.12769  0  1.021342  0  0  0.10827  0.121946  0  1.023679  0
H  H16  1  0.44112401  0.31078870  0.12470380  1  0  0.11653  0  0.957217  0  0  0.124381  0  1.022645  0  0  0.127679  0  1.021341  0  0  0.108263  0.121936  0  1.023679  0
H  H17  1  0.05888137  0.68921215  0.62470482  1  0  0.116626  0  0.957169  0  0  0.124466  0  1.022607  0  0  0.127762  0  1.021304  0  0  0.108295  0.12202  0  1.023639  0
H  H18  1  0.56206393  0.04008366  0.65648191  1  0  0.11637  0  0.953427  0  0  0.123952  0  1.018478  0  0  0.127485  0  1.016878  0  0  0.106542  0.120498  0  1.021148  0
H  H19  1  0.93793514  0.95991666  0.15648215  1  0  0.116389  0  0.953425  0  0  0.123969  0  1.01847  0  0  0.127502  0  1.016869  0  0  0.106544  0.120514  0  1.021143  0
H  H20  1  0.43793628  0.95992020  0.34351770  1  0  0.116384  0  0.953427  0  0  0.12396  0  1.018475  0  0  0.127494  0  1.016876  0  0  0.10656  0.120506  0  1.021146  0
H  H21  1  0.06206532  0.04007944  0.84351746  1  0  0.116379  0  0.953353  0  0  0.123947  0  1.018424  0  0  0.12748  0  1.016823  0  0  0.106536  0.120493  0  1.021096  0
H  H22  1  0.54324137  0.84378274  0.52366787  1  0  0.079868  0  0.944433  0  0  0.091968  0  1.004485  0  0  0.094038  0  1.002451  0  0  0.116511  0.090393  0  1.006088  0
H  H23  1  0.95676031  0.15621874  0.02366990  1  0  0.079838  0  0.944462  0  0  0.091986  0  1.004468  0  0  0.094061  0  1.002435  0  0  0.116485  0.090411  0  1.006077  0
H  H24  1  0.45675625  0.15622224  0.47633024  1  0  0.079845  0  0.944459  0  0  0.091989  0  1.00447  0  0  0.094061  0  1.002439  0  0  0.116499  0.090412  0  1.006078  0
H  H25  1  0.04324597  0.84377955  0.97632970  1  0  0.079865  0  0.944449  0  0  0.092007  0  1.004465  0  0  0.094081  0  1.002432  0  0  0.116508  0.090432  0  1.006073  0
H  H26  1  0.69772357  0.06554215  0.85677765  1  0  0.089386  0  0.928421  0  0  0.110938  0  0.985984  0  0  0.111416  0  0.986252  0  0  0.09952  0.110512  0  0.986086  0
H  H27  1  0.80227442  0.93445695  0.35677781  1  0  0.089376  0  0.92835  0  0  0.110955  0  0.985891  0  0  0.111432  0  0.986158  0  0  0.099532  0.110527  0  0.985994  0
H  H28  1  0.30227859  0.93445616  0.14322345  1  0  0.089386  0  0.928382  0  0  0.110928  0  0.985941  0  0  0.111403  0  0.986208  0  0  0.099527  0.110503  0  0.986039  0
H  H29  1  0.19772255  0.06554360  0.64322330  1  0  0.089371  0  0.928422  0  0  0.110921  0  0.985962  0  0  0.111397  0  0.98623  0  0  0.099525  0.110495  0  0.986062  0
H  H30  1  0.46260379  0.07395247  0.83655114  1  0  0.090074  0  0.952834  0  0  0.10655  0  1.016849  0  0  0.107246  0  1.017427  0  0  0.095582  0.106287  0  1.016147  0
H  H31  1  0.03739365  0.92604720  0.33655262  1  0  0.090051  0  0.952782  0  0  0.106529  0  1.016803  0  0  0.107222  0  1.017386  0  0  0.095575  0.106266  0  1.016103  0
H  H32  1  0.53739763  0.92605027  0.16344996  1  0  0.090043  0  0.952877  0  0  0.106522  0  1.016864  0  0  0.107212  0  1.017446  0  0  0.095603  0.106259  0  1.01616  0
H  H33  1  0.96260574  0.07395113  0.66345073  1  0  0.090034  0  0.952907  0  0  0.106497  0  1.016912  0  0  0.107189  0  1.017493  0  0  0.095593  0.106234  0  1.016211  0
H  H34  1  0.40167410  0.85222411  0.96286026  1  0  0.062362  0  0.960749  0  0  0.080862  0  1.024634  0  0  0.081346  0  1.025489  0  0  0.085254  0.080411  0  1.024134  0
H  H35  1  0.09832226  0.14777550  0.46286056  1  0  0.062347  0  0.960747  0  0  0.080885  0  1.024654  0  0  0.08137  0  1.025509  0  0  0.085288  0.080436  0  1.02415  0
H  H36  1  0.59832271  0.14777534  0.03713935  1  0  0.06234  0  0.960787  0  0  0.08087  0  1.024696  0  0  0.081355  0  1.025552  0  0  0.085275  0.080423  0  1.02419  0
H  H37  1  0.90167730  0.85222393  0.53714130  1  0  0.062375  0  0.960703  0  0  0.0809  0  1.024592  0  0  0.081385  0  1.025447  0  0  0.085275  0.08045  0  1.024086  0
H  H38  1  0.63844684  0.88447370  0.99277482  1  0  0.057217  0  0.936825  0  0  0.077006  0  0.996834  0  0  0.07684  0  0.998476  0  0  0.084428  0.076942  0  0.995854  0
H  H39  1  0.86154871  0.11552534  0.49277605  1  0  0.057161  0  0.936845  0  0  0.076978  0  0.996883  0  0  0.076812  0  0.998525  0  0  0.084403  0.076917  0  0.995902  0
H  H40  1  0.36154843  0.11552464  0.00722554  1  0  0.057204  0  0.936826  0  0  0.077014  0  0.99686  0  0  0.07685  0  0.998503  0  0  0.084418  0.07695  0  0.995882  0
H  H41  1  0.13845118  0.88447631  0.50722580  1  0  0.057203  0  0.936835  0  0  0.077009  0  0.996861  0  0  0.076844  0  0.998503  0  0  0.084416  0.076943  0  0.995883  0
C  C42  1  0.54629229  0.62904192  0.72068885  1  0  0.12748  0  3.73252  0  0  0.095041  0  3.98531  0  0  0.102667  0  4.005857  0  0  0.037733  0.089982  0  3.971417  0
C  C43  1  0.95370279  0.37095838  0.22068781  1  0  0.127489  0  3.732482  0  0  0.095041  0  3.985281  0  0  0.102669  0  4.005827  0  0  0.037794  0.089982  0  3.97139  0
C  C44  1  0.45369949  0.37096087  0.27931225  1  0  0.127475  0  3.732423  0  0  0.095057  0  3.985202  0  0  0.102683  0  4.005751  0  0  0.037837  0.089998  0  3.971311  0
C  C45  1  0.04630317  0.62903770  0.77931255  1  0  0.127431  0  3.732455  0  0  0.095024  0  3.985247  0  0  0.102651  0  4.005796  0  0  0.037827  0.089966  0  3.971352  0
C  C46  1  0.55710949  0.73050437  0.79885498  1  0  -0.169194  0  3.68772  0  0  -0.187297  0  3.935473  0  0  -0.19601  0  3.957633  0  0  -0.086959  -0.181214  0  3.920276  0
C  C47  1  0.94288699  0.26949478  0.29885547  1  0  -0.169158  0  3.687732  0  0  -0.187256  0  3.935469  0  0  -0.195969  0  3.957631  0  0  -0.086949  -0.181173  0  3.920271  0
C  C48  1  0.44288764  0.26949729  0.20114537  1  0  -0.169103  0  3.687563  0  0  -0.187183  0  3.935291  0  0  -0.195911  0  3.95744  0  0  -0.086905  -0.18109  0  3.920107  0
C  C49  1  0.05712068  0.73050351  0.70114638  1  0  -0.169259  0  3.687742  0  0  -0.187352  0  3.935455  0  0  -0.196072  0  3.95761  0  0  -0.086948  -0.181257  0  3.920266  0
C  C50  1  0.56088070  0.88168492  0.77806415  1  0  0.173135  0  3.694299  0  0  0.186497  0  3.933098  0  0  0.192705  0  3.954826  0  0  0.020347  0.18261  0  3.917799  0
C  C51  1  0.93912311  0.11831752  0.27806693  1  0  0.173084  0  3.694325  0  0  0.186444  0  3.933114  0  0  0.19265  0  3.954844  0  0  0.020304  0.182563  0  3.917813  0
C  C52  1  0.43912105  0.11832004  0.22193396  1  0  0.173087  0  3.694246  0  0  0.186399  0  3.933068  0  0  0.19265  0  3.954731  0  0  0.02027  0.182478  0  3.917819  0
C  C53  1  0.06087751  0.88167969  0.72193492  1  0  0.17305  0  3.694376  0  0  0.186419  0  3.933115  0  0  0.19265  0  3.954805  0  0  0.020247  0.182499  0  3.917863  0
C  C54  1  0.55815669  0.92339196  0.67684067  1  0  -0.167753  0  3.678568  0  0  -0.183479  0  3.926937  0  0  -0.192195  0  3.948203  0  0  -0.082752  -0.177687  0  3.913246  0
C  C55  1  0.94184243  0.07660835  0.17683972  1  0  -0.167788  0  3.678513  0  0  -0.183503  0  3.926878  0  0  -0.192219  0  3.948147  0  0  -0.082734  -0.177713  0  3.91319  0
C  C56  1  0.44184215  0.07661191  0.32316044  1  0  -0.167759  0  3.678436  0  0  -0.183484  0  3.926852  0  0  -0.192208  0  3.948095  0  0  -0.082741  -0.177682  0  3.91317  0
C  C57  1  0.05815373  0.92338667  0.82315913  1  0  -0.167756  0  3.678504  0  0  -0.183479  0  3.926871  0  0  -0.192203  0  3.948134  0  0  -0.082715  -0.177678  0  3.913192  0
C  C58  1  0.54810833  0.81581761  0.60289168  1  0  0.12957  0  3.729515  0  0  0.09737  0  3.980161  0  0  0.105435  0  3.999244  0  0  0.041572  0.092076  0  3.967077  0
C  C59  1  0.95189321  0.18418162  0.10288996  1  0  0.129603  0  3.72952  0  0  0.097358  0  3.980168  0  0  0.105416  0  3.999259  0  0  0.041565  0.092066  0  3.967086  0
C  C60  1  0.45189050  0.18418626  0.39710942  1  0  0.129599  0  3.729526  0  0  0.097365  0  3.980144  0  0  0.105422  0  3.999244  0  0  0.041588  0.092075  0  3.967055  0
C  C61  1  0.04811000  0.81581447  0.89710815  1  0  0.129556  0  3.729596  0  0  0.097324  0  3.980221  0  0  0.10538  0  3.999318  0  0  0.041566  0.092032  0  3.967135  0
C  C62  1  0.56246414  0.99693295  0.85844589  1  0  -0.174789  0  3.712244  0  0  -0.218056  0  3.960554  0  0  -0.220029  0  3.97364  0  0  -0.162836  -0.216734  0  3.951167  0
C  C63  1  0.93753401  0.00306726  0.35844572  1  0  -0.174742  0  3.712099  0  0  -0.217985  0  3.960437  0  0  -0.219957  0  3.973526  0  0  -0.162816  -0.216663  0  3.951043  0
C  C64  1  0.43753834  0.00306758  0.14155522  1  0  -0.174748  0  3.712265  0  0  -0.217923  0  3.960527  0  0  -0.219896  0  3.973587  0  0  -0.16284  -0.216597  0  3.951161  0
C  C65  1  0.06246296  0.99693329  0.64155464  1  0  -0.174668  0  3.71228  0  0  -0.217857  0  3.9605  0  0  -0.219826  0  3.973568  0  0  -0.162818  -0.216527  0  3.95112  0
C  C66  1  0.52049115  0.93867385  0.96402572  1  0  -0.09916  0  3.697163  0  0  -0.137618  0  3.953808  0  0  -0.138262  0  3.968372  0  0  -0.169418  -0.136938  0  3.943671  0
C  C67  1  0.97950280  0.06132411  0.46402556  1  0  -0.09907  0  3.697153  0  0  -0.137721  0  3.954034  0  0  -0.138367  0  3.968598  0  0  -0.169471  -0.137041  0  3.943887  0
C  C68  1  0.47950534  0.06132339  0.03597538  1  0  -0.09914  0  3.697244  0  0  -0.137805  0  3.954047  0  0  -0.138452  0  3.968605  0  0  -0.16948  -0.137119  0  3.943892  0
C  C69  1  0.02049555  0.93867644  0.53597480  1  0  -0.099219  0  3.697172  0  0  -0.137802  0  3.953971  0  0  -0.138451  0  3.968537  0  0  -0.169466  -0.137115  0  3.943817  0
N  N70  1  0.54067652  0.67018391  0.62410543  1  0  -0.361598  0  3.313484  0  0  -0.275995  0  3.578417  0  0  -0.299404  0  3.59975  0  0  -0.344543  -0.259525  0  3.563511  0
N  N71  1  0.95932385  0.32981642  0.12410590  1  0  -0.361591  0  3.313565  0  0  -0.275995  0  3.578524  0  0  -0.299406  0  3.599861  0  0  -0.344541  -0.259525  0  3.563621  0
N  N72  1  0.45932061  0.32981775  0.37589493  1  0  -0.361664  0  3.313625  0  0  -0.276071  0  3.578593  0  0  -0.299479  0  3.599925  0  0  -0.344644  -0.259601  0  3.563686  0
N  N73  1  0.04068519  0.67018186  0.87589520  1  0  -0.361517  0  3.313541  0  0  -0.27593  0  3.578499  0  0  -0.299335  0  3.599827  0  0  -0.344581  -0.259459  0  3.563592  0
N  N74  1  0.21608941  0.65827495  0.36698444  1  0  0.689924  0  4.147905  0  0  0.709945  0  4.456999  0  0  0.73823  0  4.462738  0  0  0.09797  0.690881  0  4.452515  0
N  N75  1  0.28391102  0.34172580  0.86698499  1  0  0.689918  0  4.147919  0  0  0.709947  0  4.456996  0  0  0.738232  0  4.462737  0  0  0.097987  0.690883  0  4.452511  0
N  N76  1  0.78391185  0.34172669  0.63301442  1  0  0.689863  0  4.148072  0  0  0.709898  0  4.457138  0  0  0.738187  0  4.462875  0  0  0.097933  0.690833  0  4.45265  0
N  N77  1  0.71608854  0.65827363  0.13301387  1  0  0.689895  0  4.147944  0  0  0.70995  0  4.456987  0  0  0.738243  0  4.462721  0  0  0.097957  0.690886  0  4.452501  0
O  O78  1  0.38589179  0.69324023  0.39005604  1  0  -0.485297  0  1.818942  0  0  -0.461103  0  2.061678  0  0  -0.478959  0  2.052765  0  0  -0.191413  -0.448055  0  2.068492  0
O  O79  1  0.11410869  0.30676051  0.89005574  1  0  -0.485274  0  1.818991  0  0  -0.461074  0  2.061677  0  0  -0.478933  0  2.052767  0  0  -0.191408  -0.448026  0  2.068492  0
O  O80  1  0.61410809  0.30676142  0.60994357  1  0  -0.485283  0  1.818953  0  0  -0.461083  0  2.061671  0  0  -0.47894  0  2.052758  0  0  -0.191397  -0.448035  0  2.068486  0
O  O81  1  0.88589241  0.69324003  0.10994387  1  0  -0.485269  0  1.818917  0  0  -0.4611  0  2.061634  0  0  -0.478961  0  2.052724  0  0  -0.191404  -0.448049  0  2.068448  0
O  O82  1  0.11486697  0.57191598  0.42422652  1  0  -0.466663  0  1.79898  0  0  -0.440813  0  2.015495  0  0  -0.457309  0  2.009132  0  0  -0.175572  -0.429176  0  2.019667  0
O  O83  1  0.38513344  0.42808363  0.92422636  1  0  -0.466693  0  1.799066  0  0  -0.440828  0  2.015564  0  0  -0.457319  0  2.009199  0  0  -0.175571  -0.429191  0  2.019736  0
O  O84  1  0.88513413  0.42808455  0.57577383  1  0  -0.466613  0  1.799055  0  0  -0.440764  0  2.015563  0  0  -0.457265  0  2.009206  0  0  -0.175535  -0.429129  0  2.019734  0
O  O85  1  0.61486596  0.57191470  0.07577250  1  0  -0.466618  0  1.798957  0  0  -0.4408  0  2.015482  0  0  -0.457298  0  2.009119  0  0  -0.175564  -0.429164  0  2.019654  0
O  O86  1  0.15024824  0.70930298  0.28857350  1  0  -0.456101  0  1.800618  0  0  -0.441186  0  2.020879  0  0  -0.454039  0  2.012572  0  0  -0.174604  -0.431875  0  2.026655  0
O  O87  1  0.34975201  0.29069782  0.78857336  1  0  -0.45609  0  1.800537  0  0  -0.441196  0  2.020808  0  0  -0.454049  0  2.012504  0  0  -0.174619  -0.431884  0  2.026585  0
O  O88  1  0.84975148  0.29069756  0.71142536  1  0  -0.456069  0  1.800629  0  0  -0.441186  0  2.020903  0  0  -0.454041  0  2.012596  0  0  -0.174609  -0.431873  0  2.026678  0
O  O89  1  0.65024909  0.70930272  0.21142550  1  0  -0.456091  0  1.800584  0  0  -0.441188  0  2.020866  0  0  -0.454047  0  2.012564  0  0  -0.174602  -0.431875  0  2.026644  0
O  O90  1  0.75248938  0.63065750  0.41064039  1  0  -0.838197  0  1.886495  0  0  -0.783384  0  2.093918  0  0  -0.803858  0  2.060214  0  0  -0.592529  -0.768268  0  2.117576  0
O  O91  1  0.74750906  0.36934379  0.91064016  1  0  -0.838217  0  1.886493  0  0  -0.783411  0  2.093915  0  0  -0.803883  0  2.060211  0  0  -0.592544  -0.768295  0  2.117573  0
O  O92  1  0.24750880  0.36934194  0.58935847  1  0  -0.838212  0  1.886517  0  0  -0.783391  0  2.093944  0  0  -0.803863  0  2.060232  0  0  -0.592566  -0.768277  0  2.1176  0
O  O93  1  0.25248945  0.63065786  0.08935945  1  0  -0.838186  0  1.886526  0  0  -0.783372  0  2.093944  0  0  -0.803845  0  2.060244  0  0  -0.59253  -0.768254  0  2.117599  0
