# generated using pymatgen
data_CuH8C14N2O5
_symmetry_space_group_name_H-M   'P 1'
_cell_length_a   8.10998968
_cell_length_b   10.60421336
_cell_length_c   17.73230401
_cell_angle_alpha   89.99998992
_cell_angle_beta   102.40144679
_cell_angle_gamma   90.00007286
_symmetry_Int_Tables_number   1
_chemical_formula_structural   CuH8C14N2O5
_chemical_formula_sum   'Cu4 H32 C56 N8 O20'
_cell_volume   1489.39666448
_cell_formula_units_Z   4
loop_
 _symmetry_equiv_pos_site_id
 _symmetry_equiv_pos_as_xyz
  1  'x, y, z'
loop_
 _atom_site_type_symbol
 _atom_site_label
 _atom_site_symmetry_multiplicity
 _atom_site_fract_x
 _atom_site_fract_y
 _atom_site_fract_z
 _atom_site_occupancy
 _atom_site_pbe_bader_charge
 _atom_site_pbe_bader_spin_density
 _atom_site_pbe_cm5_charge
 _atom_site_pbe_ddec_charge
 _atom_site_pbe_ddec_spin_density
 _atom_site_pbe_ddec_sum_bond_order
 _atom_site_pbe_magmom
Cu  Cu0  1  0.18715232  0.44472803  0.06715611  1  1.04896  0.552064  0.716847  0.772832  0.716923  2.197369  0.552
Cu  Cu1  1  0.31284825  0.94472929  0.43284428  1  1.048966  0.55206  0.716821  0.772758  0.716917  2.197378  0.552
Cu  Cu2  1  0.81284729  0.55527011  0.93284630  1  1.048976  0.552059  0.716846  0.772807  0.716913  2.197338  0.552
Cu  Cu3  1  0.68715146  0.05527168  0.56715306  1  1.048991  0.552061  0.716855  0.772831  0.716916  2.197311  0.552
H  H4  1  0.19036772  0.55572350  0.29427430  1  0.153399  0.000419  0.112822  0.134957  0.000411  1.007822  0.0
H  H5  1  0.30962967  0.05572325  0.20572580  1  0.153394  0.000419  0.112821  0.134938  0.000411  1.007788  0.0
H  H6  1  0.80963070  0.44427747  0.70572404  1  0.15342  0.000419  0.112813  0.134955  0.000411  1.007826  0.0
H  H7  1  0.69036996  0.94427771  0.79427604  1  0.153415  0.000419  0.112822  0.134963  0.000411  1.007834  0.0
H  H8  1  0.47442733  0.20955274  0.32700303  1  0.127141  0.000597  0.110623  0.125294  0.000547  0.99827  0.0
H  H9  1  0.02557158  0.70955097  0.17299722  1  0.12711  0.000597  0.110637  0.125302  0.000547  0.998248  0.0
H  H10  1  0.52556984  0.79044540  0.67299462  1  0.126786  0.000597  0.110614  0.125262  0.000547  0.998311  0.0
H  H11  1  0.97442553  0.29044905  0.82700381  1  0.127134  0.000596  0.110625  0.125236  0.000547  0.998294  0.0
H  H12  1  0.36075451  0.40459494  0.52367885  1  0.133089  0.00062  0.111915  0.136402  0.000615  1.0266  0.0
H  H13  1  0.13924531  0.90459413  0.97632084  1  0.13291  0.00062  0.111926  0.136419  0.000615  1.026586  0.0
H  H14  1  0.63924646  0.59540414  0.47631862  1  0.13329  0.00062  0.111938  0.136415  0.000615  1.026553  0.0
H  H15  1  0.86075559  0.09540683  0.02368057  1  0.133305  0.00062  0.111907  0.136388  0.000615  1.026591  0.0
H  H16  1  0.15273563  0.66672651  0.39840921  1  0.497356  3.9e-05  0.307792  0.279179  -6.5e-05  0.997376  0.0
H  H17  1  0.34726446  0.16672634  0.10159229  1  0.497401  3.9e-05  0.307799  0.279193  -6.5e-05  0.997345  0.0
H  H18  1  0.84726408  0.33327540  0.60158814  1  0.497441  3.9e-05  0.307794  0.27919  -6.5e-05  0.997398  0.0
H  H19  1  0.65273642  0.83327463  0.89841025  1  0.497387  3.9e-05  0.307812  0.279227  -6.5e-05  0.997333  0.0
H  H20  1  0.93142254  0.76217197  0.39827619  1  0.122148  0.001012  0.120773  0.139821  0.000547  0.994251  0.001
H  H21  1  0.56857726  0.26216964  0.10172331  1  0.122143  0.001012  0.120773  0.139807  0.000547  0.994295  0.001
H  H22  1  0.06857714  0.23782994  0.60172284  1  0.122187  0.001012  0.120779  0.139814  0.000547  0.994243  0.001
H  H23  1  0.43142490  0.73782756  0.89827823  1  0.122201  0.001012  0.120758  0.139795  0.000547  0.994298  0.001
H  H24  1  0.12440096  0.71136626  0.64309561  1  0.125008  0.000936  0.121648  0.13505  0.00051  0.972037  0.001
H  H25  1  0.37559979  0.21136227  0.85690477  1  0.124981  0.000936  0.121635  0.135039  0.00051  0.972049  0.001
H  H26  1  0.87560124  0.28863565  0.35690424  1  0.124998  0.000936  0.121651  0.135031  0.00051  0.972067  0.001
H  H27  1  0.62440364  0.78863681  0.14309690  1  0.124956  0.000937  0.12164  0.135006  0.00051  0.97205  0.001
H  H28  1  0.75568311  0.93837260  0.43000725  1  0.143705  0.001848  0.127407  0.113722  0.000808  0.978311  0.002
H  H29  1  0.74431573  0.43837139  0.06999214  1  0.14373  0.001848  0.127404  0.11372  0.000808  0.978326  0.002
H  H30  1  0.24431404  0.06162837  0.56999152  1  0.143752  0.001848  0.127403  0.113717  0.000808  0.978356  0.002
H  H31  1  0.25568641  0.56162769  0.93001053  1  0.143791  0.001848  0.12742  0.113738  0.000808  0.978348  0.002
H  H32  1  0.93760685  0.89243997  0.66508097  1  0.118645  0.001817  0.126583  0.106852  0.000812  0.986646  0.001
H  H33  1  0.56239119  0.39243756  0.83491885  1  0.11866  0.001817  0.12657  0.106847  0.000812  0.986655  0.001
H  H34  1  0.06239410  0.10756289  0.33491762  1  0.118619  0.001817  0.126566  0.106814  0.000812  0.986658  0.001
H  H35  1  0.43760968  0.60756246  0.16508425  1  0.118574  0.001817  0.126563  0.106782  0.000812  0.986674  0.001
C  C36  1  0.31589358  0.37127141  0.21627760  1  1.573349  -0.000974  0.20839  0.575318  -0.001214  4.195644  -0.003
C  C37  1  0.18410812  0.87126882  0.28372347  1  1.573152  -0.000974  0.208381  0.575294  -0.001214  4.195774  -0.003
C  C38  1  0.68410228  0.62872955  0.78372273  1  1.573162  -0.000974  0.208376  0.575182  -0.001214  4.195689  -0.003
C  C39  1  0.81589407  0.12873026  0.71627638  1  1.573165  -0.000974  0.208375  0.575124  -0.001214  4.195778  -0.003
C  C40  1  0.33116482  0.38184834  0.30195445  1  -0.004824  0.009967  -0.01583  -0.020951  0.006881  3.986451  0.008
C  C41  1  0.16883819  0.88184764  0.19804563  1  -0.00483  0.009968  -0.015859  -0.021024  0.006882  3.986535  0.008
C  C42  1  0.66883614  0.61815074  0.69804359  1  -0.004729  0.009968  -0.015791  -0.020896  0.006882  3.986392  0.008
C  C43  1  0.83116020  0.11815332  0.80195496  1  -0.004761  0.009969  -0.015861  -0.020997  0.006882  3.986323  0.008
C  C44  1  0.25688791  0.48322027  0.33270415  1  -0.04312  -0.000944  -0.070298  -0.156645  -0.001155  3.844218  -0.001
C  C45  1  0.24310892  0.98321965  0.16729698  1  -0.043135  -0.000944  -0.070294  -0.156565  -0.001155  3.844151  -0.001
C  C46  1  0.74311178  0.51677976  0.66729432  1  -0.043114  -0.000944  -0.070403  -0.156732  -0.001155  3.844193  -0.001
C  C47  1  0.75688692  0.01678037  0.83270448  1  -0.043129  -0.000945  -0.070302  -0.156605  -0.001155  3.844133  -0.001
C  C48  1  0.41746879  0.28899094  0.35075932  1  -0.03256  0.001999  -0.07428  -0.104449  0.001371  3.912683  0.002
C  C49  1  0.08253025  0.78899018  0.14924150  1  -0.032553  0.001999  -0.074307  -0.104478  0.001371  3.912667  0.002
C  C50  1  0.58252963  0.71100719  0.64923959  1  -0.032309  0.001999  -0.074258  -0.1044  0.001371  3.912595  0.002
C  C51  1  0.91746559  0.21101267  0.85075997  1  -0.032558  0.001999  -0.074269  -0.104391  0.001371  3.912571  0.002
C  C52  1  0.26547966  0.49216010  0.41247337  1  0.366312  0.000848  0.105165  0.254056  0.000446  3.992024  0.001
C  C53  1  0.23451972  0.99215951  0.08752746  1  0.366241  0.000848  0.105186  0.254063  0.000446  3.991998  0.001
C  C54  1  0.73451750  0.50784086  0.58752484  1  0.365537  0.000848  0.105283  0.254104  0.000446  3.9919  0.001
C  C55  1  0.76547991  0.00784146  0.91247439  1  0.365948  0.000848  0.1052  0.254048  0.000446  3.991898  0.001
C  C56  1  0.42769542  0.29914539  0.43027828  1  -0.004065  0.001802  -0.023932  -0.030941  0.001536  4.031641  0.001
C  C57  1  0.07230364  0.79914370  0.06972197  1  -0.004047  0.001802  -0.02392  -0.030919  0.001537  4.031666  0.001
C  C58  1  0.57230175  0.70085369  0.56971937  1  -0.004005  0.001802  -0.02397  -0.030953  0.001536  4.031541  0.001
C  C59  1  0.92769598  0.20085821  0.93027987  1  -0.004004  0.001802  -0.02397  -0.030917  0.001536  4.031666  0.001
C  C60  1  0.35238657  0.39938286  0.46185510  1  0.011908  0.00041  -0.076511  -0.170652  0.000202  3.874827  0.001
C  C61  1  0.14761394  0.89938125  0.03814472  1  0.012219  0.00041  -0.07652  -0.170657  0.000202  3.874819  0.001
C  C62  1  0.64761312  0.60061810  0.53814337  1  0.012451  0.000411  -0.076534  -0.170654  0.000202  3.87475  0.001
C  C63  1  0.85238444  0.10061971  0.96185644  1  0.012038  0.000411  -0.076493  -0.170612  0.000202  3.874732  0.001
C  C64  1  0.51942664  0.20273281  0.48249178  1  1.427716  -0.003384  0.188051  0.523115  -0.004921  4.196951  -0.007
C  C65  1  0.98057432  0.70273153  0.01750785  1  1.427727  -0.003384  0.188036  0.523094  -0.004921  4.196978  -0.007
C  C66  1  0.48057310  0.79726533  0.51750388  1  1.427674  -0.003383  0.187949  0.523002  -0.004919  4.19687  -0.007
C  C67  1  0.01942528  0.29726850  0.98249512  1  1.427648  -0.003382  0.187982  0.523016  -0.00492  4.196863  -0.007
C  C68  1  0.14653707  0.60854773  0.50910609  1  1.411693  0.000232  0.240697  0.464678  0.0001  4.115195  0.0
C  C69  1  0.35346470  0.10855027  0.99089779  1  1.411576  0.000232  0.240666  0.464699  0.0001  4.114999  0.0
C  C70  1  0.85346140  0.39145701  0.49088944  1  1.411159  0.000232  0.240551  0.464416  0.0001  4.115321  0.0
C  C71  1  0.64654123  0.89144881  0.00910526  1  1.411689  0.000232  0.240709  0.464711  0.0001  4.114865  0.0
C  C72  1  0.04446114  0.72333413  0.51919837  1  -0.045616  -0.003847  0.014001  0.025035  -0.004377  3.944523  -0.002
C  C73  1  0.45553711  0.22333395  0.98080119  1  -0.045724  -0.003847  0.014016  0.02507  -0.004377  3.944553  -0.002
C  C74  1  0.95553856  0.27666684  0.48079954  1  -0.045661  -0.003847  0.014012  0.02506  -0.004377  3.944573  -0.002
C  C75  1  0.54446506  0.77666325  0.01920035  1  -0.045658  -0.003847  0.013949  0.024962  -0.004377  3.944659  -0.002
C  C76  1  0.94013377  0.78796737  0.45840241  1  0.061795  0.006335  -0.070147  -0.146622  0.004145  3.925742  0.005
C  C77  1  0.55986606  0.28796505  0.04159766  1  0.061777  0.006335  -0.070152  -0.14664  0.004146  3.925778  0.005
C  C78  1  0.05986341  0.21203454  0.54159468  1  0.061789  0.006335  -0.070116  -0.146575  0.004146  3.925683  0.005
C  C79  1  0.44013608  0.71203403  0.95840501  1  0.061823  0.006335  -0.070099  -0.146555  0.004146  3.925686  0.005
C  C80  1  0.04588468  0.76159532  0.59489777  1  -0.037171  0.004983  -0.066067  -0.121254  0.003432  3.914064  0.004
C  C81  1  0.45411616  0.26159139  0.90510205  1  -0.037095  0.004982  -0.0661  -0.121322  0.003432  3.914159  0.004
C  C82  1  0.95411751  0.23840564  0.40510208  1  -0.037194  0.004983  -0.066123  -0.121303  0.003432  3.91418  0.004
C  C83  1  0.54588601  0.73840580  0.09489893  1  -0.037202  0.004982  -0.066035  -0.121185  0.003432  3.914152  0.004
C  C84  1  0.84102266  0.88662339  0.47523313  1  0.439783  -0.000152  0.049772  0.100298  -0.000318  3.920368  0.0
C  C85  1  0.65897608  0.38662117  0.02476682  1  0.43985  -0.000152  0.04977  0.10029  -0.000317  3.920453  0.0
C  C86  1  0.15897703  0.11337852  0.52476534  1  0.439924  -0.000152  0.049806  0.10031  -0.000318  3.920391  0.0
C  C87  1  0.34102605  0.61337697  0.97523641  1  0.439813  -0.000153  0.049759  0.100276  -0.000318  3.920349  0.0
C  C88  1  0.94381274  0.86071485  0.60738590  1  0.459275  -0.001607  0.049489  0.093508  -0.002111  3.92702  -0.001
C  C89  1  0.55618779  0.36071148  0.89261361  1  0.459211  -0.001607  0.049588  0.093625  -0.002111  3.92694  -0.001
C  C90  1  0.05618693  0.13928517  0.39261313  1  0.459372  -0.001606  0.049572  0.093608  -0.002111  3.926927  -0.001
C  C91  1  0.44381562  0.63928760  0.10738919  1  0.459382  -0.001606  0.049631  0.09374  -0.00211  3.926842  -0.001
N  N92  1  0.84221786  0.92199894  0.54832634  1  -1.206252  0.079008  -0.359408  -0.261289  0.053166  3.68598  0.068
N  N93  1  0.65778022  0.42199659  0.95167405  1  -1.206217  0.079011  -0.359429  -0.261285  0.053168  3.685957  0.068
N  N94  1  0.15778055  0.07800202  0.45167257  1  -1.206381  0.079013  -0.359477  -0.261301  0.05317  3.685919  0.068
N  N95  1  0.34222191  0.57800060  0.04832918  1  -1.206366  0.079013  -0.35953  -0.26145  0.05317  3.685928  0.068
N  N96  1  0.18478130  0.59535489  0.43828861  1  -1.252674  -2e-06  -0.388958  -0.365652  -0.000142  3.578311  0.0
N  N97  1  0.31521614  0.09535375  0.06171262  1  -1.252846  -2e-06  -0.388945  -0.365661  -0.000142  3.578244  0.0
N  N98  1  0.81521588  0.40464608  0.56170847  1  -1.252709  -2e-06  -0.389012  -0.365623  -0.000142  3.578317  0.0
N  N99  1  0.68478474  0.90464721  0.93828992  1  -1.252748  -2e-06  -0.388997  -0.36572  -0.000142  3.578311  0.0
O  O100  1  0.23168684  0.46272276  0.17692006  1  -1.10962  0.114961  -0.33257  -0.534078  0.074014  2.362685  0.102
O  O101  1  0.26831376  0.96272119  0.32308033  1  -1.109577  0.114962  -0.332554  -0.534036  0.074015  2.362717  0.102
O  O102  1  0.76831026  0.53727914  0.82308153  1  -1.109544  0.114964  -0.332566  -0.534023  0.074016  2.362683  0.102
O  O103  1  0.73168592  0.03728072  0.67691814  1  -1.109561  0.114967  -0.332532  -0.533964  0.074018  2.362701  0.102
O  O104  1  0.59146864  0.10813648  0.45619309  1  -1.114166  0.112565  -0.320687  -0.552742  0.072516  2.281997  0.101
O  O105  1  0.90852964  0.60813418  0.04380628  1  -1.114173  0.112569  -0.320664  -0.552716  0.072518  2.28195  0.101
O  O106  1  0.40853110  0.89186260  0.54380257  1  -1.113983  0.112565  -0.320627  -0.552697  0.072515  2.281908  0.101
O  O107  1  0.09147246  0.39186490  0.95619864  1  -1.114005  0.112563  -0.320624  -0.552679  0.072514  2.282021  0.101
O  O108  1  0.38143408  0.28072348  0.18791589  1  -1.188895  0.001256  -0.319062  -0.566142  -0.00022  2.181134  0.002
O  O109  1  0.11856623  0.78072082  0.31208392  1  -1.188755  0.001256  -0.319061  -0.566128  -0.00022  2.181184  0.002
O  O110  1  0.61856306  0.71927843  0.81208345  1  -1.188748  0.001256  -0.319038  -0.566069  -0.00022  2.181143  0.002
O  O111  1  0.88143597  0.21927826  0.68791537  1  -1.188773  0.001256  -0.319072  -0.56606  -0.00022  2.181202  0.002
O  O112  1  0.53320329  0.20762237  0.55583654  1  -1.065543  0.117461  -0.304821  -0.481062  0.075902  2.209248  0.104
O  O113  1  0.96679698  0.70762095  0.94416296  1  -1.065535  0.117459  -0.304826  -0.481073  0.075901  2.209282  0.104
O  O114  1  0.46679770  0.79237671  0.44415980  1  -1.0657  0.117459  -0.304741  -0.480979  0.075901  2.209154  0.104
O  O115  1  0.03320263  0.29237719  0.05584001  1  -1.065678  0.117462  -0.304771  -0.481017  0.075903  2.209099  0.104
O  O116  1  0.18711828  0.53320410  0.56341467  1  -1.11685  -0.000273  -0.289434  -0.467659  -0.000363  2.100801  0.0
O  O117  1  0.31288466  0.03320097  0.93658764  1  -1.116565  -0.000273  -0.289425  -0.467685  -0.000363  2.100638  0.0
O  O118  1  0.81288019  0.46679498  0.43658142  1  -1.116373  -0.000272  -0.289261  -0.46744  -0.000362  2.100886  0.0
O  O119  1  0.68712126  0.96679623  0.06341598  1  -1.11682  -0.000273  -0.289433  -0.467677  -0.000363  2.100559  0.0
