# generated using pymatgen
data_DyH3C4O9
_symmetry_space_group_name_H-M   'P 1'
_cell_length_a   10.65555163
_cell_length_b   9.93607157
_cell_length_c   12.00054632
_cell_angle_alpha   90.00087530
_cell_angle_beta   107.43207962
_cell_angle_gamma   90.00050029
_symmetry_Int_Tables_number   1
_chemical_formula_structural   DyH3C4O9
_chemical_formula_sum   'Dy4 H12 C16 O36'
_cell_volume   1212.19686529
_cell_formula_units_Z   4
loop_
 _symmetry_equiv_pos_site_id
 _symmetry_equiv_pos_as_xyz
  1  'x, y, z'
loop_
 _atom_site_type_symbol
 _atom_site_label
 _atom_site_symmetry_multiplicity
 _atom_site_fract_x
 _atom_site_fract_y
 _atom_site_fract_z
 _atom_site_occupancy
 _atom_site_hle17_bader_spin_density
 _atom_site_hle17_ddec_charge
 _atom_site_hle17_ddec_spin_density
 _atom_site_hle17_ddec_sum_bond_order
 _atom_site_hle17_magmom
 _atom_site_hse06_10hf_bader_spin_density
 _atom_site_hse06_10hf_ddec_charge
 _atom_site_hse06_10hf_ddec_spin_density
 _atom_site_hse06_10hf_ddec_sum_bond_order
 _atom_site_hse06_10hf_magmom
 _atom_site_hse06_bader_spin_density
 _atom_site_hse06_ddec_charge
 _atom_site_hse06_ddec_spin_density
 _atom_site_hse06_ddec_sum_bond_order
 _atom_site_hse06_magmom
 _atom_site_pbe_bader_spin_density
 _atom_site_pbe_cm5_charge
 _atom_site_pbe_ddec_charge
 _atom_site_pbe_ddec_spin_density
 _atom_site_pbe_ddec_sum_bond_order
 _atom_site_pbe_magmom
Dy  Dy0  1  0.20577905  0.57064941  0.88521806  1  0  2.188639  0  1.661422  0  0  2.02679  0  2.155139  0  0  2.072735  0  2.11785  0  0  1.527819  1.990839  0  2.186395  0
Dy  Dy1  1  0.29422748  0.07064766  0.61478522  1  0  2.188624  0  1.661375  0  0  2.026803  0  2.155039  0  0  2.072738  0  2.117779  0  0  1.527828  1.990853  0  2.186295  0
Dy  Dy2  1  0.79419622  0.42934787  0.11476764  1  0  2.188742  0  1.661308  0  0  2.02699  0  2.154832  0  0  2.072918  0  2.117561  0  0  1.527883  1.991043  0  2.186079  0
Dy  Dy3  1  0.70580815  0.92935466  0.38522816  1  0  2.188781  0  1.661301  0  0  2.027087  0  2.154728  0  0  2.07291  0  2.11761  0  0  1.527902  1.991142  0  2.185973  0
H  H4  1  0.09254257  0.75713204  0.66105932  1  0  0.449005  0  0.842715  0  0  0.415748  0  0.907975  0  0  0.427278  0  0.891364  0  0  0.308397  0.407605  0  0.919678  0
H  H5  1  0.40745421  0.25713034  0.83894522  1  0  0.448989  0  0.842719  0  0  0.41572  0  0.907981  0  0  0.427249  0  0.891372  0  0  0.308435  0.407578  0  0.919682  0
H  H6  1  0.90745687  0.24286322  0.33893780  1  0  0.448959  0  0.842778  0  0  0.415738  0  0.907991  0  0  0.427267  0  0.89138  0  0  0.308379  0.407594  0  0.919695  0
H  H7  1  0.59254572  0.74286996  0.16105701  1  0  0.449006  0  0.842709  0  0  0.415721  0  0.908021  0  0  0.42725  0  0.89141  0  0  0.308367  0.407576  0  0.919725  0
H  H8  1  0.13160759  0.55001506  0.61215824  1  0  0.408808  0  0.867916  0  0  0.376296  0  0.950024  0  0  0.388327  0  0.937265  0  0  0.315177  0.367859  0  0.958865  0
H  H9  1  0.36839781  0.05001620  0.88784967  1  0  0.408868  0  0.867919  0  0  0.376354  0  0.950032  0  0  0.388387  0  0.937272  0  0  0.315193  0.367917  0  0.958874  0
H  H10  1  0.86842265  0.44999228  0.38783903  1  0  0.408869  0  0.8677  0  0  0.376481  0  0.949675  0  0  0.388516  0  0.936904  0  0  0.315225  0.368045  0  0.958518  0
H  H11  1  0.63154706  0.94998611  0.11215016  1  0  0.408707  0  0.867794  0  0  0.376499  0  0.949551  0  0  0.388539  0  0.936765  0  0  0.315221  0.368062  0  0.958394  0
H  H12  1  0.98339639  0.66172338  0.68411844  1  0  0.470524  0  0.765528  0  0  0.448277  0  0.820844  0  0  0.457621  0  0.809981  0  0  0.346225  0.441582  0  0.828673  0
H  H13  1  0.51660443  0.16172448  0.81589366  1  0  0.470526  0  0.765587  0  0  0.448282  0  0.820899  0  0  0.457626  0  0.810038  0  0  0.346225  0.441588  0  0.828727  0
H  H14  1  0.01658932  0.33826887  0.31585592  1  0  0.470565  0  0.765563  0  0  0.448319  0  0.820885  0  0  0.457665  0  0.810017  0  0  0.34623  0.441623  0  0.828716  0
H  H15  1  0.48340816  0.83826375  0.18415034  1  0  0.470533  0  0.765473  0  0  0.448291  0  0.820799  0  0  0.457636  0  0.809929  0  0  0.346219  0.441595  0  0.828632  0
C  C16  1  0.34486755  0.81686949  0.80144571  1  0  0.588696  0  3.947392  0  0  0.545985  0  4.243701  0  0  0.577282  0  4.233084  0  0  0.230378  0.524768  0  4.250082  0
C  C17  1  0.15513369  0.31687170  0.69855683  1  0  0.588653  0  3.9472  0  0  0.54592  0  4.243651  0  0  0.577211  0  4.233045  0  0  0.230308  0.524702  0  4.250034  0
C  C18  1  0.65511474  0.18313887  0.19856310  1  0  0.589312  0  3.947434  0  0  0.546437  0  4.243808  0  0  0.577747  0  4.233152  0  0  0.230441  0.525207  0  4.250215  0
C  C19  1  0.84487457  0.68313665  0.30143197  1  0  0.589244  0  3.947325  0  0  0.546356  0  4.243746  0  0  0.577666  0  4.233096  0  0  0.230427  0.525123  0  4.250156  0
C  C20  1  0.28493870  0.87650538  0.89423577  1  0  0.559246  0  3.779374  0  0  0.508753  0  4.088748  0  0  0.539263  0  4.076736  0  0  0.249045  0.488001  0  4.096352  0
C  C21  1  0.21507060  0.37650830  0.60577216  1  0  0.559378  0  3.779366  0  0  0.508764  0  4.088969  0  0  0.539276  0  4.076958  0  0  0.249107  0.488012  0  4.096573  0
C  C22  1  0.71501198  0.12349693  0.10575432  1  0  0.558221  0  3.780357  0  0  0.508135  0  4.089287  0  0  0.538633  0  4.077283  0  0  0.248924  0.487388  0  4.09689  0
C  C23  1  0.78496944  0.62350509  0.39423707  1  0  0.558485  0  3.780149  0  0  0.508366  0  4.089107  0  0  0.538864  0  4.077098  0  0  0.249005  0.487621  0  4.096712  0
C  C24  1  0.49546462  0.44031358  0.95777283  1  0  0.583802  0  3.889737  0  0  0.539884  0  4.18213  0  0  0.570737  0  4.171839  0  0  0.231485  0.518895  0  4.188287  0
C  C25  1  0.00454167  0.94031392  0.54221412  1  0  0.583548  0  3.889739  0  0  0.539559  0  4.182328  0  0  0.570412  0  4.172034  0  0  0.231338  0.518579  0  4.188469  0
C  C26  1  0.50451342  0.55970081  0.04220170  1  0  0.583319  0  3.890301  0  0  0.539391  0  4.182696  0  0  0.570244  0  4.172413  0  0  0.231363  0.518414  0  4.188833  0
C  C27  1  0.99549976  0.05969846  0.45778952  1  0  0.583506  0  3.890309  0  0  0.539487  0  4.182913  0  0  0.570342  0  4.172622  0  0  0.231442  0.518506  0  4.189051  0
C  C28  1  0.94717663  0.53973452  0.95222341  1  0  0.575862  0  3.925955  0  0  0.53526  0  4.219854  0  0  0.56543  0  4.210633  0  0  0.226917  0.515007  0  4.224883  0
C  C29  1  0.55282965  0.03973663  0.54778293  1  0  0.57553  0  3.926101  0  0  0.535001  0  4.21994  0  0  0.565173  0  4.210721  0  0  0.226825  0.514749  0  4.224967  0
C  C30  1  0.05279831  0.46024263  0.04775888  1  0  0.576473  0  3.925222  0  0  0.535637  0  4.219394  0  0  0.565832  0  4.210144  0  0  0.226996  0.51535  0  4.224465  0
C  C31  1  0.44720860  0.96024052  0.45224768  1  0  0.576492  0  3.925099  0  0  0.535557  0  4.219379  0  0  0.56574  0  4.210147  0  0  0.226976  0.515271  0  4.22445  0
O  O32  1  0.34302323  0.69048948  0.79546982  1  0  -0.63225  0  2.022072  0  0  -0.590257  0  2.253589  0  0  -0.613684  0  2.24518  0  0  -0.362077  -0.573714  0  2.259052  0
O  O33  1  0.15697712  0.19048984  0.70453237  1  0  -0.632256  0  2.021971  0  0  -0.590247  0  2.253506  0  0  -0.613671  0  2.245102  0  0  -0.362048  -0.573703  0  2.258968  0
O  O34  1  0.65695440  0.30951987  0.20453055  1  0  -0.632481  0  2.021917  0  0  -0.590481  0  2.253475  0  0  -0.613911  0  2.245053  0  0  -0.362141  -0.573934  0  2.258947  0
O  O35  1  0.84303188  0.80951650  0.29545407  1  0  -0.632439  0  2.021856  0  0  -0.590438  0  2.253424  0  0  -0.613851  0  2.245007  0  0  -0.362146  -0.573892  0  2.258897  0
O  O36  1  0.38599071  0.89843884  0.73981072  1  0  -0.672533  0  2.062751  0  0  -0.625691  0  2.306997  0  0  -0.649283  0  2.295709  0  0  -0.396002  -0.608827  0  2.314166  0
O  O37  1  0.11400751  0.39844026  0.76019522  1  0  -0.672526  0  2.062686  0  0  -0.625657  0  2.306959  0  0  -0.649246  0  2.295669  0  0  -0.395996  -0.608792  0  2.31413  0
O  O38  1  0.61402270  0.10157152  0.26022173  1  0  -0.672692  0  2.062665  0  0  -0.625845  0  2.306975  0  0  -0.649422  0  2.295678  0  0  -0.396037  -0.608977  0  2.314152  0
O  O39  1  0.88597707  0.60155903  0.23978728  1  0  -0.67262  0  2.062717  0  0  -0.62575  0  2.307039  0  0  -0.649346  0  2.29574  0  0  -0.395945  -0.608881  0  2.314217  0
O  O40  1  0.20980563  0.80550039  0.93035615  1  0  -0.56608  0  2.014372  0  0  -0.524326  0  2.241791  0  0  -0.544081  0  2.231899  0  0  -0.321983  -0.510394  0  2.248315  0
O  O41  1  0.29020580  0.30550344  0.56965581  1  0  -0.566107  0  2.014346  0  0  -0.524305  0  2.241833  0  0  -0.544061  0  2.231941  0  0  -0.321979  -0.510373  0  2.248357  0
O  O42  1  0.79014414  0.19449085  0.06962456  1  0  -0.565592  0  2.014335  0  0  -0.523935  0  2.241511  0  0  -0.543686  0  2.231626  0  0  -0.321802  -0.510005  0  2.248031  0
O  O43  1  0.70984143  0.69450592  0.43036820  1  0  -0.565838  0  2.014489  0  0  -0.524184  0  2.241696  0  0  -0.543919  0  2.231811  0  0  -0.321898  -0.510253  0  2.248217  0
O  O44  1  0.31577321  0.99933699  0.93241398  1  0  -0.457537  0  2.083189  0  0  -0.409866  0  2.283662  0  0  -0.430172  0  2.268809  0  0  -0.29489  -0.395953  0  2.293654  0
O  O45  1  0.18424332  0.49933716  0.56760137  1  0  -0.457496  0  2.083333  0  0  -0.409795  0  2.283887  0  0  -0.430099  0  2.269035  0  0  -0.294862  -0.395884  0  2.293879  0
O  O46  1  0.68414585  0.00067740  0.06756743  1  0  -0.457125  0  2.083491  0  0  -0.409892  0  2.283589  0  0  -0.430198  0  2.268734  0  0  -0.294989  -0.39598  0  2.29358  0
O  O47  1  0.81582090  0.50068327  0.43241927  1  0  -0.457272  0  2.083233  0  0  -0.409885  0  2.283536  0  0  -0.430191  0  2.268683  0  0  -0.295009  -0.395976  0  2.29353  0
O  O48  1  0.38053307  0.41040006  0.89158722  1  0  -0.671411  0  2.037898  0  0  -0.61412  0  2.267687  0  0  -0.64011  0  2.257954  0  0  -0.349138  -0.595871  0  2.273944  0
O  O49  1  0.11946927  0.91040097  0.60840792  1  0  -0.671363  0  2.037701  0  0  -0.614045  0  2.267533  0  0  -0.640038  0  2.257803  0  0  -0.349116  -0.595801  0  2.273786  0
O  O50  1  0.61944529  0.58960728  0.10839072  1  0  -0.671439  0  2.038059  0  0  -0.614149  0  2.267862  0  0  -0.640138  0  2.258128  0  0  -0.349194  -0.595904  0  2.274115  0
O  O51  1  0.88056832  0.08961040  0.39160585  1  0  -0.671439  0  2.038077  0  0  -0.614118  0  2.267893  0  0  -0.640092  0  2.258159  0  0  -0.349099  -0.595873  0  2.274148  0
O  O52  1  0.59981148  0.37995114  0.96050296  1  0  -0.637249  0  2.051397  0  0  -0.589847  0  2.285822  0  0  -0.613218  0  2.277041  0  0  -0.356641  -0.573592  0  2.291751  0
O  O53  1  0.90019169  0.87994889  0.53947623  1  0  -0.637079  0  2.05146  0  0  -0.589638  0  2.28591  0  0  -0.612995  0  2.277137  0  0  -0.356576  -0.573387  0  2.29183  0
O  O54  1  0.40016771  0.62006325  0.03947347  1  0  -0.636855  0  2.051748  0  0  -0.589427  0  2.286151  0  0  -0.612804  0  2.277381  0  0  -0.356472  -0.573174  0  2.292066  0
O  O55  1  0.09985023  0.12005544  0.46051246  1  0  -0.636939  0  2.051693  0  0  -0.589478  0  2.286154  0  0  -0.612856  0  2.277384  0  0  -0.356577  -0.573225  0  2.292072  0
O  O56  1  0.98705629  0.59936442  0.87598139  1  0  -0.651003  0  2.018345  0  0  -0.60576  0  2.253638  0  0  -0.62851  0  2.241924  0  0  -0.384208  -0.589152  0  2.260901  0
O  O57  1  0.51295126  0.09936312  0.62402986  1  0  -0.650889  0  2.018304  0  0  -0.605665  0  2.253559  0  0  -0.628415  0  2.241848  0  0  -0.384245  -0.589057  0  2.26082  0
O  O58  1  0.01291758  0.40060971  0.12399985  1  0  -0.651055  0  2.018313  0  0  -0.60578  0  2.253725  0  0  -0.628533  0  2.241997  0  0  -0.384155  -0.589163  0  2.261004  0
O  O59  1  0.48708837  0.90060900  0.37600521  1  0  -0.651066  0  2.018211  0  0  -0.605766  0  2.253659  0  0  -0.628498  0  2.24194  0  0  -0.384174  -0.589149  0  2.260938  0
O  O60  1  0.83096336  0.53773650  0.95888233  1  0  -0.645817  0  1.999185  0  0  -0.603356  0  2.231008  0  0  -0.625344  0  2.219815  0  0  -0.387565  -0.587968  0  2.238517  0
O  O61  1  0.66904261  0.03774414  0.54112142  1  0  -0.645695  0  1.999351  0  0  -0.603267  0  2.23114  0  0  -0.625235  0  2.21995  0  0  -0.387476  -0.587878  0  2.238649  0
O  O62  1  0.16901484  0.46224669  0.04110394  1  0  -0.646168  0  1.998689  0  0  -0.603632  0  2.230631  0  0  -0.62563  0  2.219426  0  0  -0.387656  -0.588236  0  2.238159  0
O  O63  1  0.33099310  0.96224006  0.45890284  1  0  -0.646095  0  1.998787  0  0  -0.603532  0  2.230774  0  0  -0.625527  0  2.219581  0  0  -0.387625  -0.588136  0  2.2383  0
O  O64  1  0.07610682  0.66425576  0.68713020  1  0  -0.89089  0  1.920284  0  0  -0.833912  0  2.116398  0  0  -0.854413  0  2.087136  0  0  -0.582992  -0.81922  0  2.136679  0
O  O65  1  0.42389428  0.16425111  0.81287779  1  0  -0.890894  0  1.920365  0  0  -0.833906  0  2.116555  0  0  -0.854406  0  2.08729  0  0  -0.58306  -0.819218  0  2.136838  0
O  O66  1  0.92388494  0.33573951  0.31285705  1  0  -0.890902  0  1.920247  0  0  -0.833989  0  2.116239  0  0  -0.854491  0  2.086969  0  0  -0.582984  -0.819298  0  2.136525  0
O  O67  1  0.57610909  0.83574416  0.18714016  1  0  -0.890819  0  1.920188  0  0  -0.833948  0  2.11624  0  0  -0.85444  0  2.086971  0  0  -0.582943  -0.819256  0  2.136523  0
