# generated using pymatgen
data_Al3H21C48NO16
_symmetry_space_group_name_H-M   'P 1'
_cell_length_a   12.44094716
_cell_length_b   12.39710571
_cell_length_c   27.80622172
_cell_angle_alpha   88.81422020
_cell_angle_beta   89.49487708
_cell_angle_gamma   60.76627675
_symmetry_Int_Tables_number   1
_chemical_formula_structural   Al3H21C48NO16
_chemical_formula_sum   'Al6 H42 C96 N2 O32'
_cell_volume   3741.57763607
_cell_formula_units_Z   2
loop_
 _symmetry_equiv_pos_site_id
 _symmetry_equiv_pos_as_xyz
  1  'x, y, z'
loop_
 _atom_site_type_symbol
 _atom_site_label
 _atom_site_symmetry_multiplicity
 _atom_site_fract_x
 _atom_site_fract_y
 _atom_site_fract_z
 _atom_site_occupancy
 _atom_site_pbe_bader_charge
 _atom_site_pbe_bader_spin_density
 _atom_site_pbe_cm5_charge
 _atom_site_pbe_ddec_charge
 _atom_site_pbe_ddec_spin_density
 _atom_site_pbe_ddec_sum_bond_order
 _atom_site_pbe_magmom
Al  Al0  1  0.58915709  0.81105159  0.50392508  1  2.497411  0  0.395669  1.684754  0  2.562369  0
Al  Al1  1  0.34360142  0.07627980  0.50044993  1  2.481404  0  0.506216  1.661954  0  2.506211  0
Al  Al2  1  0.58618787  0.07208180  0.50012362  1  2.484163  0  0.50724  1.662168  0  2.506041  0
Al  Al3  1  0.08387245  0.84100038  0.01606682  1  2.496305  0  0.393919  1.687313  0  2.559697  0
Al  Al4  1  0.08733642  0.58039201  0.01688198  1  2.48223  0  0.508141  1.662601  0  2.505921  0
Al  Al5  1  0.33061830  0.57527232  0.01675584  1  2.484453  0  0.50771  1.662688  0  2.504257  0
H  H6  1  0.17062065  0.29034225  0.78935506  1  0.076293  0  0.105408  0.095324  0  0.986264  0
H  H7  1  0.14023094  0.46965345  0.71775885  1  0.090399  0  0.1049  0.095563  0  0.9918  0
H  H8  1  0.38758738  0.11531708  0.74229952  1  0.069348  0  0.099931  0.086552  0  1.02456  0
H  H9  1  0.52870284  0.18841012  0.79931068  1  0.067916  0  0.105428  0.096625  0  0.990868  0
H  H10  1  0.49819476  0.36773356  0.72769129  1  0.082223  0  0.105519  0.094946  0  0.986251  0
H  H11  1  0.28129073  0.54269521  0.77473279  1  0.101501  0  0.099777  0.086143  0  1.020973  0
H  H12  1  0.80333514  0.02597638  0.79458412  1  0.078268  0  0.104512  0.094149  0  0.987163  0
H  H13  1  0.98398363  0.88967335  0.72416038  1  0.071394  0  0.102115  0.092431  0  0.999175  0
H  H14  1  0.62673889  0.99733082  0.74021133  1  0.065307  0  0.098694  0.085595  0  1.016818  0
H  H15  1  0.68789097  0.77611161  0.79352792  1  0.069759  0  0.102401  0.092784  0  0.99889  0
H  H16  1  0.86872583  0.63962649  0.72314503  1  0.065855  0  0.103846  0.092724  0  0.988975  0
H  H17  1  0.04527586  0.66837330  0.77749374  1  0.074201  0  0.098438  0.084526  0  1.016918  0
H  H18  1  0.53891528  0.66741819  0.78256059  1  0.108417  0  0.103249  0.092068  0  0.990783  0
H  H19  1  0.37508880  0.64430983  0.71841922  1  0.078551  0  0.103197  0.092994  0  0.994639  0
H  H20  1  0.48671890  0.89270949  0.73519132  1  0.064207  0  0.100079  0.087411  0  1.01224  0
H  H21  1  0.29059971  0.02311885  0.80141208  1  0.06287  0  0.103636  0.094115  0  0.994274  0
H  H22  1  0.12666450  0.00002615  0.73734241  1  0.046106  0  0.103149  0.091757  0  0.991485  0
H  H23  1  0.17911818  0.77444205  0.78474076  1  0.066334  0  0.100509  0.087896  0  1.011567  0
H  H24  1  0.11388297  0.42513649  0.14403931  1  0.073385  0  0.112346  0.119839  0  1.002267  0
H  H25  1  0.18016087  0.31862950  0.38531688  1  0.100174  0  0.115672  0.12524  0  0.983857  0
H  H26  1  0.02483009  0.41486322  0.22418099  1  0.081297  0  0.103769  0.107377  0  1.01469  0
H  H27  1  0.04603761  0.38482544  0.31182643  1  0.071249  0  0.105112  0.1122  0  1.002164  0
H  H28  1  0.49254759  0.33881282  0.13366727  1  0.103461  0  0.114585  0.12276  0  0.98714  0
H  H29  1  0.62706462  0.26934457  0.20672763  1  0.050389  0  0.10899  0.111743  0  0.984951  0
H  H30  1  0.64802509  0.24019073  0.29492808  1  0.083863  0  0.104869  0.104587  0  1.01268  0
H  H31  1  0.55912368  0.23114560  0.37443971  1  0.109026  0  0.112389  0.119625  0  1.002724  0
H  H32  1  0.92744774  0.94145908  0.13752865  1  0.133825  0  0.124844  0.13864  0  0.976168  0
H  H33  1  0.78509947  0.02825123  0.37405673  1  0.100233  0  0.112168  0.117939  0  0.995173  0
H  H34  1  0.90119798  0.05946677  0.21218704  1  0.077465  0  0.11286  0.119234  0  0.980241  0
H  H35  1  0.85395322  0.08663873  0.29939982  1  0.060408  0  0.109304  0.111121  0  0.986232  0
H  H36  1  0.87759849  0.62225296  0.14024818  1  0.103186  0  0.114393  0.121299  0  0.989522  0
H  H37  1  0.81702212  0.55683894  0.21623605  1  0.10774  0  0.120135  0.128444  0  0.991398  0
H  H38  1  0.73666690  0.70914942  0.37966679  1  0.172104  0  0.119404  0.137917  0  1.026156  0
H  H39  1  0.42308206  0.58030349  0.15406387  1  0.103743  0  0.107953  0.115391  0  1.014795  0
H  H40  1  0.47119481  0.68190197  0.38943371  1  0.096363  0  0.120324  0.133802  0  0.973768  0
H  H41  1  0.49710751  0.49916300  0.23658464  1  0.066759  0  0.093842  0.095213  0  1.061261  0
H  H42  1  0.51086766  0.53507003  0.32272403  1  0.064341  0  0.106533  0.111212  0  0.996376  0
H  H43  1  0.20166391  0.12129982  0.19235784  1  0.084653  0  0.103618  0.111042  0  1.026756  0
H  H44  1  0.21416246  0.15485563  0.27792647  1  0.085562  0  0.094832  0.095192  0  1.065568  0
H  H45  1  0.26935750  0.07392609  0.36178535  1  0.073086  0  0.104881  0.110081  0  1.023459  0
H  H46  1  0.68156371  0.61002516  0.53687641  1  0.588819  0  0.291551  0.381447  0  0.925164  0
H  H47  1  0.03258132  0.04690739  0.99759178  1  0.575533  0  0.293982  0.386438  0  0.918033  0
C  C48  1  0.36966800  0.90232629  0.56970402  1  1.683009  0  0.277424  0.714054  0  4.162415  0
C  C49  1  0.39724038  0.21058738  0.56946923  1  1.626108  0  0.281043  0.720575  0  4.150739  0
C  C50  1  0.72460479  0.89920665  0.56940262  1  1.661204  0  0.27747  0.715603  0  4.162283  0
C  C51  1  0.38418539  0.90273456  0.43143627  1  1.577004  0  0.273339  0.641396  0  4.089727  0
C  C52  1  0.39455490  0.22591592  0.43532165  1  1.535289  0  0.280698  0.649699  0  4.069904  0
C  C53  1  0.71466039  0.89415219  0.43155478  1  1.561574  0  0.274247  0.637093  0  4.088269  0
C  C54  1  0.22629139  0.40728097  0.73633251  1  -0.036533  0  -0.067444  -0.077061  0  3.626588  0
C  C55  1  0.24341606  0.30739167  0.77528170  1  -0.025763  0  -0.069177  -0.080194  0  3.632545  0
C  C56  1  0.29601068  0.39356036  0.90033276  1  0.011669  0  -0.040352  -0.20224  0  3.95769  0
C  C57  1  0.37378722  0.26015589  0.61711315  1  0.290502  0  -0.04214  -0.203221  0  3.961057  0
C  C58  1  0.30493217  0.44754062  0.76698701  1  -0.071055  0  -0.067402  -0.076229  0  3.625386  0
C  C59  1  0.32160321  0.34791673  0.80747839  1  0.129986  0  0.009949  0.119563  0  3.779811  0
C  C60  1  0.42545585  0.35058901  0.74175842  1  -0.027571  0  -0.06912  -0.078558  0  3.630467  0
C  C61  1  0.34732068  0.30992501  0.70959795  1  0.11313  0  0.009705  0.117974  0  3.783264  0
C  C62  1  0.44264238  0.25066857  0.78071671  1  -0.019648  0  -0.067911  -0.078612  0  3.625011  0
C  C63  1  0.36395182  0.21040656  0.75010082  1  -0.034334  0  -0.068076  -0.076541  0  3.626945  0
C  C64  1  0.30837023  0.37099717  0.85747953  1  -0.281636  0  -0.017303  -0.024874  0  4.053477  0
C  C65  1  0.36085486  0.28536279  0.65971926  1  -0.5277  0  -0.018736  -0.026234  0  4.057652  0
C  C66  1  0.91854702  0.86437429  0.74011815  1  -0.023231  0  -0.070002  -0.080274  0  3.631052  0
C  C67  1  0.81766583  0.94057322  0.77815944  1  -0.040252  0  -0.069716  -0.081173  0  3.632094  0
C  C68  1  0.89989169  0.78151994  0.90037736  1  -0.016311  0  -0.041581  -0.195345  0  3.978723  0
C  C69  1  0.77573575  0.88010443  0.61696217  1  0.243434  0  -0.044021  -0.200995  0  3.977827  0
C  C70  1  0.95229846  0.74160989  0.76844326  1  -0.044174  0  -0.069483  -0.077599  0  3.630178  0
C  C71  1  0.85155239  0.81763967  0.80777125  1  0.124007  0  0.008773  0.124823  0  3.803271  0
C  C72  1  0.85435065  0.72505028  0.73955928  1  -0.020547  0  -0.070299  -0.080074  0  3.633959  0
C  C73  1  0.82049547  0.84788308  0.70990827  1  0.130376  0  0.008563  0.12202  0  3.80499  0
C  C74  1  0.75341040  0.80129621  0.77757086  1  -0.035578  0  -0.070405  -0.081542  0  3.631148  0
C  C75  1  0.71971161  0.92405175  0.74923742  1  -0.024261  0  -0.06952  -0.077534  0  3.629207  0
C  C76  1  0.87399558  0.79861721  0.85774333  1  -0.270317  0  -0.027203  -0.043605  0  4.086887  0
C  C77  1  0.79931665  0.86559203  0.65982915  1  -0.548008  0  -0.025794  -0.039704  0  4.083912  0
C  C78  1  0.35635212  0.72793311  0.73751436  1  -0.036116  0  -0.068867  -0.078445  0  3.627003  0
C  C79  1  0.44745347  0.74129449  0.77206606  1  -0.063483  0  -0.070795  -0.082664  0  3.637894  0
C  C80  1  0.33290967  0.77745677  0.90208004  1  0.234404  0  -0.041375  -0.198226  0  3.971115  0
C  C81  1  0.33459828  0.88639568  0.61758849  1  -0.106361  0  -0.042812  -0.199486  0  3.971753  0
C  C82  1  0.24728311  0.80082533  0.77295118  1  -0.023661  0  -0.068093  -0.076698  0  3.624927  0
C  C83  1  0.33900421  0.81354042  0.80880225  1  0.099044  0  0.008754  0.123167  0  3.802564  0
C  C84  1  0.21813923  0.92610328  0.74779561  1  -0.009333  0  -0.071551  -0.084157  0  3.639111  0
C  C85  1  0.32652461  0.85397105  0.71104753  1  0.114616  0  0.008775  0.124244  0  3.800518  0
C  C86  1  0.30927568  0.93945186  0.78236495  1  -0.006836  0  -0.069482  -0.079611  0  3.627823  0
C  C87  1  0.41832609  0.86653731  0.74690821  1  -0.03025  0  -0.068516  -0.078602  0  3.62761  0
C  C88  1  0.33899897  0.79372860  0.85899471  1  -0.47304  0  -0.023706  -0.037107  0  4.078309  0
C  C89  1  0.32684817  0.87269255  0.66078055  1  -0.184974  0  -0.026329  -0.040257  0  4.078954  0
C  C90  1  0.25610973  0.31168797  0.36325454  1  -0.00151  0  -0.07197  -0.134374  0  3.915045  0
C  C91  1  0.23930156  0.33785575  0.31366219  1  -0.019937  0  -0.004627  0.070125  0  4.038056  0
C  C92  1  0.21358619  0.37490073  0.21167181  1  0.04607  0  -0.003456  0.07601  0  4.029543  0
C  C93  1  0.11227195  0.39065104  0.24136913  1  -0.079076  0  -0.083492  -0.121029  0  3.981077  0
C  C94  1  0.12402474  0.37418877  0.29015552  1  -0.022652  0  -0.085954  -0.128811  0  3.992567  0
C  C95  1  0.20195796  0.39585034  0.16171619  1  0.024159  0  -0.071179  -0.130041  0  3.903371  0
C  C96  1  0.30149536  0.38511575  0.13416909  1  0.001174  0  -0.013726  -0.044049  0  4.007162  0
C  C97  1  0.47048992  0.26206710  0.35699762  1  -0.031231  0  -0.072248  -0.131763  0  3.908408  0
C  C98  1  0.45830910  0.28439919  0.30718240  1  0.007084  0  -0.003289  0.076835  0  4.033063  0
C  C99  1  0.34210205  0.32115327  0.28487186  1  -0.038332  0  0.00987  0.00751  0  3.903519  0
C  C100  1  0.56015640  0.26710683  0.27754738  1  -0.016545  0  -0.081424  -0.118041  0  3.987952  0
C  C101  1  0.54837288  0.28361790  0.22879988  1  -0.034306  0  -0.083318  -0.127312  0  3.999799  0
C  C102  1  0.43259708  0.32172822  0.20539800  1  -0.035534  0  -0.003977  0.072647  0  4.036738  0
C  C103  1  0.32947045  0.33916990  0.23411891  1  0.002534  0  0.009576  0.007654  0  3.90229  0
C  C104  1  0.41625031  0.34682138  0.15577274  1  -0.056694  0  -0.072557  -0.136546  0  3.918077  0
C  C105  1  0.37123246  0.27265382  0.38467361  1  -0.058646  0  -0.014969  -0.047431  0  4.013594  0
C  C106  1  0.78728468  0.95057824  0.35552080  1  -0.017732  0  -0.072625  -0.134506  0  3.931229  0
C  C107  1  0.81780733  0.93257123  0.30662794  1  -0.02741  0  -0.004356  0.07636  0  4.030799  0
C  C108  1  0.87320029  0.90008141  0.20686726  1  -0.018864  0  -0.001103  0.075848  0  4.032882  0
C  C109  1  0.87626876  0.99815191  0.23209963  1  -0.019729  0  -0.082192  -0.12479  0  3.99549  0
C  C110  1  0.85018772  0.01290504  0.28002563  1  -0.064506  0  -0.082714  -0.126252  0  4.011707  0
C  C111  1  0.90254719  0.88065904  0.15786322  1  -0.020684  0  -0.057303  -0.111961  0  3.868073  0
C  C112  1  0.90470284  0.78070869  0.13443565  1  0.006711  0  -0.011515  -0.040266  0  4.013205  0
C  C113  1  0.76019444  0.76891003  0.35832306  1  -0.025708  0  -0.074859  -0.134287  0  3.911277  0
C  C114  1  0.78728876  0.74864613  0.30925157  1  -0.007567  0  -0.000588  0.031813  0  3.991156  0
C  C115  1  0.81568829  0.83241906  0.28262635  1  0.032452  0  0.011742  0.012099  0  3.892202  0
C  C116  1  0.79142262  0.64764066  0.28258871  1  0.156124  0  0.081224  0.024584  0  3.903485  0
C  C117  1  0.81638287  0.63411580  0.23439564  1  0.049695  0  -0.064294  -0.151497  0  3.967539  0
C  C118  1  0.84286331  0.71756366  0.20791388  1  0.055589  0  -0.004917  0.07592  0  4.056865  0
C  C119  1  0.84320966  0.81731898  0.23266189  1  -0.015367  0  0.011914  0.010977  0  3.904221  0
C  C120  1  0.87421362  0.70012374  0.15905089  1  -0.068981  0  -0.068585  -0.125095  0  3.913922  0
C  C121  1  0.75830586  0.86990788  0.38078367  1  0.01894  0  -0.011768  -0.029873  0  4.004753  0
C  C122  1  0.42200773  0.75848618  0.36399679  1  -0.041534  0  -0.066614  -0.120621  0  3.895303  0
C  C123  1  0.41440730  0.73555336  0.31529232  1  0.01889  0  -0.005291  0.071387  0  4.037427  0
C  C124  1  0.39985821  0.69352719  0.21584838  1  -0.018873  0  -0.004561  0.082519  0  4.040236  0
C  C125  1  0.45841954  0.59295641  0.24968898  1  -0.013971  0  -0.095039  -0.133869  0  3.997052  0
C  C126  1  0.46542854  0.61272148  0.29740926  1  -0.050796  0  -0.083827  -0.114509  0  3.993119  0
C  C127  1  0.38890601  0.67388401  0.16698466  1  -0.019742  0  -0.078105  -0.135782  0  3.927927  0
C  C128  1  0.32868645  0.77278003  0.13468753  1  0.014999  0  -0.007198  -0.076347  0  3.998915  0
C  C129  1  0.30900438  0.98023510  0.34832516  1  -0.011329  0  -0.075803  -0.133166  0  3.918153  0
C  C130  1  0.30442033  0.96095982  0.29910021  1  -0.046318  0  -0.008718  0.071554  0  4.054653  0
C  C131  1  0.35588565  0.83773509  0.28214525  1  -0.028244  0  0.00499  0.002689  0  3.915117  0
C  C132  1  0.25079316  0.06122231  0.26496390  1  -0.028636  0  -0.086923  -0.110038  0  3.98993  0
C  C133  1  0.24412529  0.04256854  0.21719052  1  -0.057312  0  -0.094675  -0.133322  0  4.001991  0
C  C134  1  0.28972422  0.92011288  0.19936501  1  0.058431  0  0.003097  0.038205  0  4.006569  0
C  C135  1  0.34869190  0.81718143  0.23240436  1  0.066666  0  0.00688  0.008  0  3.910507  0
C  C136  1  0.28143604  0.89399448  0.15099586  1  0.179304  0  0.085408  0.006764  0  3.878663  0
C  C137  1  0.36834723  0.87973809  0.38036442  1  0.030008  0  -0.014401  -0.04198  0  4.016671  0
C  C138  1  0.95318502  0.75939974  0.94762177  1  1.661652  0  0.27683  0.711629  0  4.166799  0
C  C139  1  0.27286402  0.44075835  0.94833951  1  1.64861  0  0.284183  0.723849  0  4.147605  0
C  C140  1  0.30440698  0.75434561  0.95005645  1  1.642771  0  0.280211  0.718155  0  4.157102  0
C  C141  1  0.95169702  0.75523642  0.08423982  1  1.5664  0  0.276521  0.635582  0  4.097967  0
C  C142  1  0.28005282  0.42987358  0.08322539  1  1.54298  0  0.281956  0.653661  0  4.063975  0
C  C143  1  0.29714876  0.74805545  0.08596387  1  1.602849  0  0.27092  0.646006  0  4.099068  0
N  N144  1  0.77103650  0.55106877  0.30549681  1  0.372226  0  0.053947  0.511228  0  4.199882  0
N  N145  1  0.22700354  0.99739551  0.11574135  1  0.391261  0  0.05798  0.52746  0  4.22088  0
O  O146  1  0.69413552  0.82174044  0.55544007  1  -1.20688  0  -0.208715  -0.560145  0  2.29716  0
O  O147  1  0.47731949  0.82422219  0.55707257  1  -1.223665  0  -0.208615  -0.562114  0  2.305799  0
O  O148  1  0.29175623  0.99675330  0.54456891  1  -1.261268  0  -0.242803  -0.605052  0  2.221755  0
O  O149  1  0.31673737  0.18687814  0.55160860  1  -1.243764  0  -0.228997  -0.589212  0  2.247106  0
O  O150  1  0.49881531  0.18862782  0.54959329  1  -1.249458  0  -0.228154  -0.588094  0  2.245205  0
O  O151  1  0.70926625  0.99683468  0.54587226  1  -1.249327  0  -0.245013  -0.607999  0  2.223968  0
O  O152  1  0.69229776  0.81602690  0.45241399  1  -1.241919  0  -0.206866  -0.544552  0  2.359052  0
O  O153  1  0.47496994  0.81938816  0.45429757  1  -1.24404  0  -0.21109  -0.554132  0  2.33619  0
O  O154  1  0.30629799  0.00942572  0.44819996  1  -1.279293  0  -0.249761  -0.616618  0  2.283755  0
O  O155  1  0.31288081  0.20765205  0.45652214  1  -1.260889  0  -0.232362  -0.59302  0  2.292311  0
O  O156  1  0.49909456  0.19804565  0.45388263  1  -1.263553  0  -0.233009  -0.594914  0  2.300427  0
O  O157  1  0.69749754  0.99625266  0.44989166  1  -1.273371  0  -0.248363  -0.61377  0  2.281726  0
O  O158  1  0.50544597  0.98862390  0.50169664  1  -1.612775  0  -0.391912  -1.26955  0  2.293052  0
O  O159  1  0.20410474  0.83532319  0.96781596  1  -1.228341  0  -0.209396  -0.565811  0  2.292378  0
O  O160  1  0.98902413  0.83321858  0.96105465  1  -1.207772  0  -0.205911  -0.552852  0  2.299462  0
O  O161  1  0.96438755  0.66365093  0.97128568  1  -1.258121  0  -0.244842  -0.60993  0  2.233145  0
O  O162  1  0.16952667  0.46508822  0.96737347  1  -1.243841  0  -0.227319  -0.588079  0  2.241629  0
O  O163  1  0.35461991  0.46049454  0.96743647  1  -1.244355  0  -0.226543  -0.586673  0  2.247547  0
O  O164  1  0.38100057  0.64993374  0.96999470  1  -1.2487  0  -0.240209  -0.599665  0  2.226255  0
O  O165  1  0.19214692  0.82487110  0.07004165  1  -1.240513  0  -0.21188  -0.563942  0  2.383164  0
O  O166  1  0.97185132  0.83443984  0.06311558  1  -1.24567  0  -0.20456  -0.53874  0  2.355606  0
O  O167  1  0.97448289  0.65037460  0.06680026  1  -1.269974  0  -0.245649  -0.608496  0  2.281603  0
O  O168  1  0.17795879  0.45455782  0.06346414  1  -1.267776  0  -0.230594  -0.592168  0  2.300957  0
O  O169  1  0.36205745  0.44980851  0.06306682  1  -1.271452  0  -0.234175  -0.598433  0  2.290509  0
O  O170  1  0.37499945  0.64693401  0.06575489  1  -1.278968  0  -0.245023  -0.604167  0  2.273253  0
O  O171  1  0.16880149  0.66330711  0.01631495  1  -1.614214  0  -0.391975  -1.271101  0  2.290263  0
O  O172  1  0.70750838  0.57582555  0.34243752  1  -0.453175  0  -0.1094  -0.311978  0  1.972748  0
O  O173  1  0.81916810  0.44795613  0.28609324  1  -0.485067  0  -0.155208  -0.368089  0  1.894042  0
O  O174  1  0.12247482  0.08367467  0.12398522  1  -0.443231  0  -0.129107  -0.328518  0  1.892412  0
O  O175  1  0.29233972  0.99204607  0.08097701  1  -0.441052  0  -0.135042  -0.330403  0  1.85501  0
O  O176  1  0.66722579  0.64903916  0.50537978  1  -1.376859  0  -0.578544  -0.994268  0  1.794324  0
O  O177  1  0.00355936  0.00256647  0.01804215  1  -1.35649  0  -0.575614  -0.993245  0  1.802649  0
