# generated using pymatgen
data_CdH8(C4N3)3
_symmetry_space_group_name_H-M   'P 1'
_cell_length_a   7.98115447
_cell_length_b   8.82664357
_cell_length_c   10.10752711
_cell_angle_alpha   75.76829302
_cell_angle_beta   73.88779115
_cell_angle_gamma   82.76743114
_symmetry_Int_Tables_number   1
_chemical_formula_structural   CdH8(C4N3)3
_chemical_formula_sum   'Cd2 H16 C24 N18'
_cell_volume   661.80661823
_cell_formula_units_Z   2
loop_
 _symmetry_equiv_pos_site_id
 _symmetry_equiv_pos_as_xyz
  1  'x, y, z'
loop_
 _atom_site_type_symbol
 _atom_site_label
 _atom_site_symmetry_multiplicity
 _atom_site_fract_x
 _atom_site_fract_y
 _atom_site_fract_z
 _atom_site_occupancy
 _atom_site_hle17_bader_spin_density
 _atom_site_hle17_ddec_charge
 _atom_site_hle17_ddec_spin_density
 _atom_site_hle17_ddec_sum_bond_order
 _atom_site_hle17_magmom
 _atom_site_hse06_10hf_bader_spin_density
 _atom_site_hse06_10hf_ddec_charge
 _atom_site_hse06_10hf_ddec_spin_density
 _atom_site_hse06_10hf_ddec_sum_bond_order
 _atom_site_hse06_10hf_magmom
 _atom_site_hse06_bader_spin_density
 _atom_site_hse06_ddec_charge
 _atom_site_hse06_ddec_spin_density
 _atom_site_hse06_ddec_sum_bond_order
 _atom_site_hse06_magmom
 _atom_site_pbe_bader_spin_density
 _atom_site_pbe_cm5_charge
 _atom_site_pbe_ddec_charge
 _atom_site_pbe_ddec_spin_density
 _atom_site_pbe_ddec_sum_bond_order
 _atom_site_pbe_magmom
Cd  Cd0  1  0.20711390  0.87381094  0.45873607  1  0  1.028401  0  1.892722  0  0  0.838501  0  2.361461  0  0  0.887215  0  2.321786  0  0  0.802836  0.804413  0  2.388032  0
Cd  Cd1  1  0.79288331  0.12618477  0.54126159  1  0  1.028422  0  1.892739  0  0  0.838546  0  2.361473  0  0  0.887258  0  2.3218  0  0  0.802819  0.804462  0  2.388038  0
H  H2  1  0.70508515  0.96044537  0.87004003  1  0  0.07889  0  0.955489  0  0  0.085269  0  1.022348  0  0  0.087604  0  1.020383  0  0  0.115198  0.083625  0  1.023723  0
H  H3  1  0.29491078  0.03954926  0.12996507  1  0  0.078855  0  0.955544  0  0  0.085237  0  1.022396  0  0  0.087571  0  1.020428  0  0  0.115208  0.083595  0  1.023769  0
H  H4  1  0.85998410  0.22225623  0.12046611  1  0  0.100332  0  0.951842  0  0  0.10793  0  1.015054  0  0  0.110033  0  1.014694  0  0  0.106489  0.106406  0  1.015327  0
H  H5  1  0.14002222  0.77773947  0.87953453  1  0  0.100338  0  0.951852  0  0  0.10793  0  1.015069  0  0  0.110032  0  1.014709  0  0  0.106498  0.106404  0  1.015343  0
H  H6  1  0.98339771  0.41257095  0.89838600  1  0  0.114419  0  0.971048  0  0  0.121796  0  1.034564  0  0  0.124985  0  1.033204  0  0  0.106968  0.119437  0  1.035809  0
H  H7  1  0.01660339  0.58742478  0.10161477  1  0  0.114358  0  0.971067  0  0  0.121756  0  1.034575  0  0  0.124952  0  1.033214  0  0  0.106944  0.119399  0  1.035819  0
H  H8  1  0.49742939  0.77974394  0.65215743  1  0  0.079157  0  0.965351  0  0  0.085063  0  1.032503  0  0  0.086634  0  1.032078  0  0  0.115873  0.083855  0  1.032793  0
H  H9  1  0.50257003  0.22025876  0.34783622  1  0  0.079143  0  0.965299  0  0  0.085054  0  1.032461  0  0  0.086628  0  1.032039  0  0  0.11587  0.083846  0  1.032752  0
H  H10  1  0.25042246  0.26819383  0.76626896  1  0  0.104504  0  0.979562  0  0  0.113031  0  1.043037  0  0  0.115318  0  1.043428  0  0  0.10788  0.111327  0  1.042933  0
H  H11  1  0.74958080  0.73180897  0.23373571  1  0  0.104541  0  0.979546  0  0  0.113042  0  1.043061  0  0  0.115327  0  1.043455  0  0  0.107853  0.111339  0  1.042953  0
H  H12  1  0.61279123  0.56122938  0.81689756  1  0  0.108599  0  0.973157  0  0  0.114461  0  1.038505  0  0  0.117447  0  1.038191  0  0  0.103953  0.112349  0  1.038894  0
H  H13  1  0.38721043  0.43877920  0.18309924  1  0  0.108616  0  0.973121  0  0  0.114481  0  1.03845  0  0  0.117467  0  1.038137  0  0  0.103953  0.11237  0  1.038838  0
H  H14  1  0.71040320  0.99235627  0.10708074  1  0  0.104055  0  0.987723  0  0  0.112709  0  1.049992  0  0  0.115268  0  1.04998  0  0  0.106169  0.110826  0  1.050163  0
H  H15  1  0.28959521  0.00764067  0.89292232  1  0  0.103996  0  0.987707  0  0  0.112667  0  1.04996  0  0  0.115228  0  1.04995  0  0  0.106141  0.110782  0  1.050139  0
H  H16  1  0.48606121  0.29624796  0.87530257  1  0  0.097427  0  0.935108  0  0  0.110437  0  0.990557  0  0  0.112567  0  0.989955  0  0  0.110244  0.108798  0  0.991199  0
H  H17  1  0.51394186  0.70375832  0.12469840  1  0  0.097377  0  0.935122  0  0  0.110392  0  0.990567  0  0  0.112522  0  0.989965  0  0  0.110214  0.108752  0  0.991211  0
C  C18  1  0.76897772  0.05723113  0.88063786  1  0  0.131013  0  3.713341  0  0  0.099978  0  3.967094  0  0  0.106407  0  3.984892  0  0  0.04744  0.095668  0  3.954802  0
C  C19  1  0.23101788  0.94276933  0.11936305  1  0  0.131036  0  3.713426  0  0  0.099985  0  3.96718  0  0  0.106421  0  3.984973  0  0  0.047407  0.095675  0  3.954886  0
C  C20  1  0.97341841  0.39527209  0.62843847  1  0  0.141673  0  3.675063  0  0  0.132053  0  3.92816  0  0  0.136904  0  3.943951  0  0  0.143282  0.1289  0  3.917489  0
C  C21  1  0.02658125  0.60472599  0.37156210  1  0  0.141609  0  3.675082  0  0  0.132001  0  3.928205  0  0  0.136854  0  3.943996  0  0  0.14326  0.12885  0  3.917533  0
C  C22  1  0.85349088  0.20336646  0.01963575  1  0  0.002416  0  3.710199  0  0  -0.016239  0  3.960536  0  0  -0.013733  0  3.980394  0  0  -0.067203  -0.01758  0  3.94671  0
C  C23  1  0.14650885  0.79663045  0.98036506  1  0  0.002433  0  3.710198  0  0  -0.016214  0  3.960536  0  0  -0.013708  0  3.980399  0  0  -0.067199  -0.017556  0  3.946713  0
C  C24  1  0.92592378  0.30883292  0.89500334  1  0  -0.142018  0  3.702602  0  0  -0.16042  0  3.949999  0  0  -0.166562  0  3.970148  0  0  -0.077588  -0.156333  0  3.9362  0
C  C25  1  0.07407870  0.69116163  0.10499740  1  0  -0.141908  0  3.70251  0  0  -0.160319  0  3.949891  0  0  -0.166469  0  3.970048  0  0  -0.077552  -0.156232  0  3.936092  0
C  C26  1  0.24447816  0.51036840  0.65682034  1  0  0.182803  0  3.742998  0  0  0.180004  0  3.985108  0  0  0.185574  0  4.006241  0  0  0.118812  0.176487  0  3.970716  0
C  C27  1  0.75552128  0.48963321  0.34318146  1  0  0.182739  0  3.742877  0  0  0.179867  0  3.985077  0  0  0.185438  0  4.006206  0  0  0.118779  0.17635  0  3.970688  0
C  C28  1  0.10923452  0.50031167  0.58380468  1  0  0.137311  0  3.683876  0  0  0.126639  0  3.9351  0  0  0.131321  0  3.951443  0  0  0.138383  0.122678  0  3.92461  0
C  C29  1  0.89076780  0.49968526  0.41619853  1  0  0.137383  0  3.683915  0  0  0.126746  0  3.935114  0  0  0.131427  0  3.951454  0  0  0.138405  0.122784  0  3.924626  0
C  C30  1  0.44335643  0.66524345  0.68148915  1  0  0.133423  0  3.698306  0  0  0.104485  0  3.951624  0  0  0.110897  0  3.970187  0  0  0.046002  0.100554  0  3.938958  0
C  C31  1  0.55664420  0.33476046  0.31850892  1  0  0.13354  0  3.69822  0  0  0.104557  0  3.951567  0  0  0.110965  0  3.970136  0  0  0.045979  0.100625  0  3.938902  0
C  C32  1  0.30558142  0.38058872  0.74575935  1  0  -0.129887  0  3.695551  0  0  -0.148688  0  3.941081  0  0  -0.155033  0  3.962434  0  0  -0.07375  -0.144496  0  3.926636  0
C  C33  1  0.69441649  0.61941644  0.25424397  1  0  -0.129938  0  3.695405  0  0  -0.148708  0  3.94097  0  0  -0.155054  0  3.962324  0  0  -0.073706  -0.144516  0  3.926528  0
C  C34  1  0.91706352  0.28226903  0.76621179  1  0  0.18082  0  3.7485  0  0  0.174275  0  3.995565  0  0  0.180203  0  4.015845  0  0  0.120765  0.170466  0  3.981563  0
C  C35  1  0.08293759  0.71772669  0.23378799  1  0  0.180813  0  3.748493  0  0  0.174208  0  3.995643  0  0  0.180134  0  4.015924  0  0  0.120742  0.170399  0  3.98164  0
C  C36  1  0.50845269  0.54186554  0.77355601  1  0  -0.102799  0  3.689298  0  0  -0.114196  0  3.935848  0  0  -0.120541  0  3.9566  0  0  -0.078903  -0.110331  0  3.922158  0
C  C37  1  0.49154771  0.45814191  0.22644329  1  0  -0.10304  0  3.689396  0  0  -0.114395  0  3.935944  0  0  -0.120743  0  3.956698  0  0  -0.078964  -0.110528  0  3.922251  0
C  C38  1  0.77320799  0.07529928  0.01273374  1  0  -0.110663  0  3.715481  0  0  -0.123506  0  3.964187  0  0  -0.129785  0  3.985795  0  0  -0.082261  -0.119279  0  3.949406  0
C  C39  1  0.22678920  0.92469647  0.98726689  1  0  -0.11059  0  3.715511  0  0  -0.123435  0  3.964192  0  0  -0.129719  0  3.985804  0  0  -0.082187  -0.119209  0  3.949411  0
C  C40  1  0.43804109  0.39671296  0.80567064  1  0  0.018156  0  3.693321  0  0  -0.001382  0  3.943903  0  0  0.002202  0  3.96118  0  0  -0.060951  -0.003573  0  3.932376  0
C  C41  1  0.56195931  0.60329449  0.19432866  1  0  0.018408  0  3.69322  0  0  -0.001135  0  3.943774  0  0  0.002451  0  3.96105  0  0  -0.060821  -0.003328  0  3.932249  0
N  N42  1  0.31442639  0.65113379  0.62461553  1  0  -0.3565  0  3.207212  0  0  -0.293189  0  3.467112  0  0  -0.311118  0  3.486623  0  0  -0.315312  -0.281085  0  3.453606  0
N  N43  1  0.68557306  0.34886781  0.37538429  1  0  -0.356542  0  3.207221  0  0  -0.293204  0  3.467174  0  0  -0.311133  0  3.486686  0  0  -0.315321  -0.281102  0  3.453671  0
N  N44  1  0.12713710  0.60086489  0.45860924  1  0  -0.325582  0  3.2238  0  0  -0.281453  0  3.487654  0  0  -0.292674  0  3.503706  0  0  -0.297815  -0.273778  0  3.476729  0
N  N45  1  0.87286393  0.39913202  0.54139228  1  0  -0.325567  0  3.224007  0  0  -0.281431  0  3.487834  0  0  -0.292649  0  3.503883  0  0  -0.297796  -0.273758  0  3.47691  0
N  N46  1  0.83879131  0.15783294  0.76069120  1  0  -0.339179  0  3.234861  0  0  -0.272339  0  3.492777  0  0  -0.290115  0  3.512141  0  0  -0.315266  -0.259868  0  3.47916  0
N  N47  1  0.16120820  0.84216749  0.23930986  1  0  -0.339207  0  3.234848  0  0  -0.272332  0  3.492785  0  0  -0.29011  0  3.512147  0  0  -0.315272  -0.25986  0  3.479165  0
N  N48  1  0.47410642  0.94414513  0.31629636  1  0  -0.555949  0  2.651929  0  0  -0.533487  0  2.94756  0  0  -0.554122  0  2.955678  0  0  -0.299856  -0.519089  0  2.941747  0
N  N49  1  0.52589167  0.05585764  0.68370250  1  0  -0.556155  0  2.651376  0  0  -0.533738  0  2.947067  0  0  -0.554378  0  2.955176  0  0  -0.299991  -0.519331  0  2.941248  0
N  N50  1  0.60086444  0.94831960  0.35598123  1  0  0.38097  0  4.280016  0  0  0.415473  0  4.562769  0  0  0.431532  0  4.592514  0  0  0.067131  0.404688  0  4.542483  0
N  N51  1  0.39912202  0.05168200  0.64401348  1  0  0.381103  0  4.279964  0  0  0.415615  0  4.562703  0  0  0.431675  0  4.592447  0  0  0.067187  0.404831  0  4.542417  0
N  N52  1  0.85772311  0.68001633  0.83376312  1  0  -0.428945  0  2.395874  0  0  -0.42826  0  2.628952  0  0  -0.4368  0  2.638908  0  0  -0.211986  -0.42225  0  2.622234  0
N  N53  1  0.14227798  0.31997943  0.16624062  1  0  -0.42866  0  2.396377  0  0  -0.427952  0  2.629511  0  0  -0.436479  0  2.639462  0  0  -0.211881  -0.421966  0  2.622816  0
N  N54  1  0.93215783  0.86435178  0.61517284  1  0  -0.57262  0  2.757033  0  0  -0.526302  0  3.060158  0  0  -0.553321  0  3.069729  0  0  -0.311676  -0.507829  0  3.05322  0
N  N55  1  0.06783935  0.13564399  0.38482976  1  0  -0.572845  0  2.756798  0  0  -0.526483  0  3.05995  0  0  -0.55352  0  3.069529  0  0  -0.311789  -0.507999  0  3.053001  0
N  N56  1  0.89532959  0.77115419  0.72564103  1  0  0.398413  0  4.239432  0  0  0.428484  0  4.525653  0  0  0.444962  0  4.556068  0  0  0.076466  0.417448  0  4.504979  0
N  N57  1  0.10467350  0.22885312  0.27434685  1  0  0.398374  0  4.239671  0  0  0.428375  0  4.525986  0  0  0.444857  0  4.556395  0  0  0.076512  0.41734  0  4.505307  0
N  N58  1  0.73239373  0.95294947  0.38592490  1  0  -0.458679  0  2.501938  0  0  -0.451167  0  2.770081  0  0  -0.463309  0  2.779501  0  0  -0.24135  -0.442469  0  2.763614  0
N  N59  1  0.26760712  0.04705091  0.61407193  1  0  -0.458595  0  2.502489  0  0  -0.451075  0  2.770605  0  0  -0.463205  0  2.780014  0  0  -0.241261  -0.442386  0  2.764146  0
