# generated using pymatgen
data_Zn4H6C24S4O17F2
_symmetry_space_group_name_H-M   'P 1'
_cell_length_a   19.67676808
_cell_length_b   19.75304002
_cell_length_c   33.39166768
_cell_angle_alpha   78.94673351
_cell_angle_beta   79.17090258
_cell_angle_gamma   63.95122629
_symmetry_Int_Tables_number   1
_chemical_formula_structural   Zn4H6C24S4O17F2
_chemical_formula_sum   'Zn16 H24 C96 S16 O68 F8'
_cell_volume   11364.48334687
_cell_formula_units_Z   4
loop_
 _symmetry_equiv_pos_site_id
 _symmetry_equiv_pos_as_xyz
  1  'x, y, z'
loop_
 _atom_site_type_symbol
 _atom_site_label
 _atom_site_symmetry_multiplicity
 _atom_site_fract_x
 _atom_site_fract_y
 _atom_site_fract_z
 _atom_site_occupancy
 _atom_site_pbe_bader_charge
 _atom_site_pbe_bader_spin_density
 _atom_site_pbe_cm5_charge
 _atom_site_pbe_ddec_charge
 _atom_site_pbe_ddec_spin_density
 _atom_site_pbe_ddec_sum_bond_order
 _atom_site_pbe_magmom
Zn  Zn0  1  0.05603173  0.40080508  0.47840465  1  1.316328  0  0.668315  0.96955  0  2.345544  0
Zn  Zn1  1  0.98433509  0.48339378  0.56050345  1  1.313495  0  0.673914  0.957929  0  2.377271  0
Zn  Zn2  1  0.05887314  0.56113735  0.48230422  1  1.320651  0  0.673627  0.963285  0  2.378051  0
Zn  Zn3  1  0.90040036  0.55522195  0.47954093  1  1.322177  0  0.674566  0.965566  0  2.377037  0
Zn  Zn4  1  0.69387892  0.34904240  0.27169798  1  1.314583  0  0.667975  0.968379  0  2.344514  0
Zn  Zn5  1  0.69070434  0.18828577  0.26677570  1  1.315449  0  0.670945  0.963333  0  2.357665  0
Zn  Zn6  1  0.76878887  0.26650217  0.18994489  1  1.322009  0  0.673808  0.964583  0  2.373213  0
Zn  Zn7  1  0.84839786  0.19454761  0.27178160  1  1.322645  0  0.676884  0.958626  0  2.39142  0
Zn  Zn8  1  0.26590621  0.76639024  0.68950430  1  1.314684  0  0.674392  0.95787  0  2.378738  0
Zn  Zn9  1  0.34968061  0.69595896  0.77115119  1  1.320928  0  0.671579  0.964132  0  2.361601  0
Zn  Zn10  1  0.19271356  0.84887145  0.77098428  1  1.319293  0  0.670558  0.967828  0  2.367109  0
Zn  Zn11  1  0.19124742  0.68864955  0.76771835  1  1.320402  0  0.673803  0.964003  0  2.376376  0
Zn  Zn12  1  0.55900688  0.06191618  0.98322584  1  1.314116  0  0.67116  0.963294  0  2.359036  0
Zn  Zn13  1  0.40144032  0.05414149  0.97749443  1  1.317717  0  0.67426  0.958453  0  2.374733  0
Zn  Zn14  1  0.55719470  0.90109014  0.97900579  1  1.318619  0  0.67059  0.968921  0  2.361583  0
Zn  Zn15  1  0.48104394  0.98370745  0.06004048  1  1.322914  0  0.673946  0.964338  0  2.375516  0
H  H16  1  0.74857691  0.45251912  0.35036492  1  0.157029  0  0.120408  0.150812  0  0.975426  0
H  H17  1  0.00107793  0.29817021  0.39974103  1  0.165844  0  0.120266  0.150561  0  0.975611  0
H  H18  1  0.20061237  0.70041838  0.59926761  1  0.125457  0  0.121638  0.152411  0  0.974192  0
H  H19  1  0.04940621  0.54971177  0.65067564  1  0.129496  0  0.12182  0.152413  0  0.973667  0
H  H20  1  0.65073960  0.15122487  0.04943184  1  0.118294  0  0.12097  0.151658  0  0.974721  0
H  H21  1  0.59932218  0.09872590  0.20050547  1  0.120866  0  0.120851  0.151554  0  0.974991  0
H  H22  1  0.29928554  0.00010175  0.89977103  1  0.10551  0  0.121678  0.152634  0  0.97266  0
H  H23  1  0.45110943  0.74908591  0.84998574  1  0.094113  0  0.120893  0.15153  0  0.974563  0
H  H24  1  0.32737312  0.54020512  0.39781180  1  0.598297  0  0.343196  0.368719  0  0.863791  0
H  H25  1  0.42241387  0.20963319  0.35233429  1  0.593143  0  0.342808  0.368554  0  0.864519  0
H  H26  1  0.75447677  0.54087764  0.68445613  1  0.618335  0  0.343034  0.368969  0  0.864823  0
H  H27  1  0.49562603  0.70892541  0.56579845  1  0.622316  0  0.343314  0.369245  0  0.863683  0
H  H28  1  0.04134860  0.25408018  0.68383856  1  0.610237  0  0.343037  0.368817  0  0.864651  0
H  H29  1  0.20879851  0.99572645  0.56605230  1  0.610274  0  0.342647  0.367578  0  0.866135  0
H  H30  1  0.74386660  0.81689601  0.38735382  1  0.588329  0  0.342954  0.368464  0  0.865278  0
H  H31  1  0.00539337  0.93284834  0.36265590  1  0.592061  0  0.343546  0.368739  0  0.864262  0
H  H32  1  0.70854345  0.49579544  0.06619083  1  0.612382  0  0.343358  0.368937  0  0.86422  0
H  H33  1  0.54125784  0.75426877  0.18411489  1  0.623835  0  0.343224  0.368949  0  0.864379  0
H  H34  1  0.14904986  0.07628182  0.21941594  1  0.60709  0  0.343171  0.368287  0  0.865253  0
H  H35  1  0.10054118  0.17409372  0.03055688  1  0.60205  0  0.342529  0.368457  0  0.865531  0
H  H36  1  0.50666176  0.43247785  0.86273582  1  0.580327  0  0.342514  0.368673  0  0.865271  0
H  H37  1  0.24425427  0.31782151  0.88722670  1  0.627377  0  0.343611  0.369793  0  0.864158  0
H  H38  1  0.92216246  0.70979281  0.85225077  1  0.591299  0  0.344045  0.369685  0  0.862744  0
H  H39  1  0.82796717  0.04048970  0.89758087  1  0.630413  0  0.343037  0.369506  0  0.863925  0
C  C40  1  0.06159751  0.31649648  0.56192284  1  1.574718  0  0.211955  0.620869  0  4.225801  0
C  C41  1  0.06923281  0.57013206  0.56855968  1  1.560959  0  0.230135  0.621055  0  4.167602  0
C  C42  1  0.18376531  0.44017904  0.43849657  1  1.590638  0  0.212746  0.621675  0  4.224068  0
C  C43  1  0.93624766  0.68404895  0.43878404  1  1.607059  0  0.212618  0.619894  0  4.227753  0
C  C44  1  0.93088611  0.43065240  0.43130399  1  1.594386  0  0.230163  0.622821  0  4.162801  0
C  C45  1  0.81689079  0.56085043  0.56257664  1  1.573132  0  0.2127  0.620401  0  4.223897  0
C  C46  1  0.56605940  0.30958432  0.31122030  1  1.58483  0  0.212146  0.621354  0  4.222219  0
C  C47  1  0.68229843  0.18016676  0.18068554  1  1.581625  0  0.228908  0.620023  0  4.16444  0
C  C48  1  0.68963636  0.43331005  0.18814238  1  1.59246  0  0.212328  0.620913  0  4.222321  0
C  C49  1  0.93523153  0.18793773  0.18948995  1  1.570496  0  0.212111  0.617477  0  4.227754  0
C  C50  1  0.81846693  0.31974514  0.31911293  1  1.591612  0  0.229248  0.620367  0  4.165478  0
C  C51  1  0.81285230  0.06549991  0.31140544  1  1.570655  0  0.212232  0.618867  0  4.227847  0
C  C52  1  0.43316413  0.68948564  0.68773245  1  1.569818  0  0.211706  0.620066  0  4.226059  0
C  C53  1  0.31798834  0.82034423  0.81869939  1  1.598986  0  0.229904  0.621757  0  4.163286  0
C  C54  1  0.18834159  0.93326004  0.68785680  1  1.567435  0  0.212015  0.619956  0  4.224819  0
C  C55  1  0.06576940  0.80961115  0.81133189  1  1.586317  0  0.2119  0.618353  0  4.228201  0
C  C56  1  0.18073839  0.67995801  0.68143713  1  1.560328  0  0.230046  0.620926  0  4.167424  0
C  C57  1  0.31428205  0.56617221  0.81136700  1  1.562523  0  0.212798  0.621961  0  4.222969  0
C  C58  1  0.43690152  0.18412940  0.93840786  1  1.617895  0  0.211796  0.61803  0  4.228754  0
C  C59  1  0.43265499  0.92904724  0.93084052  1  1.592844  0  0.229156  0.619731  0  4.167643  0
C  C60  1  0.68408793  0.94094228  0.93896442  1  1.572179  0  0.212684  0.620245  0  4.222545  0
C  C61  1  0.56065948  0.81681431  0.06220376  1  1.568874  0  0.212081  0.619214  0  4.222952  0
C  C62  1  0.56780257  0.06974671  0.06928095  1  1.584752  0  0.22878  0.619536  0  4.164746  0
C  C63  1  0.31464617  0.06197740  0.06012442  1  1.579206  0  0.212217  0.618708  0  4.229075  0
C  C64  1  0.90084618  0.40373695  0.40241770  1  -0.032779  0  -0.014847  -0.110475  0  3.951012  0
C  C65  1  0.84876926  0.34694926  0.34772676  1  -0.022756  0  -0.014615  -0.110211  0  3.952182  0
C  C66  1  0.82949878  0.44586945  0.38766771  1  0.477905  0  0.105798  0.270121  0  4.039065  0
C  C67  1  0.92016917  0.30484022  0.36242716  1  0.48564  0  0.105672  0.269881  0  4.038217  0
C  C68  1  0.80412972  0.41832064  0.36109567  1  0.060129  0  -0.088015  -0.203682  0  3.976946  0
C  C69  1  0.94552283  0.33237572  0.38901341  1  0.066263  0  -0.087736  -0.203291  0  3.973543  0
C  C70  1  0.09857506  0.59907860  0.59671021  1  0.074315  0  -0.014941  -0.110649  0  3.956899  0
C  C71  1  0.15137456  0.65109461  0.65324418  1  0.070054  0  -0.014943  -0.111186  0  3.955764  0
C  C72  1  0.14168144  0.64195020  0.58324120  1  0.46452  0  0.104976  0.267374  0  4.041989  0
C  C73  1  0.10830867  0.60820478  0.66669373  1  0.467399  0  0.105269  0.268718  0  4.040083  0
C  C74  1  0.16739261  0.66733481  0.61070308  1  0.006715  0  -0.086442  -0.200508  0  3.970988  0
C  C75  1  0.08259064  0.58283225  0.63923786  1  0.002326  0  -0.086716  -0.200645  0  3.971236  0
C  C76  1  0.30488665  0.45444725  0.40071549  1  0.585292  0  0.087111  0.280296  0  4.085382  0
C  C77  1  0.44502510  0.29533098  0.34922242  1  0.543645  0  0.08653  0.281115  0  4.085477  0
C  C78  1  0.25832164  0.41578912  0.41388436  1  -0.097858  0  -0.038608  -0.232166  0  3.915094  0
C  C79  1  0.49161650  0.33391683  0.33600291  1  -0.085901  0  -0.039147  -0.232909  0  3.915627  0
C  C80  1  0.37696746  0.33946623  0.37287275  1  -0.121624  0  -0.03957  -0.137706  0  4.150113  0
C  C81  1  0.37303812  0.41025525  0.37712141  1  -0.149265  0  -0.039335  -0.136215  0  4.146887  0
C  C82  1  0.72577386  0.57593580  0.63015935  1  0.619324  0  0.086212  0.280811  0  4.088605  0
C  C83  1  0.52422068  0.67386929  0.62012650  1  0.61969  0  0.086355  0.281222  0  4.086536  0
C  C84  1  0.74279414  0.58519086  0.58751701  1  -0.14553  0  -0.038612  -0.23308  0  3.920293  0
C  C85  1  0.50725258  0.66478758  0.66278370  1  -0.142784  0  -0.038516  -0.231908  0  3.917832  0
C  C86  1  0.60411636  0.64135953  0.60831175  1  -0.149492  0  -0.039849  -0.140195  0  4.152916  0
C  C87  1  0.64589362  0.60843366  0.64195637  1  -0.129055  0  -0.039085  -0.137423  0  4.152953  0
C  C88  1  0.07640305  0.22539426  0.62966017  1  0.660535  0  0.086737  0.281708  0  4.085783  0
C  C89  1  0.17383377  0.02439144  0.62022641  1  0.651825  0  0.086954  0.282259  0  4.086034  0
C  C90  1  0.08574389  0.24243392  0.58698036  1  -0.143778  0  -0.038877  -0.232506  0  3.917875  0
C  C91  1  0.16442467  0.00737695  0.66287792  1  -0.137911  0  -0.039005  -0.233676  0  3.919511  0
C  C92  1  0.14161787  0.10407415  0.60821380  1  -0.181725  0  -0.03922  -0.137831  0  4.150527  0
C  C93  1  0.10867070  0.14570569  0.64169537  1  -0.178772  0  -0.039714  -0.1396  0  4.150962  0
C  C94  1  0.84254791  0.80119929  0.39723821  1  0.550674  0  0.086109  0.280065  0  4.090475  0
C  C95  1  0.90659265  0.94843202  0.35295802  1  0.56981  0  0.087471  0.282408  0  4.084512  0
C  C96  1  0.91112880  0.75822024  0.41392871  1  -0.101506  0  -0.038703  -0.232734  0  3.920131  0
C  C97  1  0.83795609  0.99131439  0.33625572  1  -0.104447  0  -0.039179  -0.233547  0  3.921262  0
C  C98  1  0.90818934  0.87887274  0.37513558  1  -0.130665  0  -0.039541  -0.139785  0  4.151453  0
C  C99  1  0.84121655  0.87052523  0.37492484  1  -0.131225  0  -0.039417  -0.137597  0  4.153197  0
C  C100  1  0.65366641  0.15261587  0.15139953  1  0.04798  0  -0.014766  -0.110539  0  3.952948  0
C  C101  1  0.59649617  0.09724118  0.09855151  1  0.038842  0  -0.015328  -0.110785  0  3.952605  0
C  C102  1  0.66693834  0.16641469  0.10833690  1  0.47068  0  0.105429  0.269951  0  4.038666  0
C  C103  1  0.58314335  0.08350239  0.14161303  1  0.49182  0  0.105996  0.270591  0  4.039123  0
C  C104  1  0.63925263  0.13949686  0.08260949  1  0.035785  0  -0.08742  -0.202819  0  3.971717  0
C  C105  1  0.61085985  0.11040542  0.16733064  1  0.01145  0  -0.0875  -0.203169  0  3.974299  0
C  C106  1  0.67403142  0.52452731  0.12040030  1  0.622635  0  0.086895  0.281308  0  4.086056  0
C  C107  1  0.57576187  0.72553806  0.12991604  1  0.621265  0  0.086434  0.280373  0  4.086206  0
C  C108  1  0.66477152  0.50740711  0.16307030  1  -0.147227  0  -0.038726  -0.231545  0  3.915485  0
C  C109  1  0.58515264  0.74270818  0.08725273  1  -0.137257  0  -0.038615  -0.232358  0  3.914803  0
C  C110  1  0.60832063  0.64582248  0.14189150  1  -0.133632  0  -0.03914  -0.137443  0  4.150851  0
C  C111  1  0.64151201  0.60425461  0.10839593  1  -0.152348  0  -0.040136  -0.139435  0  4.150003  0
C  C112  1  0.08210676  0.12380387  0.17779817  1  0.549688  0  0.086787  0.280555  0  4.086211  0
C  C113  1  0.16778916  0.12623182  0.07197644  1  0.538131  0  0.086444  0.280471  0  4.089453  0
C  C114  1  0.00966359  0.16291600  0.16493025  1  -0.099036  0  -0.038872  -0.231518  0  3.91918  0
C  C115  1  0.24026037  0.08721399  0.08476269  1  -0.066808  0  -0.039329  -0.232811  0  3.922127  0
C  C116  1  0.11019605  0.13954672  0.10604022  1  -0.177703  0  -0.040009  -0.138861  0  4.153294  0
C  C117  1  0.13978576  0.11052769  0.14374928  1  -0.177891  0  -0.039389  -0.138274  0  4.150161  0
C  C118  1  0.34574960  0.84966873  0.84752876  1  0.079036  0  -0.015459  -0.11125  0  3.951842  0
C  C119  1  0.40469584  0.89954217  0.90218688  1  0.049704  0  -0.014674  -0.109757  0  3.952431  0
C  C120  1  0.30432467  0.92054282  0.86235367  1  0.471652  0  0.105125  0.268209  0  4.040961  0
C  C121  1  0.44606089  0.82864521  0.88740332  1  0.45744  0  0.104837  0.267343  0  4.043527  0
C  C122  1  0.33288473  0.94488534  0.88892720  1  0.069395  0  -0.087051  -0.20137  0  3.969326  0
C  C123  1  0.41751736  0.80430048  0.86082554  1  0.024486  0  -0.087396  -0.201361  0  3.971315  0
C  C124  1  0.40782107  0.44868012  0.85288719  1  0.55291  0  0.085475  0.279469  0  4.089507  0
C  C125  1  0.34325600  0.30164986  0.89689489  1  0.581696  0  0.086541  0.280643  0  4.087106  0
C  C126  1  0.33937863  0.49183582  0.83610360  1  -0.084454  0  -0.038804  -0.232633  0  3.919447  0
C  C127  1  0.41175366  0.25850207  0.91367522  1  -0.139115  0  -0.038377  -0.230366  0  3.91733  0
C  C128  1  0.34196279  0.37112774  0.87473231  1  -0.134386  0  -0.0399  -0.140067  0  4.151458  0
C  C129  1  0.40899225  0.37929392  0.87508918  1  -0.137533  0  -0.039362  -0.136746  0  4.149414  0
C  C130  1  0.94474741  0.79550324  0.84936408  1  0.552097  0  0.087278  0.280925  0  4.085516  0
C  C131  1  0.80501842  0.95499917  0.90069383  1  0.531626  0  0.086274  0.28094  0  4.08712  0
C  C132  1  0.99139199  0.83402379  0.83608249  1  -0.090558  0  -0.038703  -0.231857  0  3.91797  0
C  C133  1  0.75833143  0.91656095  0.91404856  1  -0.074191  0  -0.039066  -0.232376  0  3.916151  0
C  C134  1  0.87296807  0.91064253  0.87705135  1  -0.128152  0  -0.039629  -0.138715  0  4.151723  0
C  C135  1  0.87667950  0.83986345  0.87295101  1  -0.112824  0  -0.0393  -0.136888  0  4.148074  0
S  S136  1  0.29792775  0.32591687  0.39755371  1  0.23116  0  0.055259  0.105841  0  2.796615  0
S  S137  1  0.45211838  0.42373647  0.35241389  1  0.232349  0  0.056006  0.106587  0  2.795872  0
S  S138  1  0.66150915  0.63321514  0.56202753  1  0.245748  0  0.06004  0.113022  0  2.793153  0
S  S139  1  0.58854965  0.61672250  0.68824580  1  0.239351  0  0.056765  0.107888  0  2.797011  0
S  S140  1  0.13369072  0.16136055  0.56181731  1  0.23613  0  0.05533  0.106213  0  2.796597  0
S  S141  1  0.11649883  0.08839730  0.68808464  1  0.237577  0  0.05881  0.111275  0  2.794109  0
S  S142  1  0.97353971  0.80239586  0.40235662  1  0.236227  0  0.059821  0.112658  0  2.794047  0
S  S143  1  0.77579738  0.94690819  0.34770419  1  0.240918  0  0.056482  0.108097  0  2.798306  0
S  S144  1  0.61631853  0.58843885  0.18826224  1  0.238793  0  0.055384  0.105883  0  2.796081  0
S  S145  1  0.63359486  0.66170751  0.06203310  1  0.237316  0  0.058541  0.11085  0  2.792054  0
S  S146  1  0.01210970  0.18326761  0.11155827  1  0.295422  0  0.059101  0.1107  0  2.795078  0
S  S147  1  0.23789046  0.06688648  0.13815940  1  0.270817  0  0.059681  0.111824  0  2.793454  0
S  S148  1  0.27684642  0.44777815  0.84745129  1  0.237916  0  0.060103  0.112986  0  2.793812  0
S  S149  1  0.47410616  0.30274259  0.90240242  1  0.239244  0  0.056383  0.107077  0  2.796788  0
S  S150  1  0.95205550  0.92398916  0.85226918  1  0.234716  0  0.057348  0.108921  0  2.795496  0
S  S151  1  0.79754344  0.82662931  0.89778121  1  0.235314  0  0.058267  0.109807  0  2.793901  0
O  O152  1  0.00044608  0.49914856  0.50009946  1  -1.227845  0  -0.570126  -1.031896  0  2.525548  0
O  O153  1  0.07787325  0.31541838  0.52286202  1  -1.175578  0  -0.326623  -0.556915  0  2.325541  0
O  O154  1  0.03211981  0.53106515  0.58595326  1  -1.153335  0  -0.31114  -0.538431  0  2.32797  0
O  O155  1  0.15511821  0.50647496  0.44950153  1  -1.161896  0  -0.311925  -0.522335  0  2.330135  0
O  O156  1  0.02691310  0.37496311  0.58086892  1  -1.150887  0  -0.312206  -0.523715  0  2.334567  0
O  O157  1  0.15403540  0.39200514  0.44667059  1  -1.181269  0  -0.326711  -0.558  0  2.328155  0
O  O158  1  0.08348694  0.58670473  0.53017617  1  -1.137825  0  -0.309282  -0.535964  0  2.366223  0
O  O159  1  0.00351550  0.65738713  0.44946383  1  -1.172492  0  -0.323771  -0.550256  0  2.335268  0
O  O160  1  0.88796446  0.49483349  0.44342468  1  -1.163334  0  -0.309125  -0.536447  0  2.369189  0
O  O161  1  0.88990422  0.65269967  0.44764141  1  -1.171981  0  -0.312975  -0.525096  0  2.330688  0
O  O162  1  0.99730071  0.38625538  0.44126922  1  -1.168441  0  -0.31418  -0.544468  0  2.313159  0
O  O163  1  0.87593408  0.52614682  0.58144004  1  -1.16167  0  -0.313105  -0.525382  0  2.331154  0
O  O164  1  0.81520115  0.57711643  0.52354239  1  -1.154988  0  -0.323639  -0.550229  0  2.331731  0
O  O165  1  0.74916289  0.25040243  0.25027475  1  -1.229554  0  -0.569814  -1.031302  0  2.52333  0
O  O166  1  0.59591601  0.35764926  0.30337334  1  -1.178349  0  -0.325965  -0.555878  0  2.326637  0
O  O167  1  0.66524874  0.16256130  0.21887717  1  -1.160908  0  -0.311689  -0.539948  0  2.319527  0
O  O168  1  0.72608312  0.37484050  0.16928530  1  -1.168274  0  -0.312078  -0.523484  0  2.330372  0
O  O169  1  0.59440860  0.24363031  0.29976598  1  -1.164488  0  -0.313237  -0.525998  0  2.326402  0
O  O170  1  0.67226711  0.43434021  0.22717276  1  -1.177728  0  -0.32672  -0.557156  0  2.324677  0
O  O171  1  0.72076460  0.21832495  0.16520303  1  -1.146198  0  -0.308178  -0.53498  0  2.365558  0
O  O172  1  0.87739442  0.22347792  0.16923721  1  -1.173469  0  -0.32349  -0.550553  0  2.331787  0
O  O173  1  0.86072059  0.25470631  0.30792515  1  -1.163727  0  -0.307632  -0.53263  0  2.37507  0
O  O174  1  0.93413795  0.17253047  0.22840461  1  -1.137352  0  -0.311347  -0.520701  0  2.334549  0
O  O175  1  0.75258945  0.36453942  0.30853376  1  -1.17065  0  -0.313278  -0.543156  0  2.311636  0
O  O176  1  0.74628890  0.09174317  0.29978925  1  -1.167463  0  -0.325602  -0.555257  0  2.330477  0
O  O177  1  0.85873487  0.09732213  0.30350177  1  -1.149954  0  -0.311124  -0.519698  0  2.335059  0
O  O178  1  0.25022782  0.75008420  0.74990418  1  -1.227333  0  -0.570435  -1.030922  0  2.526004  0
O  O179  1  0.37426558  0.72378193  0.66874741  1  -1.158635  0  -0.312285  -0.52379  0  2.334579  0
O  O180  1  0.36351543  0.75536576  0.80773385  1  -1.177898  0  -0.312905  -0.541347  0  2.322298  0
O  O181  1  0.17137481  0.93434655  0.72687690  1  -1.167287  0  -0.324488  -0.552071  0  2.328607  0
O  O182  1  0.43469353  0.67399952  0.72681288  1  -1.167338  0  -0.325389  -0.55452  0  2.331034  0
O  O183  1  0.22337495  0.87476558  0.66893525  1  -1.153373  0  -0.312287  -0.524186  0  2.33309  0
O  O184  1  0.25223313  0.86208002  0.80772237  1  -1.158683  0  -0.309256  -0.536905  0  2.362561  0
O  O185  1  0.09503774  0.85815152  0.80279573  1  -1.175045  0  -0.324107  -0.551903  0  2.331284  0
O  O186  1  0.16634645  0.66345475  0.71981358  1  -1.138037  0  -0.309239  -0.535866  0  2.366243  0
O  O187  1  0.09483396  0.74309651  0.80054288  1  -1.162907  0  -0.31242  -0.523447  0  2.3305  0
O  O188  1  0.21796986  0.71891092  0.66406089  1  -1.151563  0  -0.310883  -0.538044  0  2.328407  0
O  O189  1  0.36017446  0.59806818  0.80298398  1  -1.148731  0  -0.31464  -0.529444  0  2.325557  0
O  O190  1  0.24729041  0.59244608  0.80038145  1  -1.172812  0  -0.323395  -0.550137  0  2.335599  0
O  O191  1  0.50006060  0.00029730  0.99971126  1  -1.230726  0  -0.569794  -1.031219  0  2.5239  0
O  O192  1  0.50321622  0.15834962  0.95024722  1  -1.174592  0  -0.324611  -0.552873  0  2.331856  0
O  O193  1  0.38777576  0.99477889  0.94097964  1  -1.17026  0  -0.310526  -0.537332  0  2.328456  0
O  O194  1  0.65466770  0.89253117  0.94722014  1  -1.169701  0  -0.324997  -0.552137  0  2.329845  0
O  O195  1  0.39149529  0.15177147  0.94593984  1  -1.162772  0  -0.312708  -0.523728  0  2.333016  0
O  O196  1  0.65543096  0.00710445  0.95018414  1  -1.159871  0  -0.314079  -0.527301  0  2.324935  0
O  O197  1  0.49780804  0.88684733  0.94249917  1  -1.159807  0  -0.309485  -0.537343  0  2.359499  0
O  O198  1  0.57883310  0.81568809  0.02323270  1  -1.165759  0  -0.324801  -0.552807  0  2.328091  0
O  O199  1  0.52912497  0.03180079  0.08477118  1  -1.148569  0  -0.308278  -0.534701  0  2.366407  0
O  O200  1  0.52378085  0.87540086  0.08094417  1  -1.155425  0  -0.311808  -0.523304  0  2.329072  0
O  O201  1  0.58495542  0.08721793  0.03109258  1  -1.161588  0  -0.311649  -0.539864  0  2.319666  0
O  O202  1  0.31576515  0.07649252  0.02116716  1  -1.148345  0  -0.312955  -0.524866  0  2.33272  0
O  O203  1  0.37241826  0.02700356  0.08044155  1  -1.173769  0  -0.323795  -0.549994  0  2.33504  0
O  O204  1  0.28626375  0.52496476  0.40969588  1  -1.083375  0  -0.328577  -0.393463  0  2.269338  0
O  O205  1  0.46347724  0.22482357  0.34022498  1  -1.083043  0  -0.331057  -0.396929  0  2.267674  0
O  O206  1  0.77953946  0.54034004  0.65634395  1  -1.122213  0  -0.330536  -0.396431  0  2.268266  0
O  O207  1  0.47052644  0.70937130  0.59390493  1  -1.117598  0  -0.330142  -0.396007  0  2.267422  0
O  O208  1  0.04091099  0.27897391  0.65564773  1  -1.097485  0  -0.329306  -0.395058  0  2.270257  0
O  O209  1  0.20928112  0.97081140  0.59423999  1  -1.101109  0  -0.329861  -0.394684  0  2.270799  0
O  O210  1  0.78543849  0.77850297  0.40209415  1  -1.079937  0  -0.329363  -0.394457  0  2.269856  0
O  O211  1  0.96349097  0.97136848  0.34818726  1  -1.080348  0  -0.328128  -0.392885  0  2.269101  0
O  O212  1  0.70965155  0.47098286  0.09441208  1  -1.098611  0  -0.328631  -0.394094  0  2.270307  0
O  O213  1  0.54006716  0.77909357  0.15590006  1  -1.116586  0  -0.329119  -0.394425  0  2.269898  0
O  O214  1  0.09438109  0.10195519  0.21776880  1  -1.097866  0  -0.32791  -0.392675  0  2.270496  0
O  O215  1  0.15525346  0.14809248  0.03202324  1  -1.094439  0  -0.329737  -0.395541  0  2.269511  0
O  O216  1  0.46501440  0.47124852  0.84819043  1  -1.067565  0  -0.330487  -0.396824  0  2.268941  0
O  O217  1  0.28617161  0.27896069  0.90155416  1  -1.117758  0  -0.330084  -0.396239  0  2.26912  0
O  O218  1  0.96335310  0.72494538  0.84044239  1  -1.079032  0  -0.329578  -0.395081  0  2.26841  0
O  O219  1  0.78671598  0.02553165  0.90959968  1  -1.122097  0  -0.331167  -0.398153  0  2.268641  0
F  F220  1  0.78228474  0.51548054  0.39881142  1  -0.623608  0  -0.101434  -0.136155  0  1.347128  0
F  F221  1  0.96745326  0.23529605  0.35125502  1  -0.623663  0  -0.099962  -0.134285  0  1.348852  0
F  F222  1  0.16006764  0.66026728  0.54271406  1  -0.622882  0  -0.101477  -0.135918  0  1.347476  0
F  F223  1  0.08996127  0.58977671  0.70722196  1  -0.620852  0  -0.101915  -0.136775  0  1.345259  0
F  F224  1  0.70754092  0.20679059  0.09004736  1  -0.622949  0  -0.101668  -0.136678  0  1.347579  0
F  F225  1  0.54244223  0.04322489  0.15989197  1  -0.628481  0  -0.101508  -0.136568  0  1.347485  0
F  F226  1  0.23447572  0.96836657  0.85120827  1  -0.624589  0  -0.101737  -0.136752  0  1.346687  0
F  F227  1  0.51594798  0.78087786  0.89853180  1  -0.620736  0  -0.102139  -0.137156  0  1.347303  0
