# generated using pymatgen
data_CuH4C3N4
_symmetry_space_group_name_H-M   'P 1'
_cell_length_a   8.22347421
_cell_length_b   9.72623547
_cell_length_c   14.58049828
_cell_angle_alpha   70.59509398
_cell_angle_beta   73.60978445
_cell_angle_gamma   64.97806018
_symmetry_Int_Tables_number   1
_chemical_formula_structural   CuH4C3N4
_chemical_formula_sum   'Cu8 H32 C24 N32'
_cell_volume   982.93206353
_cell_formula_units_Z   8
loop_
 _symmetry_equiv_pos_site_id
 _symmetry_equiv_pos_as_xyz
  1  'x, y, z'
loop_
 _atom_site_type_symbol
 _atom_site_label
 _atom_site_symmetry_multiplicity
 _atom_site_fract_x
 _atom_site_fract_y
 _atom_site_fract_z
 _atom_site_occupancy
 _atom_site_hle17_bader_spin_density
 _atom_site_hle17_ddec_charge
 _atom_site_hle17_ddec_spin_density
 _atom_site_hle17_ddec_sum_bond_order
 _atom_site_hle17_magmom
 _atom_site_hse06_10hf_bader_spin_density
 _atom_site_hse06_10hf_ddec_charge
 _atom_site_hse06_10hf_ddec_spin_density
 _atom_site_hse06_10hf_ddec_sum_bond_order
 _atom_site_hse06_10hf_magmom
 _atom_site_hse06_bader_spin_density
 _atom_site_hse06_ddec_charge
 _atom_site_hse06_ddec_spin_density
 _atom_site_hse06_ddec_sum_bond_order
 _atom_site_hse06_magmom
 _atom_site_pbe_bader_spin_density
 _atom_site_pbe_cm5_charge
 _atom_site_pbe_ddec_charge
 _atom_site_pbe_ddec_spin_density
 _atom_site_pbe_ddec_sum_bond_order
 _atom_site_pbe_magmom
Cu  Cu0  1  0.61441814  0.56718203  0.74823980  1  0  0.548491  0  2.104921  0  0  0.449983  0  2.631063  0  0  0.431705  0  2.595294  0  0  0.628094  0.466483  0  2.651969  0
Cu  Cu1  1  0.92969755  0.93285653  0.75174972  1  0  0.548858  0  2.104583  0  0  0.450856  0  2.630829  0  0  0.432532  0  2.59507  0  0  0.627674  0.467333  0  2.650982  0
Cu  Cu2  1  0.38558264  0.43281723  0.25176160  1  0  0.548551  0  2.104926  0  0  0.450022  0  2.631046  0  0  0.431742  0  2.595279  0  0  0.628104  0.466515  0  2.651989  0
Cu  Cu3  1  0.07030365  0.06714160  0.24824938  1  0  0.548838  0  2.104552  0  0  0.450891  0  2.630813  0  0  0.432557  0  2.595054  0  0  0.627672  0.467352  0  2.650964  0
Cu  Cu4  1  0.61237611  0.82153185  0.51727103  1  0  0.557275  0  1.956434  0  0  0.462284  0  2.451848  0  0  0.446572  0  2.416195  0  0  0.597051  0.475697  0  2.47345  0
Cu  Cu5  1  0.95116028  0.67848236  0.98287301  1  0  0.559049  0  1.955015  0  0  0.464574  0  2.4493  0  0  0.448913  0  2.413681  0  0  0.597083  0.476618  0  2.471916  0
Cu  Cu6  1  0.38762460  0.17846508  0.48273050  1  0  0.557258  0  1.956435  0  0  0.462241  0  2.451845  0  0  0.446527  0  2.416152  0  0  0.597049  0.475653  0  2.473463  0
Cu  Cu7  1  0.04883937  0.32151457  0.01712833  1  0  0.559018  0  1.955008  0  0  0.464555  0  2.449284  0  0  0.44895  0  2.413697  0  0  0.597082  0.476598  0  2.471896  0
H  H8  1  0.01314812  0.51436764  0.72408782  1  0  0.103656  0  0.922967  0  0  0.112428  0  0.982558  0  0  0.116227  0  0.980216  0  0  0.121273  0.109758  0  0.984385  0
H  H9  1  0.25182216  0.98530846  0.77594764  1  0  0.103387  0  0.922336  0  0  0.111909  0  0.982303  0  0  0.11565  0  0.980082  0  0  0.120394  0.108843  0  0.984687  0
H  H10  1  0.98685348  0.48563631  0.27591261  1  0  0.103641  0  0.923021  0  0  0.112409  0  0.982605  0  0  0.116206  0  0.980265  0  0  0.12127  0.109743  0  0.98443  0
H  H11  1  0.74817599  0.01469197  0.22405317  1  0  0.103365  0  0.922339  0  0  0.111891  0  0.982312  0  0  0.115633  0  0.980091  0  0  0.120386  0.108841  0  0.984675  0
H  H12  1  0.71705970  0.34962221  0.62639751  1  0  0.101041  0  0.936198  0  0  0.110674  0  0.998858  0  0  0.114166  0  0.996019  0  0  0.119887  0.108087  0  1.001074  0
H  H13  1  0.69317391  0.15013924  0.87366241  1  0  0.100703  0  0.936516  0  0  0.109955  0  0.99948  0  0  0.11352  0  0.996594  0  0  0.120307  0.107227  0  1.001953  0
H  H14  1  0.28294302  0.65037586  0.37360516  1  0  0.101006  0  0.936239  0  0  0.110663  0  0.998866  0  0  0.114155  0  0.996028  0  0  0.119852  0.108076  0  1.00108  0
H  H15  1  0.30682473  0.84986240  0.12633597  1  0  0.100682  0  0.936562  0  0  0.109953  0  0.999493  0  0  0.113519  0  0.996605  0  0  0.12029  0.107228  0  1.001963  0
H  H16  1  0.43421710  0.28090294  0.65678630  1  0  0.129603  0  0.963007  0  0  0.148517  0  1.025739  0  0  0.149868  0  1.026173  0  0  0.099328  0.147588  0  1.02528  0
H  H17  1  0.37196164  0.21890447  0.84315077  1  0  0.129442  0  0.963542  0  0  0.148521  0  1.02585  0  0  0.149772  0  1.026419  0  0  0.098789  0.147446  0  1.025696  0
H  H18  1  0.56578743  0.71910223  0.34321052  1  0  0.129625  0  0.962993  0  0  0.14853  0  1.025727  0  0  0.149879  0  1.026161  0  0  0.099326  0.1476  0  1.025267  0
H  H19  1  0.62803631  0.78109717  0.15684829  1  0  0.129436  0  0.963521  0  0  0.148515  0  1.025829  0  0  0.149766  0  1.026399  0  0  0.098785  0.147439  0  1.025675  0
H  H20  1  0.32257526  0.48483058  0.64538443  1  0  0.130267  0  0.954332  0  0  0.147342  0  1.016603  0  0  0.148269  0  1.018292  0  0  0.095594  0.14662  0  1.015451  0
H  H21  1  0.45300758  0.01497417  0.85454167  1  0  0.130909  0  0.953328  0  0  0.148189  0  1.015193  0  0  0.149144  0  1.016824  0  0  0.096009  0.147387  0  1.014123  0
H  H22  1  0.67742751  0.51517458  0.35461286  1  0  0.130361  0  0.954245  0  0  0.147384  0  1.016577  0  0  0.148316  0  1.018251  0  0  0.095617  0.146658  0  1.015431  0
H  H23  1  0.54698969  0.98502746  0.14545808  1  0  0.130911  0  0.953307  0  0  0.148194  0  1.015166  0  0  0.149149  0  1.016796  0  0  0.096012  0.14739  0  1.014099  0
H  H24  1  0.41513080  0.40782506  0.53754754  1  0  0.119924  0  0.956472  0  0  0.137843  0  1.024468  0  0  0.140888  0  1.022096  0  0  0.093972  0.13546  0  1.026385  0
H  H25  1  0.36067528  0.09195623  0.96238442  1  0  0.12046  0  0.955809  0  0  0.138183  0  1.023972  0  0  0.141259  0  1.021556  0  0  0.093972  0.13592  0  1.025643  0
H  H26  1  0.58486653  0.59218128  0.46244945  1  0  0.119933  0  0.956423  0  0  0.137863  0  1.02441  0  0  0.140906  0  1.022044  0  0  0.093982  0.135484  0  1.026317  0
H  H27  1  0.63932424  0.90804423  0.03761501  1  0  0.120446  0  0.955838  0  0  0.138166  0  1.024  0  0  0.141244  0  1.021578  0  0  0.093982  0.135903  0  1.025672  0
H  H28  1  0.05722058  0.23141792  0.42321871  1  0  0.120433  0  0.959864  0  0  0.134716  0  1.034703  0  0  0.13813  0  1.031115  0  0  0.094902  0.132064  0  1.037609  0
H  H29  1  0.71154245  0.26863379  0.07673871  1  0  0.12049  0  0.960112  0  0  0.134112  0  1.035713  0  0  0.137508  0  1.032175  0  0  0.093886  0.13155  0  1.038235  0
H  H30  1  0.94277783  0.76858604  0.57678110  1  0  0.120423  0  0.959907  0  0  0.134697  0  1.034744  0  0  0.13811  0  1.031157  0  0  0.094891  0.132043  0  1.03765  0
H  H31  1  0.28845750  0.73136317  0.92326105  1  0  0.120517  0  0.960065  0  0  0.134132  0  1.035664  0  0  0.137525  0  1.032134  0  0  0.093884  0.131557  0  1.038221  0
H  H32  1  0.85204628  0.21410117  0.49995567  1  0  0.127393  0  0.947439  0  0  0.14892  0  1.000466  0  0  0.149233  0  1.002839  0  0  0.096643  0.148569  0  0.999022  0
H  H33  1  0.56599622  0.28587943  0.99993878  1  0  0.128015  0  0.947272  0  0  0.149793  0  0.999997  0  0  0.150067  0  1.002416  0  0  0.096619  0.149484  0  0.998441  0
H  H34  1  0.14795319  0.78590279  0.50004434  1  0  0.127441  0  0.947387  0  0  0.148973  0  1.000409  0  0  0.149286  0  1.002781  0  0  0.09665  0.148619  0  0.998968  0
H  H35  1  0.43400243  0.71411984  0.00006220  1  0  0.127987  0  0.947219  0  0  0.149768  0  0.999946  0  0  0.150042  0  1.002366  0  0  0.096616  0.149467  0  0.998382  0
H  H36  1  0.06649625  0.07004844  0.52678547  1  0  0.132888  0  0.955608  0  0  0.149948  0  1.022947  0  0  0.152409  0  1.021717  0  0  0.099648  0.147874  0  1.024692  0
H  H37  1  0.66322538  0.42988526  0.97309709  1  0  0.132744  0  0.957682  0  0  0.149458  0  1.025452  0  0  0.151874  0  1.024271  0  0  0.09966  0.147513  0  1.026557  0
H  H38  1  0.93350384  0.92995319  0.47321400  1  0  0.132907  0  0.955593  0  0  0.149924  0  1.022979  0  0  0.152392  0  1.021742  0  0  0.099639  0.147849  0  1.02473  0
H  H39  1  0.33677426  0.57011167  0.02690425  1  0  0.132747  0  0.957675  0  0  0.149443  0  1.02547  0  0  0.151861  0  1.024289  0  0  0.099658  0.147501  0  1.026573  0
C  C40  1  0.16783914  0.37571131  0.61768495  1  0  0.27028  0  3.712176  0  0  0.278566  0  3.959053  0  0  0.284815  0  3.977188  0  0  0.113322  0.274153  0  3.947145  0
C  C41  1  0.16134729  0.12404361  0.88231563  1  0  0.272438  0  3.711965  0  0  0.280275  0  3.958794  0  0  0.286482  0  3.977073  0  0  0.11376  0.275747  0  3.947202  0
C  C42  1  0.83216220  0.62429149  0.38231386  1  0  0.270292  0  3.712085  0  0  0.278573  0  3.958956  0  0  0.284821  0  3.977089  0  0  0.113285  0.274161  0  3.947047  0
C  C43  1  0.83865185  0.87595687  0.11768292  1  0  0.27249  0  3.711921  0  0  0.280278  0  3.958818  0  0  0.286482  0  3.977094  0  0  0.113746  0.275751  0  3.947234  0
C  C44  1  0.01016030  0.44759781  0.67785011  1  0  0.004278  0  3.646496  0  0  -0.031372  0  3.907367  0  0  -0.030765  0  3.919663  0  0  0.034295  -0.032014  0  3.899753  0
C  C45  1  0.13577579  0.05211973  0.82217610  1  0  0.002849  0  3.645723  0  0  -0.032378  0  3.906409  0  0  -0.032093  0  3.919175  0  0  0.033593  -0.034041  0  3.899818  0
C  C46  1  0.98984135  0.55240264  0.32214974  1  0  0.004331  0  3.646428  0  0  -0.0313  0  3.907286  0  0  -0.030692  0  3.919583  0  0  0.034314  -0.031946  0  3.89968  0
C  C47  1  0.86422305  0.94788072  0.17782403  1  0  0.00289  0  3.645631  0  0  -0.032342  0  3.906358  0  0  -0.032058  0  3.919125  0  0  0.033612  -0.034013  0  3.899768  0
C  C48  1  0.84646016  0.35794827  0.62349918  1  0  0.011501  0  3.643342  0  0  -0.027688  0  3.908602  0  0  -0.024942  0  3.917287  0  0  0.035597  -0.02982  0  3.903208  0
C  C49  1  0.82799503  0.14182021  0.87655050  1  0  0.011658  0  3.641885  0  0  -0.027188  0  3.906221  0  0  -0.024622  0  3.915176  0  0  0.03612  -0.029271  0  3.901057  0
C  C50  1  0.15354150  0.64204981  0.37650328  1  0  0.011472  0  3.643348  0  0  -0.027739  0  3.908594  0  0  -0.024997  0  3.917278  0  0  0.035596  -0.029867  0  3.903197  0
C  C51  1  0.17200392  0.85817908  0.12344891  1  0  0.011704  0  3.641922  0  0  -0.02716  0  3.906238  0  0  -0.024595  0  3.915196  0  0  0.036116  -0.02924  0  3.901069  0
C  C52  1  0.00145419  0.28433941  0.56261444  1  0  0.276006  0  3.724108  0  0  0.280879  0  3.979083  0  0  0.288719  0  3.993176  0  0  0.113562  0.2751  0  3.969949  0
C  C53  1  0.84845009  0.21546469  0.93740355  1  0  0.276809  0  3.719715  0  0  0.282141  0  3.973038  0  0  0.289859  0  3.987374  0  0  0.115418  0.276713  0  3.963444  0
C  C54  1  0.99854597  0.71566217  0.43738750  1  0  0.276095  0  3.724052  0  0  0.280989  0  3.978984  0  0  0.28884  0  3.993058  0  0  0.113614  0.275214  0  3.969847  0
C  C55  1  0.15154681  0.78453457  0.06259792  1  0  0.276689  0  3.719744  0  0  0.28205  0  3.973025  0  0  0.289764  0  3.987356  0  0  0.115372  0.276625  0  3.963433  0
C  C56  1  0.34390929  0.38913190  0.61419726  1  0  -0.385851  0  3.703701  0  0  -0.464444  0  3.937692  0  0  -0.467443  0  3.943193  0  0  -0.245228  -0.46198  0  3.933927  0
C  C57  1  0.34736680  0.11065275  0.88574789  1  0  -0.386331  0  3.702868  0  0  -0.464999  0  3.936808  0  0  -0.468  0  3.942344  0  0  -0.244346  -0.462521  0  3.933199  0
C  C58  1  0.65609185  0.61087210  0.38579981  1  0  -0.385921  0  3.703636  0  0  -0.464484  0  3.937657  0  0  -0.46748  0  3.943158  0  0  -0.245216  -0.462021  0  3.933889  0
C  C59  1  0.65263272  0.88934771  0.11425155  1  0  -0.386324  0  3.702849  0  0  -0.46497  0  3.936796  0  0  -0.46797  0  3.942328  0  0  -0.244357  -0.462493  0  3.933184  0
C  C60  1  0.99289022  0.19582370  0.49954392  1  0  -0.394918  0  3.743956  0  0  -0.478083  0  3.98548  0  0  -0.481067  0  3.990983  0  0  -0.24879  -0.475684  0  3.982642  0
C  C61  1  0.68815744  0.30411712  0.00038539  1  0  -0.395136  0  3.744534  0  0  -0.478566  0  3.986419  0  0  -0.48152  0  3.99188  0  0  -0.248135  -0.475999  0  3.982747  0
C  C62  1  0.00710974  0.80417909  0.50045627  1  0  -0.394987  0  3.743917  0  0  -0.478144  0  3.985483  0  0  -0.481136  0  3.990974  0  0  -0.248821  -0.475748  0  3.982644  0
C  C63  1  0.31183839  0.69588214  0.99961588  1  0  -0.395109  0  3.744465  0  0  -0.478518  0  3.98636  0  0  -0.481472  0  3.991813  0  0  -0.248112  -0.475959  0  3.982676  0
N  N64  1  0.16444593  0.29192548  0.55986496  1  0  -0.370267  0  3.258183  0  0  -0.31518  0  3.557088  0  0  -0.318306  0  3.560047  0  0  -0.355439  -0.313288  0  3.554627  0
N  N65  1  0.01629908  0.20788742  0.94011900  1  0  -0.372009  0  3.257836  0  0  -0.316518  0  3.555964  0  0  -0.319817  0  3.559141  0  0  -0.356285  -0.314948  0  3.553543  0
N  N66  1  0.83555611  0.70807496  0.44013578  1  0  -0.370346  0  3.258196  0  0  -0.315261  0  3.557101  0  0  -0.318392  0  3.560064  0  0  -0.35546  -0.313371  0  3.554637  0
N  N67  1  0.98369901  0.79211068  0.05988196  1  0  -0.372037  0  3.257792  0  0  -0.316534  0  3.55592  0  0  -0.319801  0  3.55905  0  0  -0.356273  -0.314967  0  3.553507  0
N  N68  1  0.84830720  0.43996916  0.68140213  1  0  -0.245378  0  3.413367  0  0  -0.190004  0  3.73594  0  0  -0.185742  0  3.735623  0  0  -0.357803  -0.193318  0  3.735853  0
N  N69  1  0.96982016  0.05974304  0.81866026  1  0  -0.245136  0  3.413407  0  0  -0.190133  0  3.735777  0  0  -0.186074  0  3.735876  0  0  -0.359874  -0.193402  0  3.73577  0
N  N70  1  0.15169583  0.56002894  0.31859896  1  0  -0.245411  0  3.413331  0  0  -0.190033  0  3.735889  0  0  -0.185774  0  3.735575  0  0  -0.357788  -0.193349  0  3.73581  0
N  N71  1  0.03017761  0.94025742  0.18133966  1  0  -0.245116  0  3.413342  0  0  -0.190127  0  3.73574  0  0  -0.186061  0  3.735834  0  0  -0.359825  -0.193397  0  3.735733  0
N  N72  1  0.47290799  0.71714728  0.63359299  1  0  -0.555907  0  3.037598  0  0  -0.53361  0  3.421341  0  0  -0.536169  0  3.411405  0  0  -0.366257  -0.532643  0  3.427711  0
N  N73  1  0.82369762  0.78279843  0.86648502  1  0  -0.557312  0  3.035454  0  0  -0.534919  0  3.418736  0  0  -0.53761  0  3.408951  0  0  -0.366007  -0.534304  0  3.425665  0
N  N74  1  0.52709402  0.28284733  0.36640732  1  0  -0.555884  0  3.037612  0  0  -0.533568  0  3.421299  0  0  -0.53612  0  3.411355  0  0  -0.366225  -0.532605  0  3.427689  0
N  N75  1  0.17630159  0.21720200  0.13351600  1  0  -0.55731  0  3.035576  0  0  -0.534944  0  3.418881  0  0  -0.537644  0  3.409116  0  0  -0.366029  -0.534326  0  3.425801  0
N  N76  1  0.31012035  0.76870944  0.65635219  1  0  0.39985  0  4.186369  0  0  0.441549  0  4.446644  0  0  0.452134  0  4.476816  0  0  0.071323  0.4348  0  4.426256  0
N  N77  1  0.73537424  0.73116915  0.84369319  1  0  0.400156  0  4.185913  0  0  0.441787  0  4.445725  0  0  0.452282  0  4.47612  0  0  0.069907  0.435012  0  4.426141  0
N  N78  1  0.68987698  0.23128631  0.34364959  1  0  0.399932  0  4.186319  0  0  0.441639  0  4.446591  0  0  0.452222  0  4.476768  0  0  0.071305  0.434893  0  4.426205  0
N  N79  1  0.26462478  0.26883248  0.15630607  1  0  0.400184  0  4.185964  0  0  0.441823  0  4.445769  0  0  0.452322  0  4.476165  0  0  0.069917  0.435051  0  4.426183  0
N  N80  1  0.15097914  0.81094083  0.67908652  1  0  -0.456303  0  2.849888  0  0  -0.433632  0  3.178565  0  0  -0.437822  0  3.179198  0  0  -0.281967  -0.430758  0  3.177019  0
N  N81  1  0.64134932  0.68887803  0.82091580  1  0  -0.455479  0  2.850195  0  0  -0.431654  0  3.177425  0  0  -0.436184  0  3.178391  0  0  -0.281309  -0.429829  0  3.177006  0
N  N82  1  0.84902382  0.18905493  0.32091471  1  0  -0.456436  0  2.849852  0  0  -0.433774  0  3.178531  0  0  -0.437966  0  3.179166  0  0  -0.281996  -0.430892  0  3.176976  0
N  N83  1  0.35865095  0.31112478  0.17908281  1  0  -0.455521  0  2.850124  0  0  -0.431703  0  3.17736  0  0  -0.436237  0  3.178325  0  0  -0.281306  -0.42988  0  3.176952  0
N  N84  1  0.43909477  0.46026388  0.81803040  1  0  -0.484722  0  2.790245  0  0  -0.461712  0  3.104235  0  0  -0.469014  0  3.109508  0  0  -0.290537  -0.458017  0  3.100877  0
N  N85  1  0.71736274  0.03972094  0.68195307  1  0  -0.486974  0  2.789476  0  0  -0.464726  0  3.103946  0  0  -0.471901  0  3.109047  0  0  -0.292051  -0.460321  0  3.099692  0
N  N86  1  0.56091025  0.53972954  0.18197137  1  0  -0.484762  0  2.790342  0  0  -0.461742  0  3.104303  0  0  -0.469049  0  3.109581  0  0  -0.290602  -0.458045  0  3.100952  0
N  N87  1  0.28263773  0.96028067  0.31804729  1  0  -0.486993  0  2.789592  0  0  -0.464737  0  3.10412  0  0  -0.471904  0  3.109216  0  0  -0.292011  -0.460332  0  3.099857  0
N  N88  1  0.30158468  0.47762029  0.87500666  1  0  0.39528  0  4.217243  0  0  0.440536  0  4.472335  0  0  0.450199  0  4.504862  0  0  0.070207  0.434282  0  4.451028  0
N  N89  1  0.65417541  0.02233691  0.62500914  1  0  0.397326  0  4.212593  0  0  0.44321  0  4.467195  0  0  0.452829  0  4.499606  0  0  0.072883  0.437112  0  4.445538  0
N  N90  1  0.69842122  0.52237432  0.12499357  1  0  0.395346  0  4.217368  0  0  0.440604  0  4.472466  0  0  0.450268  0  4.504997  0  0  0.070326  0.434348  0  4.451165  0
N  N91  1  0.34582229  0.97766121  0.37499092  1  0  0.397537  0  4.212424  0  0  0.443363  0  4.467085  0  0  0.452983  0  4.499496  0  0  0.072969  0.437266  0  4.445424  0
N  N92  1  0.16435006  0.48820082  0.93316092  1  0  -0.536088  0  2.963908  0  0  -0.51028  0  3.317189  0  0  -0.513093  0  3.311128  0  0  -0.33804  -0.509029  0  3.32164  0
N  N93  1  0.58564578  0.01175367  0.56689344  1  0  -0.535607  0  2.961745  0  0  -0.510004  0  3.314969  0  0  -0.512822  0  3.308909  0  0  -0.338693  -0.509186  0  3.319227  0
N  N94  1  0.83565252  0.51179496  0.06683941  1  0  -0.536123  0  2.964011  0  0  -0.510327  0  3.317309  0  0  -0.513135  0  3.31124  0  0  -0.338091  -0.509076  0  3.321766  0
N  N95  1  0.41435220  0.98824321  0.43311084  1  0  -0.535815  0  2.961546  0  0  -0.510185  0  3.314814  0  0  -0.513007  0  3.308754  0  0  -0.33882  -0.509366  0  3.319075  0
