# generated using pymatgen
data_CdH24(C9N7)2
_symmetry_space_group_name_H-M   'P 1'
_cell_length_a   7.64841809
_cell_length_b   8.83762391
_cell_length_c   9.61710187
_cell_angle_alpha   76.07875875
_cell_angle_beta   77.14114320
_cell_angle_gamma   65.93021873
_symmetry_Int_Tables_number   1
_chemical_formula_structural   CdH24(C9N7)2
_chemical_formula_sum   'Cd1 H24 C18 N14'
_cell_volume   570.39404495
_cell_formula_units_Z   1
loop_
 _symmetry_equiv_pos_site_id
 _symmetry_equiv_pos_as_xyz
  1  'x, y, z'
loop_
 _atom_site_type_symbol
 _atom_site_label
 _atom_site_symmetry_multiplicity
 _atom_site_fract_x
 _atom_site_fract_y
 _atom_site_fract_z
 _atom_site_occupancy
 _atom_site_hle17_bader_spin_density
 _atom_site_hle17_ddec_charge
 _atom_site_hle17_ddec_spin_density
 _atom_site_hle17_ddec_sum_bond_order
 _atom_site_hle17_magmom
 _atom_site_hse06_10hf_bader_spin_density
 _atom_site_hse06_10hf_ddec_charge
 _atom_site_hse06_10hf_ddec_spin_density
 _atom_site_hse06_10hf_ddec_sum_bond_order
 _atom_site_hse06_10hf_magmom
 _atom_site_hse06_bader_spin_density
 _atom_site_hse06_ddec_charge
 _atom_site_hse06_ddec_spin_density
 _atom_site_hse06_ddec_sum_bond_order
 _atom_site_hse06_magmom
 _atom_site_pbe_bader_spin_density
 _atom_site_pbe_cm5_charge
 _atom_site_pbe_ddec_charge
 _atom_site_pbe_ddec_spin_density
 _atom_site_pbe_ddec_sum_bond_order
 _atom_site_pbe_magmom
Cd  Cd0  1  0.99999976  0.49999996  0.00000126  1  0  0.983729  0  1.919528  0  0  0.785875  0  2.385607  0  0  0.831345  0  2.348668  0  0  0.776684  0.754709  0  2.410212  0
H  H1  1  0.15843874  0.08031204  0.14395029  1  0  0.085654  0  0.936752  0  0  0.096621  0  1.005032  0  0  0.096934  0  1.006094  0  0  0.110633  0.096367  0  1.00435  0
H  H2  1  0.84155836  0.91968758  0.85604853  1  0  0.085667  0  0.936784  0  0  0.096615  0  1.005062  0  0  0.096931  0  1.006119  0  0  0.110627  0.09636  0  1.004378  0
H  H3  1  0.16041426  0.89345396  0.10344640  1  0  0.078776  0  0.945769  0  0  0.092897  0  1.010756  0  0  0.093498  0  1.011014  0  0  0.110308  0.092148  0  1.011095  0
H  H4  1  0.83958495  0.10654694  0.89655173  1  0  0.078769  0  0.945729  0  0  0.092878  0  1.010713  0  0  0.09348  0  1.010972  0  0  0.110295  0.092129  0  1.011053  0
H  H5  1  0.95554323  0.97538778  0.33619163  1  0  0.08606  0  0.954876  0  0  0.100303  0  1.023334  0  0  0.101398  0  1.023152  0  0  0.095751  0.099447  0  1.023637  0
H  H6  1  0.04445548  0.02461437  0.66380839  1  0  0.086078  0  0.954865  0  0  0.100316  0  1.023324  0  0  0.101409  0  1.023144  0  0  0.095772  0.099461  0  1.023624  0
H  H7  1  0.16335688  0.94656807  0.40776437  1  0  0.081842  0  0.931788  0  0  0.099047  0  0.993144  0  0  0.09978  0  0.993988  0  0  0.095274  0.098279  0  0.99306  0
H  H8  1  0.83664419  0.05343159  0.59223263  1  0  0.081821  0  0.931836  0  0  0.099018  0  0.993197  0  0  0.099751  0  0.994041  0  0  0.095266  0.09825  0  0.993112  0
H  H9  1  0.47522333  0.66256385  0.05551279  1  0  0.097368  0  0.967274  0  0  0.101719  0  1.039668  0  0  0.103943  0  1.037609  0  0  0.13078  0.099963  0  1.041341  0
H  H10  1  0.52477530  0.33743832  0.94448413  1  0  0.097366  0  0.967295  0  0  0.101721  0  1.039691  0  0  0.103944  0  1.037632  0  0  0.130777  0.099965  0  1.041365  0
H  H11  1  0.47740470  0.04596367  0.24733712  1  0  0.111592  0  0.996651  0  0  0.117859  0  1.066318  0  0  0.120212  0  1.065433  0  0  0.116521  0.116165  0  1.066975  0
H  H12  1  0.52259453  0.95403723  0.75266204  1  0  0.111586  0  0.996652  0  0  0.117856  0  1.066313  0  0  0.120208  0  1.06543  0  0  0.116511  0.116162  0  1.066968  0
H  H13  1  0.85570344  0.84325100  0.15819477  1  0  0.098509  0  0.970691  0  0  0.108326  0  1.034551  0  0  0.110642  0  1.033668  0  0  0.113433  0.106707  0  1.035281  0
H  H14  1  0.14429444  0.15674990  0.84180362  1  0  0.098556  0  0.970691  0  0  0.108389  0  1.034531  0  0  0.110704  0  1.033646  0  0  0.113453  0.106771  0  1.03526  0
H  H15  1  0.11748502  0.66674845  0.29704937  1  0  0.080492  0  0.936868  0  0  0.094583  0  1.004784  0  0  0.094985  0  1.005264  0  0  0.110439  0.093958  0  1.005087  0
H  H16  1  0.88251074  0.33325116  0.70294971  1  0  0.080374  0  0.936855  0  0  0.094437  0  1.004839  0  0  0.094836  0  1.005321  0  0  0.110397  0.093813  0  1.005142  0
H  H17  1  0.30341448  0.64208975  0.39111324  1  0  0.073269  0  0.911055  0  0  0.091693  0  0.968384  0  0  0.092358  0  0.968102  0  0  0.112604  0.09122  0  0.968521  0
H  H18  1  0.69658665  0.35790991  0.60888584  1  0  0.073271  0  0.911029  0  0  0.091688  0  0.968376  0  0  0.092353  0  0.968094  0  0  0.11261  0.091215  0  0.968515  0
H  H19  1  0.75072905  0.77901524  0.45500932  1  0  0.111828  0  0.964815  0  0  0.121737  0  1.026564  0  0  0.124069  0  1.026106  0  0  0.119445  0.120117  0  1.026929  0
H  H20  1  0.24927026  0.22098564  0.54499295  1  0  0.111807  0  0.96481  0  0  0.121736  0  1.026543  0  0  0.124069  0  1.026083  0  0  0.119435  0.120117  0  1.026906  0
H  H21  1  0.65324779  0.67736847  0.74770101  1  0  0.10127  0  0.99438  0  0  0.105668  0  1.0635  0  0  0.108274  0  1.061946  0  0  0.108785  0.103808  0  1.064543  0
H  H22  1  0.34675397  0.32262992  0.25230135  1  0  0.101263  0  0.994341  0  0  0.105644  0  1.063479  0  0  0.10825  0  1.061925  0  0  0.108775  0.103783  0  1.064526  0
H  H23  1  0.25520308  0.56599410  0.65749106  1  0  0.090246  0  0.950882  0  0  0.096686  0  1.01923  0  0  0.099207  0  1.016089  0  0  0.130814  0.094825  0  1.021598  0
H  H24  1  0.74479752  0.43400681  0.34250888  1  0  0.090244  0  0.950896  0  0  0.096685  0  1.019248  0  0  0.099209  0  1.016102  0  0  0.130813  0.094825  0  1.021615  0
C  C25  1  0.20457672  0.94377640  0.17798918  1  0  -0.000708  0  3.614796  0  0  -0.060251  0  3.868605  0  0  -0.056189  0  3.880516  0  0  -0.05514  -0.062789  0  3.860562  0
C  C26  1  0.79542357  0.05622200  0.82200826  1  0  -0.000759  0  3.614862  0  0  -0.060233  0  3.868552  0  0  -0.056171  0  3.880465  0  0  -0.05512  -0.062771  0  3.860505  0
C  C27  1  0.11213014  0.90283138  0.33259402  1  0  -0.155256  0  3.673071  0  0  -0.200039  0  3.937252  0  0  -0.202195  0  3.950132  0  0  -0.164927  -0.198419  0  3.928624  0
C  C28  1  0.88786754  0.09716698  0.66740601  1  0  -0.155255  0  3.673241  0  0  -0.20002  0  3.937378  0  0  -0.202175  0  3.950259  0  0  -0.164916  -0.198398  0  3.928751  0
C  C29  1  0.53215153  0.73645227  0.09470123  1  0  0.150174  0  3.660691  0  0  0.090705  0  3.926546  0  0  0.103429  0  3.940915  0  0  0.133374  0.082374  0  3.916687  0
C  C30  1  0.46784765  0.26354864  0.90529586  1  0  0.150233  0  3.660734  0  0  0.090754  0  3.926592  0  0  0.10348  0  3.940959  0  0  0.133424  0.082423  0  3.916734  0
C  C31  1  0.53426523  0.93511137  0.19694269  1  0  -0.070673  0  3.684992  0  0  -0.110823  0  3.942253  0  0  -0.10895  0  3.961  0  0  -0.006063  -0.112053  0  3.929551  0
C  C32  1  0.46573264  0.06488952  0.80305569  1  0  -0.070663  0  3.684906  0  0  -0.110828  0  3.9422  0  0  -0.108958  0  3.96095  0  0  -0.006056  -0.112056  0  3.929494  0
C  C33  1  0.72067103  0.83376563  0.15272925  1  0  -0.014241  0  3.783439  0  0  -0.049724  0  4.058126  0  0  -0.048157  0  4.078094  0  0  -0.011768  -0.050656  0  4.044434  0
C  C34  1  0.27932684  0.16623526  0.84726914  1  0  -0.014348  0  3.783473  0  0  -0.049852  0  4.058157  0  0  -0.048281  0  4.078121  0  0  -0.011809  -0.050785  0  4.044467  0
C  C35  1  0.15067922  0.71544764  0.37879683  1  0  0.005709  0  3.631943  0  0  -0.060672  0  3.898151  0  0  -0.056123  0  3.909498  0  0  -0.052298  -0.063658  0  3.890626  0
C  C36  1  0.84932277  0.28454698  0.62120217  1  0  0.005876  0  3.631957  0  0  -0.060519  0  3.898193  0  0  -0.055969  0  3.90954  0  0  -0.052288  -0.063511  0  3.890674  0
C  C37  1  0.83860212  0.72145088  0.54185324  1  0  -0.072407  0  3.675998  0  0  -0.110638  0  3.929234  0  0  -0.109152  0  3.947987  0  0  -0.004929  -0.11153  0  3.916387  0
C  C38  1  0.16139775  0.27854874  0.45814921  1  0  -0.072432  0  3.675979  0  0  -0.110695  0  3.929204  0  0  -0.10921  0  3.947954  0  0  -0.004951  -0.111586  0  3.916357  0
C  C39  1  0.79370571  0.67038465  0.68753900  1  0  -0.012158  0  3.774187  0  0  -0.042396  0  4.042496  0  0  -0.040397  0  4.061276  0  0  -0.011285  -0.043454  0  4.029524  0
C  C40  1  0.20629471  0.32961372  0.31246363  1  0  -0.012078  0  3.774146  0  0  -0.042305  0  4.042478  0  0  -0.040304  0  4.061254  0  0  -0.01123  -0.043363  0  4.029507  0
C  C41  1  0.10417980  0.60795324  0.64563622  1  0  0.159871  0  3.682375  0  0  0.097082  0  3.953562  0  0  0.110505  0  3.967033  0  0  0.136041  0.088132  0  3.944822  0
C  C42  1  0.89582160  0.39204893  0.35436432  1  0  0.159871  0  3.682474  0  0  0.097071  0  3.953652  0  0  0.110496  0  3.967121  0  0  0.136046  0.08812  0  3.944913  0
N  N43  1  0.71756366  0.71070627  0.08904796  1  0  -0.385991  0  3.268951  0  0  -0.312563  0  3.552599  0  0  -0.332225  0  3.571306  0  0  -0.360849  -0.299086  0  3.539339  0
N  N44  1  0.28243688  0.28929465  0.91094991  1  0  -0.385989  0  3.268986  0  0  -0.312562  0  3.552647  0  0  -0.332223  0  3.571348  0  0  -0.360849  -0.299084  0  3.539387  0
N  N45  1  0.41628531  0.87224292  0.15893689  1  0  -0.061328  0  3.559366  0  0  0.037195  0  3.770123  0  0  0.022208  0  3.797265  0  0  -0.244042  0.047095  0  3.751704  0
N  N46  1  0.58371578  0.12775674  0.84106115  1  0  -0.0613  0  3.559369  0  0  0.037217  0  3.770111  0  0  0.022227  0  3.797253  0  0  -0.244053  0.047118  0  3.75169  0
N  N47  1  0.96062996  0.60024195  0.75129354  1  0  -0.381892  0  3.228444  0  0  -0.311334  0  3.511552  0  0  -0.330371  0  3.52893  0  0  -0.358597  -0.298475  0  3.499625  0
N  N48  1  0.03937255  0.39975771  0.24870735  1  0  -0.381898  0  3.228554  0  0  -0.311346  0  3.511672  0  0  -0.330384  0  3.529052  0  0  -0.358603  -0.298488  0  3.499748  0
N  N49  1  0.74632275  0.27650952  0.12900646  1  0  0.374076  0  4.296604  0  0  0.412888  0  4.581011  0  0  0.427699  0  4.61072  0  0  0.058355  0.40301  0  4.560548  0
N  N50  1  0.25368185  0.72349143  0.87099271  1  0  0.374052  0  4.296472  0  0  0.412857  0  4.580899  0  0  0.427664  0  4.610612  0  0  0.058342  0.402978  0  4.560436  0
N  N51  1  0.03653533  0.68055036  0.51701658  1  0  -0.065653  0  3.581389  0  0  0.030782  0  3.799509  0  0  0.015787  0  3.826763  0  0  -0.245736  0.040712  0  3.781147  0
N  N52  1  0.96346451  0.31944928  0.48298484  1  0  -0.065702  0  3.581421  0  0  0.030779  0  3.799501  0  0  0.015785  0  3.826753  0  0  -0.245731  0.040711  0  3.781137  0
N  N53  1  0.81374160  0.33280519  0.01337574  1  0  -0.576586  0  2.56573  0  0  -0.552358  0  2.841458  0  0  -0.570276  0  2.848382  0  0  -0.307226  -0.539817  0  2.836824  0
N  N54  1  0.18625885  0.66719317  0.98662792  1  0  -0.576647  0  2.56555  0  0  -0.552393  0  2.84125  0  0  -0.570315  0  2.84818  0  0  -0.307237  -0.539851  0  2.836614  0
N  N55  1  0.67789108  0.22028563  0.24136074  1  0  -0.481702  0  2.423433  0  0  -0.47792  0  2.651674  0  0  -0.486564  0  2.660519  0  0  -0.248059  -0.471734  0  2.64583  0
N  N56  1  0.32211202  0.77971276  0.75864137  1  0  -0.481633  0  2.423541  0  0  -0.477856  0  2.651802  0  0  -0.486478  0  2.660625  0  0  -0.248022  -0.471672  0  2.645956  0
