# generated using pymatgen
data_Cu2H8C13N6
_symmetry_space_group_name_H-M   'P 1'
_cell_length_a   5.16686409
_cell_length_b   8.24134607
_cell_length_c   15.49104483
_cell_angle_alpha   89.99321506
_cell_angle_beta   89.98361677
_cell_angle_gamma   93.80587532
_symmetry_Int_Tables_number   1
_chemical_formula_structural   Cu2H8C13N6
_chemical_formula_sum   'Cu4 H16 C26 N12'
_cell_volume   658.18360034
_cell_formula_units_Z   2
loop_
 _symmetry_equiv_pos_site_id
 _symmetry_equiv_pos_as_xyz
  1  'x, y, z'
loop_
 _atom_site_type_symbol
 _atom_site_label
 _atom_site_symmetry_multiplicity
 _atom_site_fract_x
 _atom_site_fract_y
 _atom_site_fract_z
 _atom_site_occupancy
 _atom_site_pbe_bader_charge
 _atom_site_pbe_bader_spin_density
 _atom_site_pbe_cm5_charge
 _atom_site_pbe_ddec_charge
 _atom_site_pbe_ddec_spin_density
 _atom_site_pbe_ddec_sum_bond_order
 _atom_site_pbe_magmom
Cu  Cu0  1  0.09608379  0.29624735  0.50040336  1  0.704177  0  0.579639  0.391529  0  2.39644  0
Cu  Cu1  1  0.90593311  0.70681538  0.50033231  1  0.639881  0  0.493244  0.292506  0  2.565476  0
Cu  Cu2  1  0.00096223  0.00106439  0.83737019  1  0.686984  0  0.563276  0.341164  0  2.458656  0
Cu  Cu3  1  0.00116646  0.00066066  0.15651101  1  0.610619  0  0.474099  0.248743  0  2.609536  0
H  H4  1  0.83964435  0.08707007  0.65644331  1  0.102196  0  0.108448  0.077789  0  1.036126  0
H  H5  1  0.49987194  0.24539412  0.59227403  1  0.040449  0  0.099005  0.097782  0  1.042049  0
H  H6  1  0.24797214  0.35240990  0.85081688  1  0.123562  0  0.11297  0.127222  0  0.99457  0
H  H7  1  0.60574224  0.18842702  0.90580482  1  0.083863  0  0.116151  0.090924  0  0.98924  0
H  H8  1  0.15932756  0.91284163  0.65693966  1  0.087139  0  0.106467  0.073914  0  1.041516  0
H  H9  1  0.49760316  0.75377867  0.59244630  1  0.109057  0  0.097466  0.096367  0  1.045858  0
H  H10  1  0.75166336  0.64717090  0.85074519  1  0.125568  0  0.112903  0.126664  0  0.994939  0
H  H11  1  0.39452996  0.81148249  0.90605255  1  0.079876  0  0.116009  0.090594  0  0.989816  0
H  H12  1  0.15948244  0.91419308  0.34297435  1  0.101316  0  0.107205  0.07568  0  1.0383  0
H  H13  1  0.49702667  0.75548406  0.40780669  1  0.10637  0  0.09787  0.096591  0  1.04653  0
H  H14  1  0.75021419  0.64564849  0.14981515  1  0.108553  0  0.112388  0.125569  0  0.996334  0
H  H15  1  0.39421939  0.80951934  0.09424810  1  0.081421  0  0.113307  0.084216  0  1.000883  0
H  H16  1  0.84039437  0.08558637  0.34357610  1  0.107202  0  0.108705  0.078266  0  1.034125  0
H  H17  1  0.50136243  0.24365898  0.40809405  1  0.042719  0  0.098914  0.09728  0  1.043518  0
H  H18  1  0.25067335  0.35372296  0.14984529  1  0.115646  0  0.112731  0.126181  0  0.996108  0
H  H19  1  0.60712593  0.18989316  0.09461927  1  0.088673  0  0.113076  0.083849  0  1.001549  0
C  C20  1  0.14414039  0.41512139  0.68611635  1  0.943973  0  0.201008  0.248915  0  4.078986  0
C  C21  1  0.70570455  0.14700394  0.69809167  1  0.490016  0  0.036368  0.089334  0  3.949633  0
C  C22  1  0.51318639  0.23559155  0.66229487  1  -0.010097  0  -0.084608  -0.148517  0  3.927885  0
C  C23  1  0.34287276  0.31252646  0.71685231  1  -0.016289  0  0.0126  0.068335  0  3.988363  0
C  C24  1  0.37525281  0.29342419  0.80640717  1  0.024469  0  -0.084256  -0.168096  0  3.968465  0
C  C25  1  0.57449594  0.20454263  0.83679735  1  0.458992  0  0.039947  0.091129  0  3.949859  0
C  C26  1  0.85461965  0.58446809  0.68603607  1  0.949097  0  0.20153  0.247042  0  4.072906  0
C  C27  1  0.29346214  0.85282113  0.69845806  1  0.474528  0  0.036679  0.09073  0  3.95343  0
C  C28  1  0.48520031  0.76381322  0.66247084  1  -0.09082  0  -0.084003  -0.150728  0  3.933388  0
C  C29  1  0.65592295  0.68700366  0.71687892  1  -0.010701  0  0.01228  0.06871  0  3.988484  0
C  C30  1  0.62403968  0.70612981  0.80646174  1  0.020098  0  -0.083673  -0.166526  0  3.966355  0
C  C31  1  0.42533943  0.79522107  0.83703642  1  0.46025  0  0.039825  0.090504  0  3.951335  0
C  C32  1  0.85473932  0.58441410  0.31458468  1  0.93955  0  0.201293  0.245989  0  4.06971  0
C  C33  1  0.29320587  0.85372157  0.30146996  1  0.44144  0  0.037439  0.091134  0  3.943801  0
C  C34  1  0.48481253  0.76470857  0.33775483  1  -0.075927  0  -0.084739  -0.152472  0  3.932341  0
C  C35  1  0.65562350  0.68698289  0.28366348  1  0.061378  0  0.013728  0.071201  0  3.980308  0
C  C36  1  0.62315661  0.70515974  0.19406217  1  -0.021932  0  -0.083719  -0.162372  0  3.961199  0
C  C37  1  0.42491725  0.79439209  0.16330979  1  0.459884  0  0.039043  0.086097  0  3.955507  0
C  C38  1  0.14505611  0.41509568  0.31456229  1  0.946445  0  0.20085  0.247721  0  4.074971  0
C  C39  1  0.70697636  0.14595045  0.30192921  1  0.432283  0  0.03792  0.092926  0  3.938925  0
C  C40  1  0.51458772  0.23464083  0.33803072  1  0.081611  0  -0.083685  -0.150104  0  3.927164  0
C  C41  1  0.34424358  0.31241458  0.28379818  1  -0.034098  0  0.013452  0.071398  0  3.979166  0
C  C42  1  0.37734213  0.29423628  0.19423337  1  -0.016104  0  -0.084424  -0.164135  0  3.962745  0
C  C43  1  0.57600706  0.20511679  0.16365997  1  0.447617  0  0.039333  0.087447  0  3.95571  0
C  C44  1  0.97162160  0.93027903  0.50009614  1  0.642511  0  -0.059585  -0.11898  0  3.881735  0
C  C45  1  0.00133738  0.00154530  0.03596843  1  0.657671  0  -0.076111  -0.140376  0  3.909756  0
N  N46  1  0.09132276  0.44364864  0.60161206  1  -0.777629  0  -0.287905  -0.242269  0  3.54954  0
N  N47  1  0.73964628  0.13111419  0.78409594  1  -1.239326  0  -0.373428  -0.225515  0  3.697849  0
N  N48  1  0.90864129  0.55639947  0.60152201  1  -0.676871  0  -0.285763  -0.218023  0  3.528021  0
N  N49  1  0.26019842  0.86891100  0.78445184  1  -1.197225  0  -0.37369  -0.225126  0  3.698571  0
N  N50  1  0.90885710  0.55631045  0.39909989  1  -0.783778  0  -0.284753  -0.216782  0  3.527139  0
N  N51  1  0.25973092  0.86918492  0.21548957  1  -1.204881  0  -0.366689  -0.206157  0  3.653582  0
N  N52  1  0.09179489  0.44372695  0.39904726  1  -0.683792  0  -0.28683  -0.240997  0  3.546775  0
N  N53  1  0.74111702  0.13056391  0.21594118  1  -1.210946  0  -0.367193  -0.208189  0  3.653288  0
N  N54  1  0.02988457  0.07169698  0.50009217  1  -1.364949  0  -0.453125  -0.350948  0  3.700767  0
N  N55  1  0.00136907  0.00183186  0.95981122  1  -1.372085  0  -0.454751  -0.355745  0  3.702644  0
N  N56  1  0.99897232  0.49962242  0.74003552  1  -1.156068  0  -0.332133  -0.399094  0  3.219602  0
N  N57  1  0.99957894  0.49958258  0.26065595  1  -1.133563  0  -0.332105  -0.400291  0  3.221659  0
