# generated using pymatgen
data_CuH6C8(N2O)3
_symmetry_space_group_name_H-M   'P 1'
_cell_length_a   7.14930776
_cell_length_b   7.50871107
_cell_length_c   11.15840075
_cell_angle_alpha   80.94200120
_cell_angle_beta   79.71941832
_cell_angle_gamma   70.99620895
_symmetry_Int_Tables_number   1
_chemical_formula_structural   CuH6C8(N2O)3
_chemical_formula_sum   'Cu2 H12 C16 N12 O6'
_cell_volume   554.08127057
_cell_formula_units_Z   2
loop_
 _symmetry_equiv_pos_site_id
 _symmetry_equiv_pos_as_xyz
  1  'x, y, z'
loop_
 _atom_site_type_symbol
 _atom_site_label
 _atom_site_symmetry_multiplicity
 _atom_site_fract_x
 _atom_site_fract_y
 _atom_site_fract_z
 _atom_site_occupancy
 _atom_site_pbe_cm5_charge
 _atom_site_pbe_ddec_charge
 _atom_site_pbe_ddec_spin_density
 _atom_site_pbe_ddec_sum_bond_order
 _atom_site_pbe_magmom
Cu  Cu0  1  0.92758494  0.99090448  0.73693041  1  0.826353  0.932304  0.737477  2.365384  0.554
Cu  Cu1  1  0.07242297  0.00909352  0.26306700  1  0.826396  0.932329  -0.737488  2.365498  -0.554
H  H2  1  0.24763232  0.51867619  0.27488688  1  0.296352  0.322674  -2e-06  0.97994  0.0
H  H3  1  0.75237451  0.48132054  0.72511260  1  0.296362  0.322697  2e-06  0.97992  0.0
H  H4  1  0.12178327  0.38054922  0.38056042  1  0.29316  0.322585  -1.7e-05  0.979577  0.0
H  H5  1  0.87821734  0.61945906  0.61944099  1  0.293129  0.322546  1.7e-05  0.979405  0.0
H  H6  1  0.72928938  0.63224426  0.08465817  1  0.318749  0.32927  -6.6e-05  0.907879  0.0
H  H7  1  0.27071585  0.36775735  0.91535342  1  0.318761  0.329298  6.6e-05  0.907864  0.0
H  H8  1  0.59277440  0.54488551  0.21614104  1  0.300646  0.328545  1.9e-05  0.976791  0.0
H  H9  1  0.40722149  0.45510012  0.78385653  1  0.300677  0.328583  -1.9e-05  0.976727  0.0
H  H10  1  0.21049258  0.68805024  0.61341254  1  0.282543  0.381684  4e-05  0.967443  0.0
H  H11  1  0.78950087  0.31195822  0.38658872  1  0.282547  0.381764  -4e-05  0.967345  0.0
H  H12  1  0.05946166  0.80152354  0.52163843  1  0.29347  0.366725  -0.000112  0.9757  0.0
H  H13  1  0.94054215  0.19848861  0.47835766  1  0.293478  0.366729  0.000112  0.975705  0.0
C  C14  1  0.40687852  0.36321555  0.41004073  1  0.237206  0.569757  -0.000721  4.187692  -0.002
C  C15  1  0.59311568  0.63679547  0.58995565  1  0.237198  0.569648  0.000721  4.187643  0.002
C  C16  1  0.40547523  0.23644251  0.52477642  1  -0.051594  -0.308532  0.018664  4.167568  0.018
C  C17  1  0.59452615  0.76356827  0.47521921  1  -0.051714  -0.308689  -0.018653  4.167632  -0.018
C  C18  1  0.56858278  0.17685280  0.58892512  1  0.208958  0.351665  -0.002306  4.085738  0.0
C  C19  1  0.43141323  0.82315156  0.41107996  1  0.208994  0.351743  0.002304  4.085712  0.0
C  C20  1  0.24137891  0.18057634  0.58193041  1  0.208858  0.357386  0.000242  4.053303  0.003
C  C21  1  0.75860714  0.81944783  0.41807060  1  0.208849  0.357566  -0.000243  4.053266  -0.003
C  C22  1  0.42785951  0.68852092  0.07898292  1  0.229281  0.552434  -0.00061  4.251142  -0.003
C  C23  1  0.57214764  0.31146544  0.92100705  1  0.22925  0.552511  0.000609  4.251234  0.003
C  C24  1  0.43692873  0.79405015  0.95559255  1  -0.040996  -0.279543  0.05198  4.134853  0.049
C  C25  1  0.56307811  0.20592238  0.04440277  1  -0.040895  -0.279672  -0.051977  4.13468  -0.049
C  C26  1  0.26404196  0.86047152  0.89992273  1  0.211666  0.364436  -0.003712  4.051204  -0.003
C  C27  1  0.73595589  0.13951175  0.10008478  1  0.211645  0.364627  0.003712  4.050875  0.003
C  C28  1  0.60983272  0.82490386  0.89102196  1  0.197948  0.323675  -0.002655  4.089097  -0.002
C  C29  1  0.39016770  0.17510017  0.10897910  1  0.197845  0.323654  0.002654  4.089111  0.002
N  N30  1  0.24108866  0.43314565  0.35699569  1  -0.567795  -0.619496  0.003879  3.323467  0.004
N  N31  1  0.75889559  0.56687007  0.64300477  1  -0.567714  -0.619386  -0.003877  3.323316  -0.004
N  N32  1  0.69966337  0.13057441  0.64837644  1  -0.375974  -0.456766  0.045438  3.281535  0.054
N  N33  1  0.30032879  0.86941876  0.35162866  1  -0.375961  -0.456813  -0.045437  3.281498  -0.054
N  N34  1  0.10334515  0.13376185  0.63212567  1  -0.369082  -0.456161  0.047628  3.240324  0.056
N  N35  1  0.89663764  0.86627816  0.36787999  1  -0.369064  -0.456243  -0.047637  3.240355  -0.056
N  N36  1  0.59704304  0.62240858  0.13113795  1  -0.568507  -0.637688  0.005429  3.31001  0.006
N  N37  1  0.40296438  0.37758116  0.86886323  1  -0.568485  -0.637683  -0.005425  3.310253  -0.006
N  N38  1  0.11756058  0.92408946  0.85436812  1  -0.366651  -0.435151  0.062678  3.257699  0.074
N  N39  1  0.88244725  0.07588906  0.14563442  1  -0.366674  -0.435273  -0.06268  3.257568  -0.074
N  N40  1  0.76083256  0.83901107  0.83439162  1  -0.364736  -0.427931  0.064168  3.202955  0.077
N  N41  1  0.23917421  0.16098050  0.16561747  1  -0.364706  -0.427947  -0.064168  3.202942  -0.077
O  O42  1  0.56413382  0.40751073  0.36459477  1  -0.304716  -0.541598  0.000471  2.24325  0.001
O  O43  1  0.43586639  0.59249439  0.63539990  1  -0.304707  -0.541559  -0.000469  2.24334  -0.001
O  O44  1  0.26546509  0.66514338  0.13077259  1  -0.312243  -0.551159  0.006242  2.168503  0.008
O  O45  1  0.73454096  0.33484175  0.86922035  1  -0.312237  -0.551227  -0.006238  2.168508  -0.008
O  O46  1  0.06340250  0.74837401  0.60703704  1  -0.582936  -0.789118  0.00071  2.131225  0.002
O  O47  1  0.93659827  0.25163399  0.39295900  1  -0.582937  -0.789199  -0.00071  2.131099  -0.002
