# generated using pymatgen
data_ZnH26C38(NO4)2
_symmetry_space_group_name_H-M   'P 1'
_cell_length_a   13.80627153
_cell_length_b   13.80628180
_cell_length_c   19.03722625
_cell_angle_alpha   78.12829969
_cell_angle_beta   78.12823102
_cell_angle_gamma   86.55583295
_symmetry_Int_Tables_number   1
_chemical_formula_structural   ZnH26C38(NO4)2
_chemical_formula_sum   'Zn4 H104 C152 N8 O32'
_cell_volume   3474.57741591
_cell_formula_units_Z   4
loop_
 _symmetry_equiv_pos_site_id
 _symmetry_equiv_pos_as_xyz
  1  'x, y, z'
loop_
 _atom_site_type_symbol
 _atom_site_label
 _atom_site_symmetry_multiplicity
 _atom_site_fract_x
 _atom_site_fract_y
 _atom_site_fract_z
 _atom_site_occupancy
 _atom_site_pbe_bader_charge
 _atom_site_pbe_bader_spin_density
 _atom_site_pbe_cm5_charge
 _atom_site_pbe_ddec_charge
 _atom_site_pbe_ddec_spin_density
 _atom_site_pbe_ddec_sum_bond_order
 _atom_site_pbe_magmom
Zn  Zn0  1  0.40883547  0.10748346  0.21800412  1  1.310291  0  0.666871  0.9324  0  2.316008  0
Zn  Zn1  1  0.89251659  0.59116289  0.28199611  1  1.310279  0  0.666906  0.93246  0  2.315959  0
Zn  Zn2  1  0.59116481  0.89251727  0.78199615  1  1.310314  0  0.666878  0.932436  0  2.315953  0
Zn  Zn3  1  0.10748444  0.40883635  0.71800480  1  1.310262  0  0.666915  0.932486  0  2.315945  0
H  H4  1  0.71252330  0.10800364  0.21121234  1  0.065738  0  0.096882  0.096984  0  1.03727  0
H  H5  1  0.89199499  0.28747552  0.28878739  1  0.065756  0  0.096905  0.097011  0  1.037234  0
H  H6  1  0.28747550  0.89199637  0.78878773  1  0.065719  0  0.096895  0.096989  0  1.03727  0
H  H7  1  0.10800529  0.71252225  0.71121227  1  0.065769  0  0.096911  0.097006  0  1.037235  0
H  H8  1  0.89700034  0.11793613  0.18328390  1  0.048623  0  0.095077  0.090031  0  1.018195  0
H  H9  1  0.88206439  0.10299892  0.31671595  1  0.048269  0  0.09507  0.090013  0  1.018225  0
H  H10  1  0.10299920  0.88206610  0.81671573  1  0.048245  0  0.095081  0.090003  0  1.018235  0
H  H11  1  0.11793589  0.89699885  0.68328319  1  0.048654  0  0.095074  0.090043  0  1.018218  0
H  H12  1  0.69621781  0.32941192  0.01988837  1  0.081901  0  0.099557  0.100194  0  1.026237  0
H  H13  1  0.67058805  0.30378022  0.48011242  1  0.081914  0  0.099509  0.100117  0  1.026285  0
H  H14  1  0.30378246  0.67058806  0.98010991  1  0.08196  0  0.099544  0.100149  0  1.026235  0
H  H15  1  0.32941297  0.69621902  0.51988743  1  0.081903  0  0.099532  0.100145  0  1.026277  0
H  H16  1  0.88183050  0.33878724  0.98938397  1  0.093903  0  0.104723  0.113128  0  0.996763  0
H  H17  1  0.66121261  0.11816867  0.51061619  1  0.093885  0  0.104728  0.113156  0  0.996728  0
H  H18  1  0.11817051  0.66121272  0.01061315  1  0.093949  0  0.104739  0.113146  0  0.996755  0
H  H19  1  0.33878694  0.88183207  0.48938418  1  0.093887  0  0.104712  0.113136  0  0.996728  0
H  H20  1  0.03676805  0.28746816  0.01619258  1  0.126263  0  0.119968  0.114117  0  1.007709  0
H  H21  1  0.71253225  0.96323099  0.48380717  1  0.126257  0  0.119983  0.114179  0  1.007621  0
H  H22  1  0.96323149  0.71253258  0.98380780  1  0.126246  0  0.119978  0.114152  0  1.007654  0
H  H23  1  0.28746655  0.03676828  0.51619302  1  0.126283  0  0.119994  0.114146  0  1.007678  0
H  H24  1  0.04701930  0.16263697  0.06251502  1  0.090098  0  0.118162  0.106399  0  0.996416  0
H  H25  1  0.83736267  0.95297948  0.43748483  1  0.090116  0  0.118161  0.106396  0  0.996416  0
H  H26  1  0.95297949  0.83736452  0.93748430  1  0.0903  0  0.118166  0.106436  0  0.996435  0
H  H27  1  0.16263539  0.04701981  0.56251546  1  0.09028  0  0.118171  0.106418  0  0.996436  0
H  H28  1  0.12132723  0.13447939  0.15572398  1  0.145438  0  0.141979  0.123939  0  0.96435  0
H  H29  1  0.86551954  0.87867256  0.34427474  1  0.145323  0  0.141985  0.12395  0  0.964312  0
H  H30  1  0.87867231  0.86552061  0.84427546  1  0.14544  0  0.141965  0.123938  0  0.96431  0
H  H31  1  0.13447852  0.12132821  0.65572480  1  0.145444  0  0.141964  0.123926  0  0.964307  0
H  H32  1  0.18521148  0.18909997  0.25364127  1  0.178903  0  0.126911  0.151497  0  1.001368  0
H  H33  1  0.81089990  0.81478865  0.24635831  1  0.178884  0  0.126922  0.151553  0  1.001283  0
H  H34  1  0.81478806  0.81089929  0.74635828  1  0.178878  0  0.126939  0.151589  0  1.001249  0
H  H35  1  0.18909890  0.18521285  0.75364154  1  0.178855  0  0.126942  0.151586  0  1.001244  0
H  H36  1  0.98087404  0.40844175  0.10032375  1  0.181496  0  0.140636  0.134922  0  0.987119  0
H  H37  1  0.59155857  0.01912516  0.39967569  1  0.181519  0  0.140635  0.134919  0  0.987155  0
H  H38  1  0.01912550  0.59155974  0.89967652  1  0.181507  0  0.140633  0.134935  0  0.987119  0
H  H39  1  0.40844171  0.98087335  0.60032386  1  0.1815  0  0.140642  0.134931  0  0.98711  0
H  H40  1  0.03848124  0.47378639  0.19594590  1  0.217858  0  0.121225  0.146248  0  1.031922  0
H  H41  1  0.52621380  0.96151808  0.30405391  1  0.217853  0  0.121232  0.146233  0  1.031943  0
H  H42  1  0.96151756  0.52621363  0.80405522  1  0.217868  0  0.12123  0.146241  0  1.031925  0
H  H43  1  0.47378575  0.03848192  0.69594658  1  0.217863  0  0.121244  0.146256  0  1.031914  0
H  H44  1  0.30821309  0.34447999  0.25020215  1  0.16362  0  0.128429  0.155273  0  0.968974  0
H  H45  1  0.65551996  0.69178577  0.24979762  1  0.163613  0  0.128468  0.155333  0  0.969041  0
H  H46  1  0.69178571  0.65552077  0.74979834  1  0.163611  0  0.12843  0.155258  0  0.96896  0
H  H47  1  0.34447958  0.30821423  0.75020234  1  0.163612  0  0.12847  0.155311  0  0.969044  0
H  H48  1  0.36329936  0.43228784  0.33775719  1  0.115269  0  0.140153  0.11711  0  0.959856  0
H  H49  1  0.56771160  0.63670013  0.16224310  1  0.115267  0  0.140152  0.117119  0  0.959855  0
H  H50  1  0.63669870  0.56771145  0.66224311  1  0.115251  0  0.140158  0.117115  0  0.959857  0
H  H51  1  0.43228794  0.36330062  0.83775728  1  0.115259  0  0.140147  0.117112  0  0.959853  0
H  H52  1  0.00563100  0.41470089  0.34550731  1  0.20997  0  0.121291  0.143732  0  1.026639  0
H  H53  1  0.58529905  0.99436811  0.15449203  1  0.209986  0  0.121286  0.143721  0  1.026686  0
H  H54  1  0.99436855  0.58529911  0.65449318  1  0.210036  0  0.121295  0.143734  0  1.026627  0
H  H55  1  0.41470122  0.00563262  0.84550666  1  0.210055  0  0.121275  0.14371  0  1.026722  0
H  H56  1  0.07233484  0.49016562  0.43413253  1  0.187922  0  0.139296  0.130581  0  0.995146  0
H  H57  1  0.50983441  0.92766485  0.06586724  1  0.187929  0  0.139305  0.130593  0  0.995127  0
H  H58  1  0.92766619  0.50983509  0.56586710  1  0.187906  0  0.139293  0.130598  0  0.995104  0
H  H59  1  0.49016514  0.07233515  0.93413272  1  0.187934  0  0.139313  0.130606  0  0.995112  0
H  H60  1  0.32634830  0.49077387  0.44474592  1  0.087454  0  0.119714  0.11007  0  0.976674  0
H  H61  1  0.50922504  0.67365088  0.05525505  1  0.087452  0  0.119685  0.110062  0  0.976655  0
H  H62  1  0.67365494  0.50922533  0.55525413  1  0.087567  0  0.1197  0.110065  0  0.976688  0
H  H63  1  0.49077524  0.32634837  0.94474544  1  0.087463  0  0.119691  0.11005  0  0.976662  0
H  H64  1  0.20221759  0.51530287  0.48515649  1  0.153614  0  0.124595  0.132082  0  0.988089  0
H  H65  1  0.48469611  0.79778160  0.01484347  1  0.153622  0  0.124601  0.132083  0  0.98809  0
H  H66  1  0.79778417  0.48469636  0.51484325  1  0.153584  0  0.124631  0.13212  0  0.988052  0
H  H67  1  0.51530343  0.20221766  0.98515608  1  0.153617  0  0.124602  0.132094  0  0.988099  0
H  H68  1  0.42717845  0.62556542  0.37684352  1  0.052787  0  0.09904  0.100467  0  0.999623  0
H  H69  1  0.37443481  0.57282099  0.12315618  1  0.052777  0  0.099062  0.100525  0  0.999554  0
H  H70  1  0.57282258  0.37443529  0.62315664  1  0.052797  0  0.099039  0.100466  0  0.999636  0
H  H71  1  0.62556473  0.42717680  0.87684464  1  0.0528  0  0.099057  0.100501  0  0.999634  0
H  H72  1  0.44446072  0.80197119  0.31132656  1  0.082604  0  0.09446  0.092782  0  1.050532  0
H  H73  1  0.19802808  0.55553708  0.18867359  1  0.082538  0  0.094499  0.092832  0  1.050413  0
H  H74  1  0.55553734  0.19802736  0.68867437  1  0.082577  0  0.0945  0.092838  0  1.050428  0
H  H75  1  0.80197146  0.44446219  0.81132649  1  0.082592  0  0.094495  0.092816  0  1.05047  0
H  H76  1  0.11015379  0.65802228  0.40178133  1  0.073668  0  0.102598  0.108164  0  1.028335  0
H  H77  1  0.34197690  0.88984489  0.09822140  1  0.073661  0  0.102568  0.108067  0  1.02843  0
H  H78  1  0.88984650  0.34197771  0.59822010  1  0.073651  0  0.102595  0.108125  0  1.02836  0
H  H79  1  0.65802264  0.11015363  0.90177826  1  0.073624  0  0.102598  0.108131  0  1.028384  0
H  H80  1  0.12939630  0.83474675  0.33718187  1  0.081473  0  0.104813  0.107429  0  1.004076  0
H  H81  1  0.16525170  0.87060266  0.16281888  1  0.081477  0  0.104801  0.10741  0  1.004083  0
H  H82  1  0.87060398  0.16525250  0.66281862  1  0.081446  0  0.104797  0.107386  0  1.004085  0
H  H83  1  0.83474784  0.12939734  0.83718003  1  0.081468  0  0.1048  0.107411  0  1.004075  0
H  H84  1  0.44140756  0.24372405  0.45458856  1  0.081544  0  0.103137  0.112415  0  0.991972  0
H  H85  1  0.75627504  0.55859088  0.04541236  1  0.081522  0  0.103125  0.112405  0  0.991947  0
H  H86  1  0.55859346  0.75627518  0.54541182  1  0.081573  0  0.103145  0.112443  0  0.991955  0
H  H87  1  0.24372598  0.44140836  0.95458802  1  0.081532  0  0.10312  0.112422  0  0.99195  0
H  H88  1  0.20400064  0.08864217  0.36237984  1  0.12371  0  0.10143  0.115843  0  1.051993  0
H  H89  1  0.91135851  0.79599668  0.13762157  1  0.123645  0  0.101453  0.115896  0  1.051943  0
H  H90  1  0.79599965  0.91135783  0.63762107  1  0.123686  0  0.101426  0.115832  0  1.051992  0
H  H91  1  0.08864251  0.20400330  0.86237870  1  0.123663  0  0.101416  0.115814  0  1.052064  0
H  H92  1  0.02476170  0.06991477  0.39554712  1  0.056973  0  0.097268  0.095753  0  1.00651  0
H  H93  1  0.93008387  0.97523462  0.10445691  1  0.057006  0  0.097273  0.095747  0  1.006519  0
H  H94  1  0.97523710  0.93008599  0.60445389  1  0.056955  0  0.097284  0.095745  0  1.006521  0
H  H95  1  0.06991641  0.02476537  0.89554347  1  0.057013  0  0.097283  0.095776  0  1.006508  0
H  H96  1  0.92220959  0.15896283  0.48830788  1  0.053794  0  0.098481  0.10002  0  1.019542  0
H  H97  1  0.84103828  0.07778783  0.01169584  1  0.053797  0  0.098467  0.100028  0  1.01954  0
H  H98  1  0.07778995  0.84103792  0.51169355  1  0.053757  0  0.098476  0.100016  0  1.019516  0
H  H99  1  0.15896127  0.92221217  0.98830413  1  0.053796  0  0.09845  0.100024  0  1.019566  0
H  H100  1  0.00368048  0.26489137  0.54809088  1  0.07047  0  0.099708  0.105292  0  1.051236  0
H  H101  1  0.73511143  0.99631974  0.95191108  1  0.070545  0  0.099714  0.105288  0  1.051239  0
H  H102  1  0.99631980  0.73510936  0.45191044  1  0.070505  0  0.099734  0.105337  0  1.051208  0
H  H103  1  0.26488811  0.00368026  0.04808941  1  0.07054  0  0.099712  0.10529  0  1.05122  0
H  H104  1  0.33871670  0.33036444  0.54945085  1  0.079153  0  0.106638  0.120011  0  0.981595  0
H  H105  1  0.66963477  0.66128332  0.95055053  1  0.079178  0  0.106656  0.12004  0  0.981566  0
H  H106  1  0.66128433  0.66963554  0.45054994  1  0.079187  0  0.106645  0.12003  0  0.981586  0
H  H107  1  0.33036478  0.33871594  0.04945007  1  0.079171  0  0.106645  0.120028  0  0.981581  0
C  C108  1  0.58262272  0.21091245  0.13393339  1  1.608399  0  0.197745  0.573033  0  4.231071  0
C  C109  1  0.78908549  0.41737753  0.36606684  1  1.608412  0  0.197721  0.573021  0  4.23116  0
C  C110  1  0.41737682  0.78908903  0.86606530  1  1.608224  0  0.197722  0.57299  0  4.230987  0
C  C111  1  0.21091479  0.58262172  0.63393260  1  1.608412  0  0.197695  0.572985  0  4.231172  0
C  C112  1  0.69393250  0.21787970  0.11699794  1  -0.068771  0  -0.016119  -0.025476  0  3.945055  0
C  C113  1  0.78211936  0.30606587  0.38300185  1  -0.068747  0  -0.016112  -0.025453  0  3.945065  0
C  C114  1  0.30606704  0.78212104  0.88300034  1  -0.068786  0  -0.016132  -0.025437  0  3.945021  0
C  C115  1  0.21788018  0.69393265  0.61699782  1  -0.068724  0  -0.016147  -0.025462  0  3.945039  0
C  C116  1  0.75064487  0.15844476  0.16309348  1  -0.048817  0  -0.084157  -0.081373  0  3.97907  0
C  C117  1  0.84155420  0.24935383  0.33690675  1  -0.048852  0  -0.084171  -0.081416  0  3.979126  0
C  C118  1  0.24935467  0.84155599  0.83690689  1  -0.048834  0  -0.084154  -0.081374  0  3.979108  0
C  C119  1  0.15844682  0.75064540  0.66309258  1  -0.048831  0  -0.084131  -0.081364  0  3.979067  0
C  C120  1  0.85311699  0.16442736  0.14722239  1  -0.026712  0  -0.097194  -0.144825  0  4.021394  0
C  C121  1  0.83557100  0.14688259  0.35277672  1  -0.02671  0  -0.097229  -0.144855  0  4.021462  0
C  C122  1  0.14688328  0.83557336  0.85277578  1  -0.026737  0  -0.097216  -0.144809  0  4.021386  0
C  C123  1  0.16442928  0.85311740  0.64722156  1  -0.026698  0  -0.097201  -0.144824  0  4.02145  0
C  C124  1  0.74135764  0.28349793  0.05497940  1  0.055652  0  -0.080983  -0.083218  0  3.976542  0
C  C125  1  0.71650137  0.25864046  0.44502144  1  0.055676  0  -0.080899  -0.083075  0  3.976572  0
C  C126  1  0.25864189  0.71650133  0.94501857  1  0.055641  0  -0.080935  -0.083175  0  3.976549  0
C  C127  1  0.28349966  0.74135878  0.55497894  1  0.055632  0  -0.080954  -0.083176  0  3.97653  0
C  C128  1  0.84435365  0.28887765  0.03842894  1  -0.09776  0  -0.090047  -0.135344  0  3.975456  0
C  C129  1  0.71112337  0.15564487  0.46157260  1  -0.097818  0  -0.090063  -0.135419  0  3.975464  0
C  C130  1  0.15564588  0.71112383  0.96157028  1  -0.097766  0  -0.090081  -0.135402  0  3.975422  0
C  C131  1  0.28887840  0.84435436  0.53842819  1  -0.097763  0  -0.089995  -0.135303  0  3.975366  0
C  C132  1  0.90055619  0.22923638  0.08464037  1  -0.073516  0  -0.018522  0.076866  0  4.015641  0
C  C133  1  0.77076281  0.09944357  0.41536016  1  -0.073467  0  -0.018496  0.076923  0  4.015663  0
C  C134  1  0.09944409  0.77076508  0.91535873  1  -0.073237  0  -0.018504  0.076937  0  4.015521  0
C  C135  1  0.22923747  0.90055716  0.58463906  1  -0.0738  0  -0.018569  0.076783  0  4.015704  0
C  C136  1  0.01138668  0.23478631  0.06740085  1  0.22896  0  -0.045144  -0.138913  0  3.870941  0
C  C137  1  0.76521326  0.98861195  0.43259908  1  0.228947  0  -0.045178  -0.138994  0  3.870966  0
C  C138  1  0.98861287  0.76521517  0.93260047  1  0.228493  0  -0.045186  -0.139055  0  3.870938  0
C  C139  1  0.23478480  0.01138659  0.56740133  1  0.22898  0  -0.045174  -0.13893  0  3.871041  0
C  C140  1  0.10457999  0.20814719  0.16749349  1  0.427491  0  0.076727  0.05708  0  3.826639  0
C  C141  1  0.79185152  0.89541957  0.33250534  1  0.427606  0  0.076675  0.057067  0  3.826662  0
C  C142  1  0.89541955  0.79185207  0.83250659  1  0.427482  0  0.076722  0.057059  0  3.826631  0
C  C143  1  0.20814802  0.10457969  0.66749422  1  0.427505  0  0.076698  0.057073  0  3.82663  0
C  C144  1  0.13967824  0.23990166  0.22184725  1  0.033117  0  -0.053228  -0.122516  0  3.878983  0
C  C145  1  0.76009683  0.86032042  0.27815279  1  0.033765  0  -0.053176  -0.122513  0  3.878817  0
C  C146  1  0.86032056  0.76009761  0.77815241  1  0.033779  0  -0.053246  -0.122648  0  3.87885  0
C  C147  1  0.23990049  0.13967962  0.72184751  1  0.033768  0  -0.053225  -0.122598  0  3.87887  0
C  C148  1  0.02571596  0.36281029  0.13574465  1  0.344173  0  0.073546  0.055329  0  3.800771  0
C  C149  1  0.63718905  0.97428386  0.36425518  1  0.344165  0  0.073566  0.055344  0  3.800798  0
C  C150  1  0.97428284  0.63718973  0.86425595  1  0.343849  0  0.073521  0.055242  0  3.800778  0
C  C151  1  0.36280902  0.02571469  0.63574576  1  0.343977  0  0.073523  0.055309  0  3.800767  0
C  C152  1  0.05771986  0.39779512  0.18973384  1  0.06091  0  -0.055639  -0.134779  0  3.881586  0
C  C153  1  0.60220388  0.94228055  0.31026542  1  0.060935  0  -0.05563  -0.13473  0  3.881576  0
C  C154  1  0.94227968  0.60220488  0.81026717  1  0.061223  0  -0.05562  -0.134713  0  3.881555  0
C  C155  1  0.39779492  0.05772021  0.68973454  1  0.061147  0  -0.055614  -0.134725  0  3.881566  0
C  C156  1  0.11593054  0.33592608  0.23371073  1  0.01  0  0.034412  0.115224  0  3.921415  0
C  C157  1  0.66407222  0.88406946  0.26628813  1  0.009296  0  0.034356  0.115182  0  3.921236  0
C  C158  1  0.88406826  0.66407245  0.76628904  1  0.009327  0  0.034367  0.115184  0  3.921202  0
C  C159  1  0.33592584  0.11593131  0.73371141  1  0.009367  0  0.034405  0.115239  0  3.921374  0
C  C160  1  0.15218411  0.37543574  0.28985499  1  -0.037096  0  0.030906  0.115794  0  3.932456  0
C  C161  1  0.62456326  0.84781558  0.21014434  1  -0.037116  0  0.030917  0.115789  0  3.932346  0
C  C162  1  0.84781543  0.62456278  0.71014520  1  -0.037087  0  0.030929  0.115854  0  3.932357  0
C  C163  1  0.37543554  0.15218517  0.78985510  1  -0.037122  0  0.030848  0.115651  0  3.932449  0
C  C164  1  0.25394668  0.37821567  0.28851880  1  0.071588  0  -0.055809  -0.138961  0  3.914007  0
C  C165  1  0.62178414  0.74605225  0.21148154  1  0.071582  0  -0.055843  -0.139025  0  3.914052  0
C  C166  1  0.74605286  0.62178359  0.71148127  1  0.071597  0  -0.055791  -0.138926  0  3.914021  0
C  C167  1  0.37821540  0.25394775  0.78851895  1  0.07158  0  -0.055766  -0.138857  0  3.914092  0
C  C168  1  0.28556992  0.42497156  0.33707153  1  0.420413  0  0.070607  0.045214  0  3.861059  0
C  C169  1  0.57502858  0.71443076  0.16292849  1  0.420408  0  0.070572  0.045133  0  3.861182  0
C  C170  1  0.71443036  0.57502843  0.66292884  1  0.420425  0  0.070581  0.045195  0  3.861124  0
C  C171  1  0.42497096  0.28556924  0.83707147  1  0.420406  0  0.070553  0.045128  0  3.86119  0
C  C172  1  0.08537037  0.41569764  0.34266743  1  0.010225  0  -0.054376  -0.120381  0  3.862764  0
C  C173  1  0.58430250  0.91462873  0.15733238  1  0.010198  0  -0.054373  -0.120359  0  3.862869  0
C  C174  1  0.91462991  0.58430309  0.65733284  1  0.009821  0  -0.054421  -0.120434  0  3.862765  0
C  C175  1  0.41569704  0.08537127  0.84266705  1  0.010153  0  -0.05437  -0.12033  0  3.862856  0
C  C176  1  0.12089104  0.45905697  0.39141199  1  0.422613  0  0.083953  0.072706  0  3.79393  0
C  C177  1  0.54094341  0.87910862  0.10858823  1  0.422597  0  0.083967  0.072709  0  3.793847  0
C  C178  1  0.87911072  0.54094447  0.60858690  1  0.422863  0  0.08403  0.072766  0  3.793811  0
C  C179  1  0.45905687  0.12089211  0.89141151  1  0.422636  0  0.083979  0.072713  0  3.793849  0
C  C180  1  0.25585372  0.52402733  0.43316795  1  0.227569  0  -0.04458  -0.143569  0  3.856824  0
C  C181  1  0.47597237  0.74414583  0.06683184  1  0.2275  0  -0.044585  -0.143602  0  3.856859  0
C  C182  1  0.74414804  0.47597263  0.56683116  1  0.227422  0  -0.044618  -0.143596  0  3.856822  0
C  C183  1  0.52402717  0.25585343  0.93316824  1  0.227489  0  -0.04461  -0.143596  0  3.856872  0
C  C184  1  0.26737826  0.63070126  0.39426628  1  -0.077274  0  -0.01571  0.090033  0  3.99055  0
C  C185  1  0.36929841  0.73262085  0.10573466  1  -0.07719  0  -0.015724  0.08997  0  3.990602  0
C  C186  1  0.73262277  0.36929798  0.60573463  1  -0.077176  0  -0.015681  0.090007  0  3.990437  0
C  C187  1  0.63070113  0.26737842  0.89426541  1  -0.077193  0  -0.015686  0.089989  0  3.990533  0
C  C188  1  0.36157731  0.67119528  0.36812228  1  -0.071842  0  -0.096379  -0.151392  0  4.01764  0
C  C189  1  0.32880441  0.63842240  0.13187750  1  -0.071877  0  -0.09639  -0.151453  0  4.017652  0
C  C190  1  0.63842297  0.32880472  0.63187810  1  -0.071866  0  -0.096367  -0.151345  0  4.017566  0
C  C191  1  0.67119513  0.36157687  0.86812258  1  -0.071865  0  -0.096386  -0.151387  0  4.017663  0
C  C192  1  0.37160126  0.76969710  0.33176788  1  -0.00993  0  -0.090042  -0.088919  0  3.98955  0
C  C193  1  0.23030184  0.62839746  0.16823167  1  -0.009808  0  -0.090004  -0.088883  0  3.989476  0
C  C194  1  0.62839828  0.23030216  0.66823167  1  -0.009816  0  -0.09003  -0.08896  0  3.989498  0
C  C195  1  0.76969770  0.37160106  0.83176852  1  -0.009875  0  -0.090065  -0.088991  0  3.989545  0
C  C196  1  0.18370329  0.68983398  0.38285475  1  0.027828  0  -0.09005  -0.135489  0  3.950971  0
C  C197  1  0.31016515  0.81629631  0.11714678  1  0.027885  0  -0.090002  -0.135321  0  3.950856  0
C  C198  1  0.81629848  0.31016599  0.61714698  1  0.027834  0  -0.090095  -0.135472  0  3.950896  0
C  C199  1  0.68983440  0.18370221  0.88285288  1  0.027901  0  -0.090075  -0.135424  0  3.9509  0
C  C200  1  0.19391513  0.78820197  0.34664768  1  -0.04482  0  -0.07701  -0.073934  0  3.957917  0
C  C201  1  0.21179697  0.80608420  0.15335448  1  -0.045247  0  -0.076998  -0.073958  0  3.957829  0
C  C202  1  0.80608590  0.21179727  0.65335428  1  -0.045072  0  -0.077002  -0.073903  0  3.957709  0
C  C203  1  0.78820257  0.19391506  0.84664560  1  -0.045266  0  -0.076998  -0.073959  0  3.957767  0
C  C204  1  0.28815048  0.82913465  0.32078767  1  -0.066656  0  -0.016008  -0.028156  0  3.951041  0
C  C205  1  0.17086512  0.71184721  0.17921302  1  -0.066463  0  -0.016076  -0.028194  0  3.950993  0
C  C206  1  0.71184906  0.17086461  0.67921241  1  -0.066462  0  -0.01603  -0.028151  0  3.95092  0
C  C207  1  0.82913442  0.28815131  0.82078717  1  -0.06646  0  -0.016014  -0.028097  0  3.950929  0
C  C208  1  0.29872295  0.93607575  0.28226034  1  1.577652  0  0.198941  0.570669  0  4.223351  0
C  C209  1  0.06392375  0.70127642  0.21773964  1  1.577649  0  0.198933  0.57066  0  4.223319  0
C  C210  1  0.70127659  0.06392425  0.71773910  1  1.577639  0  0.198909  0.570645  0  4.223366  0
C  C211  1  0.93607580  0.29872358  0.78226033  1  1.577681  0  0.198944  0.570672  0  4.223363  0
C  C212  1  0.37763368  0.14363119  0.36557676  1  1.603003  0  0.200912  0.58611  0  4.244489  0
C  C213  1  0.85637016  0.62236585  0.13442312  1  1.602834  0  0.20089  0.586049  0  4.244669  0
C  C214  1  0.62236660  0.85637028  0.63442287  1  1.602888  0  0.200932  0.586105  0  4.244536  0
C  C215  1  0.14363308  0.37763556  0.86557450  1  1.602678  0  0.201063  0.58647  0  4.244487  0
C  C216  1  0.31559851  0.19455363  0.42265983  1  -0.05568  0  -0.015357  -0.070212  0  3.965037  0
C  C217  1  0.80544831  0.68440089  0.07734002  1  -0.055615  0  -0.015372  -0.070234  0  3.965046  0
C  C218  1  0.68440177  0.80544784  0.57734032  1  -0.055759  0  -0.015367  -0.070203  0  3.965004  0
C  C219  1  0.19455493  0.31559905  0.92265835  1  -0.055762  0  -0.015398  -0.070376  0  3.9651  0
C  C220  1  0.36064958  0.24316792  0.46391575  1  -0.059238  0  -0.100279  -0.135852  0  4.037784  0
C  C221  1  0.75683216  0.63935058  0.03608427  1  -0.059214  0  -0.100295  -0.135883  0  4.037752  0
C  C222  1  0.63935145  0.75683206  0.53608505  1  -0.059192  0  -0.100305  -0.135923  0  4.037743  0
C  C223  1  0.24316886  0.36064939  0.96391547  1  -0.059113  0  -0.100274  -0.13589  0  4.037792  0
C  C224  1  0.21015188  0.18880271  0.43639171  1  0.007029  0  -0.013507  0.030416  0  3.993253  0
C  C225  1  0.81119804  0.78984654  0.06360903  1  0.006893  0  -0.01347  0.030448  0  3.993241  0
C  C226  1  0.78984840  0.81119876  0.56360845  1  0.006982  0  -0.013491  0.030481  0  3.993235  0
C  C227  1  0.18880299  0.21015343  0.93639071  1  0.006926  0  -0.013445  0.030584  0  3.993148  0
C  C228  1  0.16127948  0.12877532  0.40254614  1  -0.054825  0  -0.093204  -0.13623  0  3.959279  0
C  C229  1  0.87122575  0.83871789  0.09745576  1  -0.054597  0  -0.093265  -0.136312  0  3.95954  0
C  C230  1  0.83872007  0.87122542  0.59745476  1  -0.054811  0  -0.093236  -0.13631  0  3.959291  0
C  C231  1  0.12877527  0.16128209  0.90254451  1  -0.054594  0  -0.093194  -0.136232  0  3.959576  0
C  C232  1  0.05998476  0.11797896  0.42132528  1  -0.079479  0  -0.094431  -0.076335  0  4.016727  0
C  C233  1  0.88202149  0.94001049  0.07867759  1  -0.079548  0  -0.094419  -0.076297  0  4.01685  0
C  C234  1  0.94001478  0.88202104  0.57867573  1  -0.079261  0  -0.094435  -0.076262  0  4.01666  0
C  C235  1  0.11797805  0.05998951  0.92132238  1  -0.079558  0  -0.094434  -0.076336  0  4.016817  0
C  C236  1  0.00229205  0.16764061  0.47392510  1  -0.058702  0  -0.094713  -0.082267  0  4.025698  0
C  C237  1  0.83235891  0.99770567  0.02607810  1  -0.05895  0  -0.09472  -0.082337  0  4.025752  0
C  C238  1  0.99770750  0.83235865  0.52607707  1  -0.059319  0  -0.094735  -0.082338  0  4.025705  0
C  C239  1  0.16764137  0.00229432  0.97392176  1  -0.058943  0  -0.094729  -0.082377  0  4.025708  0
C  C240  1  0.04754008  0.22667504  0.50747743  1  -0.050636  0  -0.098648  -0.145863  0  3.992728  0
C  C241  1  0.77332563  0.95245861  0.99252558  1  -0.050592  0  -0.098594  -0.145782  0  3.992728  0
C  C242  1  0.95246021  0.77332496  0.49252453  1  -0.050217  0  -0.098641  -0.145863  0  3.992678  0
C  C243  1  0.22667392  0.04754139  0.00747491  1  -0.050518  0  -0.098609  -0.145769  0  3.992692  0
C  C244  1  0.15192610  0.23824047  0.49065110  1  -0.057452  0  -0.013892  0.032498  0  4.009202  0
C  C245  1  0.76175884  0.84807233  0.00934990  1  -0.057398  0  -0.013927  0.032468  0  4.009246  0
C  C246  1  0.84807418  0.76175952  0.50934981  1  -0.05746  0  -0.013887  0.032499  0  4.009176  0
C  C247  1  0.23824144  0.15192766  0.99065048  1  -0.057471  0  -0.013906  0.032473  0  4.009246  0
C  C248  1  0.30338252  0.29148056  0.51723633  1  -0.042893  0  -0.096492  -0.116698  0  4.023286  0
C  C249  1  0.70851846  0.69661829  0.98276496  1  -0.04284  0  -0.096491  -0.116704  0  4.023286  0
C  C250  1  0.69661851  0.70851868  0.48276511  1  -0.042874  0  -0.096494  -0.116727  0  4.023284  0
C  C251  1  0.29148182  0.30338170  0.01723542  1  -0.042849  0  -0.096513  -0.116703  0  4.023314  0
C  C252  1  0.20085696  0.29187207  0.52935695  1  -0.028116  0  -0.021597  -0.087504  0  3.972694  0
C  C253  1  0.70812878  0.79914260  0.97064481  1  -0.028188  0  -0.021626  -0.08753  0  3.972786  0
C  C254  1  0.79914407  0.70812791  0.47064436  1  -0.028096  0  -0.021595  -0.087508  0  3.972669  0
C  C255  1  0.29187077  0.20085740  0.02935620  1  -0.028204  0  -0.021629  -0.087599  0  3.972805  0
C  C256  1  0.14292526  0.34826432  0.58441308  1  1.596905  0  0.200803  0.578845  0  4.240965  0
C  C257  1  0.65173728  0.85707611  0.91558834  1  1.596932  0  0.200873  0.578881  0  4.240998  0
C  C258  1  0.85707576  0.65173566  0.41558771  1  1.596895  0  0.200851  0.578905  0  4.240983  0
C  C259  1  0.34826301  0.14292314  0.08441268  1  1.59692  0  0.20089  0.578934  0  4.240911  0
N  N260  1  0.04908495  0.26912563  0.12569076  1  -1.22427  0  -0.203103  0.100893  0  3.743  0
N  N261  1  0.73087336  0.95091436  0.37430915  1  -1.224223  0  -0.203115  0.100844  0  3.743048  0
N  N262  1  0.95091385  0.73087512  0.87430972  1  -1.224218  0  -0.203038  0.101031  0  3.742901  0
N  N263  1  0.26912470  0.04908418  0.62569126  1  -1.224278  0  -0.20311  0.100856  0  3.743083  0
N  N264  1  0.21955461  0.46509513  0.38685698  1  -1.21692  0  -0.201669  0.099311  0  3.737377  0
N  N265  1  0.53490511  0.78044493  0.11314272  1  -1.216909  0  -0.201638  0.099402  0  3.737275  0
N  N266  1  0.78044493  0.53490487  0.61314246  1  -1.216803  0  -0.201686  0.099246  0  3.737375  0
N  N267  1  0.46509517  0.21955506  0.88685713  1  -1.216942  0  -0.201648  0.099341  0  3.737355  0
O  O268  1  0.53120072  0.27587810  0.10226807  1  -1.181142  0  -0.342919  -0.556956  0  2.075563  0
O  O269  1  0.72412022  0.46879848  0.39773178  1  -1.181204  0  -0.342879  -0.556925  0  2.075632  0
O  O270  1  0.46879881  0.72412264  0.89773073  1  -1.181075  0  -0.342865  -0.5569  0  2.075539  0
O  O271  1  0.27588080  0.53120150  0.60226744  1  -1.181245  0  -0.342889  -0.556934  0  2.075558  0
O  O272  1  0.55070804  0.13244642  0.18260300  1  -1.175726  0  -0.33763  -0.588548  0  2.374161  0
O  O273  1  0.86754989  0.44929198  0.31739697  1  -1.175668  0  -0.337667  -0.588579  0  2.374229  0
O  O274  1  0.44929298  0.86755429  0.81739558  1  -1.175632  0  -0.337664  -0.588583  0  2.374115  0
O  O275  1  0.13245039  0.55070653  0.68260258  1  -1.175651  0  -0.337634  -0.58855  0  2.37426  0
O  O276  1  0.22340064  0.99011665  0.27775885  1  -1.178586  0  -0.334371  -0.557542  0  2.096647  0
O  O277  1  0.00988242  0.77659783  0.22224085  1  -1.178548  0  -0.334381  -0.557551  0  2.096627  0
O  O278  1  0.77659890  0.00988261  0.72224122  1  -1.178564  0  -0.334367  -0.557539  0  2.096629  0
O  O279  1  0.99011786  0.22340216  0.77775900  1  -1.178548  0  -0.334385  -0.557554  0  2.096616  0
O  O280  1  0.38973523  0.96409185  0.25660786  1  -1.169772  0  -0.33537  -0.590004  0  2.366161  0
O  O281  1  0.03590780  0.61026396  0.24339262  1  -1.1698  0  -0.335349  -0.590007  0  2.366136  0
O  O282  1  0.61026505  0.03590814  0.74339251  1  -1.169785  0  -0.335361  -0.590029  0  2.366204  0
O  O283  1  0.96409175  0.38973531  0.75660798  1  -1.169783  0  -0.335365  -0.590019  0  2.36618  0
O  O284  1  0.36190644  0.17749256  0.30026768  1  -1.166819  0  -0.328665  -0.57559  0  2.339017  0
O  O285  1  0.82250788  0.63809266  0.19973189  1  -1.166793  0  -0.328649  -0.575564  0  2.339062  0
O  O286  1  0.63809161  0.82250895  0.69973228  1  -1.166784  0  -0.328667  -0.57557  0  2.339029  0
O  O287  1  0.17749314  0.36190435  0.80026567  1  -1.166601  0  -0.328682  -0.575669  0  2.339079  0
O  O288  1  0.43587898  0.07520427  0.38476629  1  -1.185795  0  -0.328738  -0.559225  0  2.097266  0
O  O289  1  0.92479616  0.56411969  0.11523329  1  -1.185681  0  -0.328749  -0.559207  0  2.097353  0
O  O290  1  0.56412203  0.92479719  0.61523218  1  -1.185699  0  -0.328762  -0.559243  0  2.097244  0
O  O291  1  0.07521004  0.43588093  0.88476348  1  -1.185712  0  -0.328868  -0.559437  0  2.097402  0
O  O292  1  0.16899749  0.32726205  0.64701773  1  -1.155145  0  -0.321169  -0.564858  0  2.392038  0
O  O293  1  0.67273930  0.83100312  0.85298382  1  -1.155127  0  -0.321151  -0.564833  0  2.392114  0
O  O294  1  0.83100427  0.67273940  0.35298325  1  -1.155095  0  -0.321193  -0.564878  0  2.3921  0
O  O295  1  0.32726098  0.16899614  0.14701719  1  -1.155112  0  -0.321179  -0.564841  0  2.392078  0
O  O296  1  0.07711903  0.41010218  0.56703360  1  -1.183423  0  -0.324856  -0.566021  0  2.117605  0
O  O297  1  0.58990018  0.92288259  0.93296771  1  -1.183434  0  -0.324899  -0.566002  0  2.117587  0
O  O298  1  0.92288199  0.58989780  0.43296719  1  -1.183467  0  -0.324876  -0.56603  0  2.117642  0
O  O299  1  0.41009936  0.07711667  0.06703289  1  -1.183439  0  -0.324893  -0.566009  0  2.117594  0
