# generated using pymatgen
data_ZnH20C26(NO2)2
_symmetry_space_group_name_H-M   'P 1'
_cell_length_a   8.38033808
_cell_length_b   14.12582274
_cell_length_c   21.74554359
_cell_angle_alpha   92.76055724
_cell_angle_beta   92.24220533
_cell_angle_gamma   100.92946247
_symmetry_Int_Tables_number   1
_chemical_formula_structural   ZnH20C26(NO2)2
_chemical_formula_sum   'Zn4 H80 C104 N8 O16'
_cell_volume   2521.53549721
_cell_formula_units_Z   4
loop_
 _symmetry_equiv_pos_site_id
 _symmetry_equiv_pos_as_xyz
  1  'x, y, z'
loop_
 _atom_site_type_symbol
 _atom_site_label
 _atom_site_symmetry_multiplicity
 _atom_site_fract_x
 _atom_site_fract_y
 _atom_site_fract_z
 _atom_site_occupancy
 _atom_site_pbe_bader_charge
 _atom_site_pbe_bader_spin_density
 _atom_site_pbe_cm5_charge
 _atom_site_pbe_ddec_charge
 _atom_site_pbe_ddec_spin_density
 _atom_site_pbe_ddec_sum_bond_order
 _atom_site_pbe_magmom
Zn  Zn0  1  0.08244605  0.81285019  0.54302942  1  1.238539  0  0.691461  0.750036  0  2.391487  0
Zn  Zn1  1  0.91754980  0.18714691  0.45697003  1  1.238636  0  0.691485  0.750066  0  2.391352  0
Zn  Zn2  1  0.88111741  0.81613246  0.92745806  1  1.240822  0  0.689799  0.741529  0  2.398228  0
Zn  Zn3  1  0.11887126  0.18385666  0.07254149  1  1.2407  0  0.68981  0.741652  0  2.398032  0
H  H4  1  0.17065551  0.53341729  0.47110025  1  0.095928  0  0.103392  0.108468  0  0.999599  0
H  H5  1  0.82934566  0.46658562  0.52889900  1  0.095909  0  0.103371  0.108451  0  0.999625  0
H  H6  1  0.28512778  0.38329780  0.45731859  1  0.049479  0  0.095971  0.094218  0  1.013892  0
H  H7  1  0.71487251  0.61670580  0.54268299  1  0.049356  0  0.095965  0.094246  0  1.01385  0
H  H8  1  0.44413635  0.33079166  0.54424256  1  0.065208  0  0.092584  0.085454  0  1.050123  0
H  H9  1  0.55585427  0.66921469  0.45576455  1  0.065034  0  0.092573  0.085427  0  1.050074  0
H  H10  1  0.48750701  0.42680102  0.64423828  1  0.061088  0  0.09355  0.089616  0  1.027869  0
H  H11  1  0.51247169  0.57320166  0.35576721  1  0.06124  0  0.093564  0.089747  0  1.027874  0
H  H12  1  0.37199607  0.57776839  0.65699678  1  0.084186  0  0.098337  0.09984  0  1.023262  0
H  H13  1  0.62798000  0.42223356  0.34300820  1  0.084732  0  0.098276  0.099702  0  1.023339  0
H  H14  1  0.43894540  0.06717181  0.51740657  1  0.093437  0  0.099434  0.100504  0  1.033221  0
H  H15  1  0.56106071  0.93282752  0.48259397  1  0.093454  0  0.099458  0.100524  0  1.033241  0
H  H16  1  0.64369442  0.22242949  0.52733747  1  0.096065  0  0.097974  0.100964  0  1.045416  0
H  H17  1  0.35630405  0.77756836  0.47266202  1  0.096115  0  0.097989  0.100981  0  1.045343  0
H  H18  1  0.73197811  0.29976086  0.63051191  1  0.069057  0  0.101788  0.0982  0  0.992614  0
H  H19  1  0.26802106  0.70024349  0.36948600  1  0.069134  0  0.101764  0.098171  0  0.99246  0
H  H20  1  0.62158154  0.22254906  0.72454309  1  0.054276  0  0.094206  0.086618  0  1.048236  0
H  H21  1  0.37841882  0.77745531  0.27545483  1  0.054253  0  0.094217  0.086602  0  1.048217  0
H  H22  1  0.40522997  0.07230860  0.71357853  1  0.075844  0  0.100434  0.100903  0  1.029532  0
H  H23  1  0.59477324  0.92769722  0.28641993  1  0.075912  0  0.100441  0.100909  0  1.029623  0
H  H24  1  0.90736109  0.69232926  0.43684489  1  0.140556  0  0.116693  0.08895  0  1.02932  0
H  H25  1  0.09264383  0.30767006  0.56315564  1  0.140541  0  0.116675  0.088954  0  1.029332  0
H  H26  1  0.87133993  0.70031968  0.32408350  1  0.059597  0  0.109457  0.114079  0  1.00508  0
H  H27  1  0.12865932  0.29967672  0.67591687  1  0.059609  0  0.109418  0.114041  0  1.005197  0
H  H28  1  0.10614612  0.00149024  0.34559327  1  0.08652  0  0.111534  0.121658  0  1.00678  0
H  H29  1  0.89383488  0.99850891  0.65440750  1  0.086436  0  0.111535  0.121655  0  1.006686  0
H  H30  1  0.12931932  0.98064214  0.45908112  1  0.115994  0  0.115558  0.083718  0  1.019198  0
H  H31  1  0.87067447  0.01936000  0.54091850  1  0.115989  0  0.115573  0.083763  0  1.019184  0
H  H32  1  0.00767511  0.93607106  0.24317503  1  0.096084  0  0.114298  0.123224  0  0.989448  0
H  H33  1  0.99232058  0.06392530  0.75682577  1  0.095992  0  0.114275  0.123157  0  0.989464  0
H  H34  1  0.94570186  0.71339842  0.23017265  1  0.074879  0  0.106413  0.101095  0  1.002528  0
H  H35  1  0.05431383  0.28660098  0.76982798  1  0.074791  0  0.106405  0.101106  0  1.002488  0
H  H36  1  0.92342144  0.94624982  0.14938115  1  0.109008  0  0.111028  0.114757  0  1.025368  0
H  H37  1  0.07659027  0.05375246  0.85061771  1  0.10861  0  0.111001  0.114686  0  1.025407  0
H  H38  1  0.90005739  0.94790698  0.03558330  1  0.153828  0  0.120737  0.096509  0  1.007691  0
H  H39  1  0.09995007  0.05208517  0.96441560  1  0.153667  0  0.120725  0.096489  0  1.007619  0
H  H40  1  0.93919220  0.66086023  0.01279052  1  0.17403  0  0.121895  0.108737  0  1.015948  0
H  H41  1  0.06083386  0.33913779  0.98721107  1  0.174065  0  0.121922  0.108753  0  1.015757  0
H  H42  1  0.96203112  0.64542125  0.12724492  1  0.093669  0  0.113377  0.121469  0  0.992288  0
H  H43  1  0.03799488  0.35458036  0.87275772  1  0.093723  0  0.113398  0.121492  0  0.992351  0
H  H44  1  0.01583392  0.77083033  0.67021562  1  0.172236  0  0.120515  0.102822  0  1.023797  0
H  H45  1  0.98416593  0.22917183  0.32978590  1  0.172232  0  0.120504  0.10286  0  1.023757  0
H  H46  1  0.79211352  0.77564590  0.74231469  1  0.094238  0  0.115073  0.127324  0  1.001437  0
H  H47  1  0.20788945  0.22436278  0.25768572  1  0.094196  0  0.115083  0.127336  0  1.001403  0
H  H48  1  0.49850618  0.84007485  0.58713966  1  0.11879  0  0.112268  0.129393  0  1.007957  0
H  H49  1  0.50149591  0.15992301  0.41286079  1  0.118732  0  0.112252  0.129322  0  1.007965  0
H  H50  1  0.73521002  0.83294578  0.52207124  1  0.104605  0  0.114386  0.078029  0  1.029541  0
H  H51  1  0.26478610  0.16704410  0.47792978  1  0.10462  0  0.114383  0.078033  0  1.029446  0
H  H52  1  0.38210770  0.83352867  0.68541335  1  0.133082  0  0.107046  0.118476  0  1.0344  0
H  H53  1  0.61789720  0.16648653  0.31458594  1  0.133157  0  0.106961  0.118325  0  1.034655  0
H  H54  1  0.59632902  0.79020029  0.79586963  1  0.150553  0  0.105298  0.109497  0  1.040369  0
H  H55  1  0.40366637  0.20980331  0.20412914  1  0.150422  0  0.105264  0.109417  0  1.040562  0
H  H56  1  0.45328000  0.75798716  0.88841829  1  0.117204  0  0.110441  0.127471  0  1.023538  0
H  H57  1  0.54672351  0.24201936  0.11158204  1  0.117078  0  0.110438  0.127476  0  1.02347  0
H  H58  1  0.21017392  0.76726360  0.95039621  1  0.12392  0  0.119329  0.084965  0  1.003868  0
H  H59  1  0.78981943  0.23272916  0.04960351  1  0.124441  0  0.119333  0.084995  0  1.003885  0
H  H60  1  0.98948790  0.89222136  0.81041883  1  0.144222  0  0.113327  0.089537  0  1.062859  0
H  H61  1  0.01050170  0.10777857  0.18958205  1  0.144266  0  0.113292  0.089453  0  1.062982  0
H  H62  1  0.22016723  0.88752598  0.74158818  1  0.157549  0  0.111158  0.135867  0  1.05182  0
H  H63  1  0.77982888  0.11247976  0.25841205  1  0.157555  0  0.111164  0.135888  0  1.051806  0
H  H64  1  0.47999672  0.62089683  0.81910848  1  0.0749  0  0.099559  0.099298  0  1.038  0
H  H65  1  0.52000583  0.37909611  0.18088166  1  0.074694  0  0.09962  0.099304  0  1.038041  0
H  H66  1  0.32193118  0.47758504  0.75815534  1  0.052385  0  0.099451  0.096175  0  1.000686  0
H  H67  1  0.67807664  0.52240579  0.24183339  1  0.052326  0  0.099455  0.09617  0  1.000463  0
H  H68  1  0.42549514  0.32335177  0.75273968  1  0.063865  0  0.093617  0.082844  0  1.037771  0
H  H69  1  0.57450035  0.67663751  0.24725073  1  0.063641  0  0.093689  0.083048  0  1.037754  0
H  H70  1  0.68569041  0.31287418  0.80961496  1  0.05077  0  0.093619  0.087658  0  1.039098  0
H  H71  1  0.31430681  0.68711295  0.19037539  1  0.028789  0  0.093584  0.087626  0  1.039132  0
H  H72  1  0.84212454  0.45826098  0.87056886  1  0.116564  0  0.098875  0.099082  0  1.025773  0
H  H73  1  0.15787097  0.54173187  0.12942490  1  0.116503  0  0.098861  0.099046  0  1.025788  0
H  H74  1  0.59559120  0.04952281  0.79499607  1  0.097343  0  0.099376  0.102128  0  1.025663  0
H  H75  1  0.40440559  0.95047280  0.20500793  1  0.09724  0  0.099357  0.102113  0  1.025663  0
H  H76  1  0.42754202  0.17849490  0.80572607  1  0.049433  0  0.094407  0.087493  0  1.034824  0
H  H77  1  0.57244810  0.82149851  0.19427686  1  0.049688  0  0.094365  0.087356  0  1.034945  0
H  H78  1  0.39148945  0.25040309  0.90947558  1  0.063354  0  0.097561  0.092511  0  1.01717  0
H  H79  1  0.60850796  0.74959471  0.09052759  1  0.063274  0  0.097588  0.09247  0  1.017199  0
H  H80  1  0.49892284  0.18404181  0.00301513  1  0.058683  0  0.099397  0.099502  0  1.017956  0
H  H81  1  0.50107667  0.81595887  0.99698863  1  0.058743  0  0.099421  0.099558  0  1.017985  0
H  H82  1  0.66096481  0.05322949  0.99166715  1  0.088125  0  0.099037  0.100421  0  1.024164  0
H  H83  1  0.33903953  0.94677121  0.00833803  1  0.08818  0  0.099064  0.100422  0  1.024196  0
C  C84  1  0.20246807  0.65614784  0.57260485  1  1.529443  0  0.195081  0.556271  0  4.228888  0
C  C85  1  0.79753171  0.34385433  0.42739482  1  1.529417  0  0.195074  0.55626  0  4.228915  0
C  C86  1  0.26516707  0.56406959  0.56479346  1  -0.066599  0  -0.024615  -0.042395  0  3.986221  0
C  C87  1  0.73482879  0.43593109  0.43520888  1  -0.0667  0  -0.024575  -0.042343  0  3.985971  0
C  C88  1  0.23990288  0.50909174  0.50863027  1  -0.002231  0  -0.083217  -0.086136  0  3.963362  0
C  C89  1  0.76009618  0.49091186  0.49137037  1  -0.002262  0  -0.083252  -0.086115  0  3.963343  0
C  C90  1  0.30368362  0.42523636  0.50128653  1  -0.077737  0  -0.0932  -0.085688  0  4.017322  0
C  C91  1  0.69631459  0.57476792  0.49871735  1  -0.077477  0  -0.093226  -0.085839  0  4.017381  0
C  C92  1  0.39307813  0.39589386  0.54995474  1  -0.045851  0  -0.09137  -0.08102  0  4.01624  0
C  C93  1  0.60690679  0.60410957  0.45005130  1  -0.046567  0  -0.091363  -0.080872  0  4.016209  0
C  C94  1  0.41741979  0.44987112  0.60635200  1  -0.040474  0  -0.10011  -0.097752  0  4.026387  0
C  C95  1  0.58255974  0.55013010  0.39365528  1  -0.040325  0  -0.100167  -0.098095  0  4.026696  0
C  C96  1  0.35355976  0.53373725  0.61377503  1  -0.057598  0  -0.089224  -0.102074  0  3.987066  0
C  C97  1  0.64642610  0.46626548  0.38623006  1  -0.057595  0  -0.089097  -0.101766  0  3.986757  0
C  C98  1  0.27860883  0.97235444  0.60987003  1  1.564187  0  0.197879  0.555372  0  4.246789  0
C  C99  1  0.72137321  0.02765191  0.39013195  1  1.563702  0  0.19774  0.555001  0  4.246995  0
C  C100  1  0.40742940  0.06232428  0.61493684  1  -0.093028  0  -0.025051  -0.039999  0  3.987668  0
C  C101  1  0.59256650  0.93768074  0.38506383  1  -0.092359  0  -0.025045  -0.039883  0  3.987549  0
C  C102  1  0.47596878  0.10365205  0.56240453  1  -0.072196  0  -0.091348  -0.104153  0  3.973313  0
C  C103  1  0.52402722  0.89634936  0.43759601  1  -0.071996  0  -0.091393  -0.104232  0  3.973306  0
C  C104  1  0.59080940  0.18943439  0.56800322  1  -0.044782  0  -0.097063  -0.089351  0  4.006654  0
C  C105  1  0.40919403  0.81056422  0.43199543  1  -0.044977  0  -0.097017  -0.08925  0  4.006597  0
C  C106  1  0.64151243  0.23295675  0.62634582  1  -0.08673  0  -0.089103  -0.071899  0  3.99413  0
C  C107  1  0.35849370  0.76704693  0.37365212  1  -0.08667  0  -0.089086  -0.071942  0  3.993716  0
C  C108  1  0.57787845  0.19023910  0.67902749  1  -0.035613  0  -0.098855  -0.096832  0  4.031136  0
C  C109  1  0.42212594  0.80976673  0.32097052  1  -0.035537  0  -0.098872  -0.096693  0  4.03079  0
C  C110  1  0.45939442  0.10610813  0.67333666  1  -0.008764  0  -0.090443  -0.1022  0  3.978917  0
C  C111  1  0.54060384  0.89389691  0.32666311  1  -0.009061  0  -0.090445  -0.102316  0  3.979074  0
C  C112  1  0.94832320  0.75967354  0.41478277  1  0.498759  0  0.049163  0.098869  0  3.944761  0
C  C113  1  0.05167840  0.24032646  0.58521914  1  0.498836  0  0.049142  0.098831  0  3.94471  0
C  C114  1  0.93131628  0.76471539  0.35150040  1  -0.047231  0  -0.076168  -0.170247  0  3.923832  0
C  C115  1  0.06867797  0.23528383  0.64850234  1  -0.047245  0  -0.07608  -0.170202  0  3.923936  0
C  C116  1  0.99058470  0.85196062  0.32423292  1  0.018935  0  0.015806  0.152261  0  4.005223  0
C  C117  1  0.00940827  0.14803861  0.67576797  1  0.018889  0  0.01572  0.152212  0  4.005163  0
C  C118  1  0.06040674  0.93174132  0.36402478  1  0.048582  0  -0.070624  -0.146622  0  3.894579  0
C  C119  1  0.93958359  0.06825718  0.63597513  1  0.048653  0  -0.070609  -0.146616  0  3.894413  0
C  C120  1  0.07195256  0.92115943  0.42703545  1  0.431241  0  0.049314  0.099641  0  3.936972  0
C  C121  1  0.92804177  0.07884055  0.57296410  1  0.431217  0  0.049304  0.099566  0  3.937153  0
C  C122  1  0.98368097  0.86203533  0.25792157  1  -0.007933  0  -0.066713  -0.09802  0  3.910108  0
C  C123  1  0.01630969  0.13796029  0.74207870  1  -0.007772  0  -0.066645  -0.097907  0  3.909876  0
C  C124  1  0.95806491  0.78717219  0.21524129  1  -0.072592  0  -0.07687  -0.121142  0  3.953986  0
C  C125  1  0.04193838  0.21282567  0.78475918  1  -0.072627  0  -0.076888  -0.121186  0  3.953716  0
C  C126  1  0.94874619  0.79556427  0.14886712  1  -0.05942  0  0.013061  0.15023  0  4.015553  0
C  C127  1  0.05126998  0.20443656  0.85113449  1  -0.059093  0  0.013035  0.150212  0  4.015358  0
C  C128  1  0.93106407  0.88139356  0.12157817  1  0.015863  0  -0.07158  -0.152105  0  3.915163  0
C  C129  1  0.06894975  0.11860367  0.87842189  1  0.015946  0  -0.071488  -0.151953  0  3.915058  0
C  C130  1  0.91834402  0.88332284  0.05805237  1  0.433032  0  0.051919  0.101008  0  3.928183  0
C  C131  1  0.08167339  0.11667441  0.94194774  1  0.433026  0  0.051913  0.101082  0  3.928033  0
C  C132  1  0.93877253  0.72183642  0.04552437  1  0.399336  0  0.048726  0.085993  0  3.938855  0
C  C133  1  0.06125333  0.27816087  0.95447764  1  0.399783  0  0.048782  0.086126  0  3.938566  0
C  C134  1  0.95152153  0.71457664  0.10887041  1  -0.001258  0  -0.076743  -0.171999  0  3.921063  0
C  C135  1  0.04850425  0.28542425  0.89113220  1  -0.001463  0  -0.076825  -0.172078  0  3.920986  0
C  C136  1  0.89896204  0.78646819  0.65472317  1  0.45394  0  0.049816  0.099218  0  3.932246  0
C  C137  1  0.10104231  0.21353687  0.34527942  1  0.454299  0  0.049737  0.09905  0  3.932295  0
C  C138  1  0.77356990  0.78916715  0.69392176  1  -0.003848  0  -0.074269  -0.164094  0  3.887897  0
C  C139  1  0.22643633  0.21084801  0.30608122  1  -0.004154  0  -0.074297  -0.164049  0  3.887969  0
C  C140  1  0.62516543  0.81025569  0.67117985  1  0.009621  0  0.019465  0.166549  0  3.990149  0
C  C141  1  0.37484626  0.18975810  0.32882083  1  0.009725  0  0.01944  0.166476  0  3.990289  0
C  C142  1  0.61128151  0.82509475  0.60765846  1  -0.026024  0  -0.077403  -0.168518  0  3.891004  0
C  C143  1  0.38872826  0.17490894  0.39234090  1  -0.026042  0  -0.077385  -0.168392  0  3.891012  0
C  C144  1  0.74225800  0.82128467  0.57125840  1  0.393997  0  0.04113  0.076547  0  3.981974  0
C  C145  1  0.25775039  0.17871828  0.42874184  1  0.393963  0  0.041109  0.076526  0  3.981762  0
C  C146  1  0.49022716  0.81853599  0.70959517  1  -0.105594  0  -0.073554  -0.107092  0  3.907624  0
C  C147  1  0.50977714  0.18147701  0.29040587  1  -0.105621  0  -0.073394  -0.106973  0  3.907735  0
C  C148  1  0.49132834  0.80825398  0.77113069  1  -0.014246  0  -0.07102  -0.09983  0  3.915237  0
C  C149  1  0.50867126  0.19175539  0.22886971  1  -0.014057  0  -0.07097  -0.09963  0  3.915267  0
C  C150  1  0.35543940  0.81875474  0.80875332  1  -0.010073  0  0.016359  0.163506  0  3.981154  0
C  C151  1  0.64456060  0.18125173  0.19124882  1  -0.010276  0  0.016199  0.163235  0  3.981158  0
C  C152  1  0.35218873  0.78786561  0.86940961  1  -0.071291  0  -0.077089  -0.173704  0  3.892913  0
C  C153  1  0.64781146  0.21213802  0.13058920  1  -0.071187  0  -0.076964  -0.173476  0  3.892635  0
C  C154  1  0.21843444  0.79344552  0.90408160  1  0.475039  0  0.049723  0.103304  0  3.955049  0
C  C155  1  0.78156426  0.20655304  0.09591839  1  0.47479  0  0.049696  0.103166  0  3.955217  0
C  C156  1  0.09557164  0.86282666  0.82491915  1  0.437717  0  0.037148  0.075008  0  3.951695  0
C  C157  1  0.90441917  0.13717327  0.17508220  1  0.437944  0  0.037144  0.075091  0  3.951821  0
C  C158  1  0.22347167  0.85878896  0.78721937  1  -0.038903  0  -0.077318  -0.164293  0  3.880156  0
C  C159  1  0.77652549  0.14121605  0.21278269  1  -0.038952  0  -0.07729  -0.164279  0  3.880019  0
C  C160  1  0.76940885  0.63296004  0.88499879  1  1.54798  0  0.194846  0.557171  0  4.224695  0
C  C161  1  0.23058737  0.36702702  0.11499660  1  1.547772  0  0.194948  0.55712  0  4.224854  0
C  C162  1  0.67088806  0.54774343  0.84821506  1  -0.009478  0  -0.022502  -0.030184  0  3.972573  0
C  C163  1  0.32909858  0.45224357  0.15177978  1  -0.009169  0  -0.022489  -0.030319  0  3.973041  0
C  C164  1  0.52408561  0.55318087  0.81670584  1  -0.02534  0  -0.086062  -0.091211  0  3.961884  0
C  C165  1  0.47590796  0.44680982  0.18328552  1  -0.024835  0  -0.086018  -0.09102  0  3.961573  0
C  C166  1  0.43585021  0.47256150  0.78267662  1  -0.062527  0  -0.098283  -0.094879  0  4.029573  0
C  C167  1  0.56414319  0.52742846  0.21731609  1  -0.062815  0  -0.09833  -0.09482  0  4.028985  0
C  C168  1  0.49410685  0.38616330  0.77969389  1  -0.059006  0  -0.094567  -0.087384  0  4.024279  0
C  C169  1  0.50588673  0.61382303  0.22030052  1  -0.058797  0  -0.094632  -0.087775  0  4.024417  0
C  C170  1  0.64071533  0.38045854  0.81101328  1  -0.044629  0  -0.098375  -0.094021  0  4.035467  0
C  C171  1  0.35928032  0.61953070  0.18898127  1  -0.022511  0  -0.098378  -0.093907  0  4.03559  0
C  C172  1  0.72826245  0.46073699  0.84522824  1  -0.107517  0  -0.086861  -0.094832  0  3.974724  0
C  C173  1  0.27173129  0.53925008  0.15476482  1  -0.107358  0  -0.086887  -0.094819  0  3.975042  0
C  C174  1  0.74005677  0.96848641  0.88479082  1  1.543305  0  0.196775  0.559281  0  4.235026  0
C  C175  1  0.25995083  0.03151799  0.11520855  1  1.543508  0  0.196843  0.559322  0  4.235053  0
C  C176  1  0.64030785  0.04545909  0.89259160  1  -0.011009  0  -0.025227  -0.04237  0  3.983905  0
C  C177  1  0.35970634  0.95454675  0.10741201  1  -0.011827  0  -0.025266  -0.042472  0  3.983946  0
C  C178  1  0.57384724  0.08045049  0.84011940  1  -0.056558  0  -0.089576  -0.100844  0  3.978986  0
C  C179  1  0.42616096  0.91955531  0.15988417  1  -0.056553  0  -0.08959  -0.100844  0  3.97902  0
C  C180  1  0.48250107  0.15276598  0.84640048  1  -0.095793  0  -0.101119  -0.100984  0  4.037063  0
C  C181  1  0.51750622  0.84723694  0.15360205  1  -0.096093  0  -0.101105  -0.100845  0  4.036932  0
C  C182  1  0.45980668  0.19223272  0.90488441  1  -0.022208  0  -0.093125  -0.074377  0  4.012306  0
C  C183  1  0.54020059  0.80777020  0.09511766  1  -0.022047  0  -0.093048  -0.074209  0  4.01226  0
C  C184  1  0.52294123  0.15635312  0.95733954  1  -0.027104  0  -0.0954  -0.091316  0  4.011393  0
C  C185  1  0.47707010  0.84365126  0.04266354  1  -0.027195  0  -0.095529  -0.091547  0  4.011558  0
C  C186  1  0.61236740  0.08285474  0.95122314  1  -0.090827  0  -0.090002  -0.096733  0  3.974207  0
C  C187  1  0.38764327  0.91714748  0.04877985  1  -0.090496  0  -0.089973  -0.096622  0  3.97407  0
N  N188  1  0.01734952  0.83652658  0.45238951  1  -1.260982  0  -0.333021  -0.242811  0  3.550113  0
N  N189  1  0.98264631  0.16347410  0.54761192  1  -1.260911  0  -0.332991  -0.242703  0  3.550186  0
N  N190  1  0.92198105  0.80510266  0.02023619  1  -1.250056  0  -0.330096  -0.232304  0  3.562246  0
N  N191  1  0.07803467  0.19489316  0.97976246  1  -1.250267  0  -0.330135  -0.232535  0  3.562329  0
N  N192  1  0.88490140  0.80347577  0.59420695  1  -1.263219  0  -0.338943  -0.244952  0  3.616328  0
N  N193  1  0.11510517  0.19652857  0.40579654  1  -1.263327  0  -0.338846  -0.244861  0  3.616067  0
N  N194  1  0.09119843  0.83000851  0.88242827  1  -1.270652  0  -0.338424  -0.239382  0  3.594606  0
N  N195  1  0.90879562  0.16998640  0.11757245  1  -1.270989  0  -0.338418  -0.239377  0  3.594817  0
O  O196  1  0.14531419  0.68744605  0.52240404  1  -1.168332  0  -0.339319  -0.563406  0  2.328537  0
O  O197  1  0.85468249  0.31255396  0.47759415  1  -1.168246  0  -0.339233  -0.56336  0  2.328549  0
O  O198  1  0.20844829  0.70009989  0.62433296  1  -1.173109  0  -0.323393  -0.554679  0  2.154919  0
O  O199  1  0.79154889  0.29990591  0.37566407  1  -1.173047  0  -0.323451  -0.554734  0  2.154883  0
O  O200  1  0.25531123  0.92820840  0.55525684  1  -1.176229  0  -0.339082  -0.566542  0  2.361131  0
O  O201  1  0.74468362  0.07179300  0.44474460  1  -1.175979  0  -0.339019  -0.566428  0  2.361075  0
O  O202  1  0.20213319  0.94471085  0.65593460  1  -1.18447  0  -0.315319  -0.554418  0  2.216923  0
O  O203  1  0.79783889  0.05529833  0.34406556  1  -1.184902  0  -0.315274  -0.554222  0  2.217046  0
O  O204  1  0.71468351  0.71352797  0.88384157  1  -1.173303  0  -0.338732  -0.559901  0  2.307737  0
O  O205  1  0.28532369  0.28645990  0.11615349  1  -1.173485  0  -0.338837  -0.559957  0  2.30767  0
O  O206  1  0.89761470  0.62509728  0.91421052  1  -1.183277  0  -0.329202  -0.557875  0  2.131601  0
O  O207  1  0.10237991  0.37488833  0.08578526  1  -1.183363  0  -0.329257  -0.557855  0  2.131666  0
O  O208  1  0.78053539  0.93158022  0.93542678  1  -1.178671  0  -0.339687  -0.571391  0  2.370201  0
O  O209  1  0.21946192  0.06841403  0.06457119  1  -1.178206  0  -0.339745  -0.571424  0  2.370152  0
O  O210  1  0.77952361  0.94443681  0.83214360  1  -1.176572  0  -0.320593  -0.557341  0  2.178414  0
O  O211  1  0.22048230  0.05557408  0.16785416  1  -1.176729  0  -0.320536  -0.557287  0  2.178346  0
