# generated using pymatgen
data_HgH11C13Br2N2O
_symmetry_space_group_name_H-M   'P 1'
_cell_length_a   9.73732279
_cell_length_b   10.02633529
_cell_length_c   10.68286883
_cell_angle_alpha   71.90082087
_cell_angle_beta   86.42537196
_cell_angle_gamma   64.35800730
_symmetry_Int_Tables_number   1
_chemical_formula_structural   HgH11C13Br2N2O
_chemical_formula_sum   'Hg2 H22 C26 Br4 N4 O2'
_cell_volume   890.55749383
_cell_formula_units_Z   2
loop_
 _symmetry_equiv_pos_site_id
 _symmetry_equiv_pos_as_xyz
  1  'x, y, z'
loop_
 _atom_site_type_symbol
 _atom_site_label
 _atom_site_symmetry_multiplicity
 _atom_site_fract_x
 _atom_site_fract_y
 _atom_site_fract_z
 _atom_site_occupancy
 _atom_site_hle17_bader_spin_density
 _atom_site_hle17_ddec_charge
 _atom_site_hle17_ddec_spin_density
 _atom_site_hle17_ddec_sum_bond_order
 _atom_site_hle17_magmom
 _atom_site_hse06_10hf_bader_spin_density
 _atom_site_hse06_10hf_ddec_charge
 _atom_site_hse06_10hf_ddec_spin_density
 _atom_site_hse06_10hf_ddec_sum_bond_order
 _atom_site_hse06_10hf_magmom
 _atom_site_hse06_bader_spin_density
 _atom_site_hse06_ddec_charge
 _atom_site_hse06_ddec_spin_density
 _atom_site_hse06_ddec_sum_bond_order
 _atom_site_hse06_magmom
 _atom_site_pbe_bader_spin_density
 _atom_site_pbe_cm5_charge
 _atom_site_pbe_ddec_charge
 _atom_site_pbe_ddec_spin_density
 _atom_site_pbe_ddec_sum_bond_order
 _atom_site_pbe_magmom
Hg  Hg0  1  0.82514082  0.56988158  0.62010747  1  0  0.670833  0  2.069793  0  0  0.529384  0  2.561426  0  0  0.579012  0  2.525421  0  0  0.44164  0.495754  0  2.585633  0
Hg  Hg1  1  0.17486772  0.43010402  0.37988442  1  0  0.670863  0  2.069836  0  0  0.529411  0  2.561447  0  0  0.57904  0  2.525444  0  0  0.441648  0.49578  0  2.585651  0
H  H2  1  0.54511625  0.46085816  0.24980641  1  0  0.127582  0  0.928641  0  0  0.137524  0  0.984038  0  0  0.140867  0  0.983471  0  0  0.117529  0.135091  0  0.984629  0
H  H3  1  0.45487752  0.53916820  0.75016576  1  0  0.127553  0  0.928711  0  0  0.137464  0  0.984144  0  0  0.140807  0  0.98358  0  0  0.117501  0.135033  0  0.984733  0
H  H4  1  0.74671265  0.41209797  0.41737678  1  0  0.070893  0  0.974795  0  0  0.074854  0  1.050429  0  0  0.077048  0  1.048994  0  0  0.104069  0.073269  0  1.051461  0
H  H5  1  0.25329038  0.58790272  0.58260344  1  0  0.070874  0  0.974779  0  0  0.074866  0  1.050424  0  0  0.07704  0  1.049006  0  0  0.104072  0.073308  0  1.051432  0
H  H6  1  0.49487656  0.84312954  0.46885495  1  0  0.07234  0  0.965552  0  0  0.074767  0  1.042599  0  0  0.077662  0  1.039874  0  0  0.100036  0.072738  0  1.044464  0
H  H7  1  0.50513827  0.15686692  0.53114939  1  0  0.072278  0  0.965492  0  0  0.074673  0  1.042595  0  0  0.077568  0  1.039867  0  0  0.100012  0.072644  0  1.04446  0
H  H8  1  0.28492272  0.91099125  0.30673225  1  0  0.102787  0  0.973677  0  0  0.109909  0  1.042434  0  0  0.113292  0  1.040821  0  0  0.101005  0.107383  0  1.043996  0
H  H9  1  0.71508590  0.08901688  0.69327175  1  0  0.102794  0  0.973656  0  0  0.109925  0  1.042409  0  0  0.113309  0  1.040793  0  0  0.100983  0.107395  0  1.043967  0
H  H10  1  0.99722150  0.83995769  0.05516363  1  0  0.067611  0  0.901512  0  0  0.078687  0  0.96346  0  0  0.079813  0  0.961945  0  0  0.114186  0.077546  0  0.964949  0
H  H11  1  0.00277080  0.16003840  0.94484556  1  0  0.067527  0  0.901585  0  0  0.07858  0  0.963469  0  0  0.079705  0  0.961959  0  0  0.114163  0.077437  0  0.964958  0
H  H12  1  0.94214011  0.80444801  0.85671417  1  0  0.081849  0  0.966307  0  0  0.091614  0  1.030237  0  0  0.094985  0  1.027749  0  0  0.090261  0.089217  0  1.031989  0
H  H13  1  0.05784729  0.19555258  0.14328270  1  0  0.081886  0  0.966278  0  0  0.091642  0  1.030221  0  0  0.095016  0  1.027731  0  0  0.090269  0.089243  0  1.031979  0
H  H14  1  0.99905357  0.79878472  0.62923869  1  0  0.073651  0  1.000076  0  0  0.077589  0  1.077161  0  0  0.080219  0  1.076027  0  0  0.078977  0.075816  0  1.077679  0
H  H15  1  0.00095061  0.20121268  0.37076211  1  0  0.073679  0  1.000012  0  0  0.077609  0  1.077103  0  0  0.08024  0  1.075967  0  0  0.078978  0.075837  0  1.077621  0
H  H16  1  0.20468956  0.86749641  0.52358210  1  0  0.07708  0  0.977902  0  0  0.087678  0  1.044022  0  0  0.089608  0  1.04443  0  0  0.090298  0.086476  0  1.043429  0
H  H17  1  0.79532670  0.13249427  0.47643042  1  0  0.077019  0  0.977964  0  0  0.087633  0  1.044077  0  0  0.089562  0  1.044483  0  0  0.09025  0.086427  0  1.043488  0
H  H18  1  0.35708280  0.93729693  0.64982318  1  0  0.078072  0  0.984041  0  0  0.083848  0  1.056235  0  0  0.086718  0  1.054501  0  0  0.083228  0.081831  0  1.057477  0
H  H19  1  0.64292461  0.06268548  0.35020246  1  0  0.078041  0  0.983975  0  0  0.083871  0  1.056128  0  0  0.086732  0  1.054424  0  0  0.083236  0.08185  0  1.057378  0
H  H20  1  0.29111415  0.95635555  0.87295380  1  0  0.087717  0  0.944485  0  0  0.099202  0  1.001967  0  0  0.102551  0  1.0002  0  0  0.095763  0.096739  0  1.003567  0
H  H21  1  0.70887860  0.04363237  0.12706245  1  0  0.08775  0  0.944439  0  0  0.09924  0  1.001917  0  0  0.102595  0  1.000143  0  0  0.095784  0.096777  0  1.003515  0
H  H22  1  0.19673903  0.95378798  0.12437327  1  0  0.27897  0  0.915176  0  0  0.2667  0  0.975315  0  0  0.272887  0  0.971351  0  0  0.312064  0.262261  0  0.978208  0
H  H23  1  0.80324260  0.04622783  0.87562501  1  0  0.278913  0  0.91525  0  0  0.266646  0  0.97536  0  0  0.272831  0  0.971397  0  0  0.312067  0.262216  0  0.978244  0
C  C24  1  0.53131182  0.54845727  0.29574791  1  0  -0.108861  0  3.670001  0  0  -0.127977  0  3.90844  0  0  -0.133248  0  3.928961  0  0  -0.069445  -0.124298  0  3.894569  0
C  C25  1  0.46869052  0.45156344  0.70423209  1  0  -0.108721  0  3.669921  0  0  -0.127814  0  3.908361  0  0  -0.133081  0  3.928875  0  0  -0.069393  -0.124136  0  3.894498  0
C  C26  1  0.64246177  0.52118802  0.38845046  1  0  0.123163  0  3.707536  0  0  0.095125  0  3.958998  0  0  0.101207  0  3.978547  0  0  0.044501  0.091138  0  3.945577  0
C  C27  1  0.35754527  0.47882216  0.61152867  1  0  0.122933  0  3.707533  0  0  0.094827  0  3.959072  0  0  0.100925  0  3.978629  0  0  0.044371  0.090815  0  3.945638  0
C  C28  1  0.50212261  0.76217295  0.41726427  1  0  0.128124  0  3.711793  0  0  0.10061  0  3.962334  0  0  0.106479  0  3.981271  0  0  0.043036  0.096831  0  3.949214  0
C  C29  1  0.49788814  0.23783047  0.58273727  1  0  0.128217  0  3.711928  0  0  0.10073  0  3.962463  0  0  0.106606  0  3.981392  0  0  0.043132  0.09695  0  3.949342  0
C  C30  1  0.38577654  0.79939657  0.32509677  1  0  -0.141454  0  3.716336  0  0  -0.161766  0  3.961636  0  0  -0.166711  0  3.981759  0  0  -0.085128  -0.158722  0  3.948317  0
C  C31  1  0.61423481  0.20061502  0.67489673  1  0  -0.141462  0  3.716583  0  0  -0.161806  0  3.961861  0  0  -0.166752  0  3.981988  0  0  -0.085073  -0.158755  0  3.948532  0
C  C32  1  0.40005438  0.69083310  0.26262198  1  0  0.003469  0  3.732292  0  0  0.022484  0  3.963859  0  0  0.02062  0  3.984512  0  0  0.005818  0.023661  0  3.949935  0
C  C33  1  0.59994773  0.30918070  0.73737317  1  0  0.003465  0  3.732326  0  0  0.022564  0  3.963832  0  0  0.020705  0  3.984494  0  0  0.005795  0.023736  0  3.949902  0
C  C34  1  0.27799488  0.71766419  0.16577283  1  0  0.534837  0  3.85156  0  0  0.486643  0  4.142476  0  0  0.515976  0  4.140479  0  0  0.234823  0.467065  0  4.14292  0
C  C35  1  0.72199525  0.28234601  0.83423701  1  0  0.534622  0  3.851928  0  0  0.486291  0  4.143025  0  0  0.515599  0  4.141072  0  0  0.23464  0.466727  0  4.143449  0
C  C36  1  0.05660986  0.91297805  0.00935573  1  0  0.10275  0  3.606767  0  0  0.071605  0  3.852281  0  0  0.076453  0  3.864735  0  0  0.027756  0.068396  0  3.843542  0
C  C37  1  0.94337179  0.08701898  0.99064992  1  0  0.102903  0  3.606697  0  0  0.07203  0  3.851896  0  0  0.076878  0  3.86435  0  0  0.027865  0.068819  0  3.843159  0
C  C38  1  0.10805872  0.88789113  0.87808600  1  0  0.040314  0  3.732986  0  0  0.059086  0  3.968795  0  0  0.058764  0  3.992934  0  0  -0.017228  0.059336  0  3.952293  0
C  C39  1  0.89193115  0.11210368  0.12191806  1  0  0.040388  0  3.732904  0  0  0.059084  0  3.96871  0  0  0.058765  0  3.992847  0  0  -0.017216  0.059334  0  3.952207  0
C  C40  1  0.02972902  0.83933904  0.80991951  1  0  -0.130647  0  3.773408  0  0  -0.148557  0  4.015219  0  0  -0.152036  0  4.037425  0  0  -0.101765  -0.145393  0  3.999173  0
C  C41  1  0.97026389  0.16065583  0.19008533  1  0  -0.130749  0  3.77318  0  0  -0.148644  0  4.015003  0  0  -0.152129  0  4.037213  0  0  -0.101816  -0.145477  0  3.998958  0
C  C42  1  0.06378660  0.83276408  0.68253278  1  0  -0.071137  0  3.797673  0  0  -0.079207  0  4.03899  0  0  -0.081657  0  4.062825  0  0  -0.100895  -0.077146  0  4.021805  0
C  C43  1  0.93621496  0.16722745  0.31747453  1  0  -0.071154  0  3.797474  0  0  -0.079212  0  4.038802  0  0  -0.081664  0  4.062641  0  0  -0.10089  -0.077144  0  4.021604  0
C  C44  1  0.18006001  0.87018914  0.62391072  1  0  -0.075466  0  3.772842  0  0  -0.087244  0  4.013849  0  0  -0.09055  0  4.038006  0  0  -0.09921  -0.08544  0  3.997138  0
C  C45  1  0.81994248  0.12980950  0.37609821  1  0  -0.075453  0  3.77268  0  0  -0.087244  0  4.013691  0  0  -0.090545  0  4.037847  0  0  -0.099156  -0.085437  0  3.996981  0
C  C46  1  0.26374677  0.91141200  0.69371107  1  0  -0.061898  0  3.781101  0  0  -0.071713  0  4.025915  0  0  -0.073424  0  4.047899  0  0  -0.09862  -0.070354  0  4.011278  0
C  C47  1  0.73625675  0.08857961  0.30630081  1  0  -0.061698  0  3.780601  0  0  -0.071552  0  4.025409  0  0  -0.073268  0  4.047388  0  0  -0.098565  -0.07019  0  4.010773  0
C  C48  1  0.22703359  0.92132851  0.81990079  1  0  -0.095302  0  3.733106  0  0  -0.11637  0  3.977102  0  0  -0.118675  0  3.997342  0  0  -0.096506  -0.115504  0  3.96407  0
C  C49  1  0.77296181  0.07866528  0.18010800  1  0  -0.095496  0  3.733081  0  0  -0.116573  0  3.977138  0  0  -0.118884  0  3.997379  0  0  -0.096589  -0.115698  0  3.964098  0
Br  Br50  1  0.00827352  0.30024851  0.61830801  1  0  -0.371929  0  1.157284  0  0  -0.312005  0  1.476842  0  0  -0.334967  0  1.459057  0  0  -0.183701  -0.296363  0  1.488779  0
Br  Br51  1  0.99171932  0.69973791  0.38167778  1  0  -0.371921  0  1.157341  0  0  -0.311993  0  1.476894  0  0  -0.334953  0  1.459107  0  0  -0.183702  -0.296359  0  1.488849  0
Br  Br52  1  0.69059961  0.80814613  0.68986470  1  0  -0.393462  0  1.021009  0  0  -0.334651  0  1.303537  0  0  -0.353379  0  1.282994  0  0  -0.204389  -0.322055  0  1.317714  0
Br  Br53  1  0.30941836  0.19183951  0.31011459  1  0  -0.39347  0  1.020951  0  0  -0.33466  0  1.303466  0  0  -0.353386  0  1.282929  0  0  -0.204397  -0.322064  0  1.317635  0
N  N54  1  0.62761111  0.62579196  0.44835118  1  0  -0.29448  0  3.261868  0  0  -0.222001  0  3.522394  0  0  -0.241253  0  3.54431  0  0  -0.310388  -0.208617  0  3.507021  0
N  N55  1  0.37239527  0.37420773  0.55164042  1  0  -0.294316  0  3.261894  0  0  -0.22182  0  3.522421  0  0  -0.241072  0  3.544332  0  0  -0.310351  -0.208438  0  3.507055  0
N  N56  1  0.18405479  0.86872781  0.10144227  1  0  -0.441695  0  3.347014  0  0  -0.392709  0  3.598505  0  0  -0.414386  0  3.608523  0  0  -0.415797  -0.377923  0  3.591056  0
N  N57  1  0.81592883  0.13127634  0.89856402  1  0  -0.441637  0  3.347047  0  0  -0.392633  0  3.598474  0  0  -0.414304  0  3.608507  0  0  -0.415793  -0.377862  0  3.59101  0
O  O58  1  0.26551420  0.60689988  0.14748089  1  0  -0.535733  0  1.921333  0  0  -0.493204  0  2.140156  0  0  -0.513964  0  2.132645  0  0  -0.301928  -0.478828  0  2.144694  0
O  O59  1  0.73448314  0.39310103  0.85252948  1  0  -0.535605  0  1.921653  0  0  -0.49304  0  2.140533  0  0  -0.513794  0  2.133045  0  0  -0.301818  -0.478671  0  2.145061  0
