# generated using pymatgen
data_ZnH24C20N2O9
_symmetry_space_group_name_H-M   'P 1'
_cell_length_a   9.76847791
_cell_length_b   10.98812185
_cell_length_c   15.84359725
_cell_angle_alpha   93.46637243
_cell_angle_beta   77.55777493
_cell_angle_gamma   88.88972861
_symmetry_Int_Tables_number   1
_chemical_formula_structural   ZnH24C20N2O9
_chemical_formula_sum   'Zn2 H48 C40 N4 O18'
_cell_volume   1656.71240850
_cell_formula_units_Z   2
loop_
 _symmetry_equiv_pos_site_id
 _symmetry_equiv_pos_as_xyz
  1  'x, y, z'
loop_
 _atom_site_type_symbol
 _atom_site_label
 _atom_site_symmetry_multiplicity
 _atom_site_fract_x
 _atom_site_fract_y
 _atom_site_fract_z
 _atom_site_occupancy
 _atom_site_pbe_bader_charge
 _atom_site_pbe_bader_spin_density
 _atom_site_pbe_cm5_charge
 _atom_site_pbe_ddec_charge
 _atom_site_pbe_ddec_spin_density
 _atom_site_pbe_ddec_sum_bond_order
 _atom_site_pbe_magmom
Zn  Zn0  1  0.65436872  0.51442638  0.46765234  1  1.30805  0  0.687548  0.825809  0  2.439931  0
Zn  Zn1  1  0.35614122  0.46858603  0.52388032  1  1.309456  0  0.687901  0.834263  0  2.404589  0
H  H2  1  0.37640288  0.71754845  0.05440175  1  0.090636  0  0.107772  0.124274  0  0.991928  0
H  H3  1  0.58762563  0.31237518  0.94465662  1  0.090343  0  0.106936  0.120188  0  0.999741  0
H  H4  1  0.39930499  0.10249452  0.51219680  1  0.131805  0  0.122036  0.132572  0  0.983721  0
H  H5  1  0.62264166  0.88399899  0.47107920  1  0.117169  0  0.122703  0.134675  0  0.986264  0
H  H6  1  0.86275580  0.47590269  0.55713104  1  0.202575  0  0.137893  0.123078  0  1.023992  0
H  H7  1  0.14846213  0.53715487  0.43158559  1  0.225689  0  0.141543  0.13087  0  1.009175  0
H  H8  1  0.80978356  0.79201553  0.94234222  1  0.05395  0  0.102042  0.067553  0  0.974394  0
H  H9  1  0.68761739  0.75214852  0.03610011  1  0.025249  0  0.103296  0.068332  0  0.993406  0
H  H10  1  0.62578514  0.92701705  0.90367530  1  0.038954  0  0.094334  0.090722  0  0.968416  0
H  H11  1  0.50552133  0.89184469  0.99868085  1  0.011656  0  0.087181  0.073908  0  1.007042  0
H  H12  1  0.66747669  0.98188253  0.09051652  1  0.017322  0  0.090225  0.120473  0  0.994998  0
H  H13  1  0.61669562  0.09118299  0.02439454  1  0.044142  0  0.086523  0.112714  0  1.016771  0
H  H14  1  0.78610833  0.01934542  0.99481402  1  0.02868  0  0.086534  0.111435  0  1.008846  0
H  H15  1  0.37884258  0.19387337  0.99629161  1  0.026855  0  0.091898  0.046526  0  0.99303  0
H  H16  1  0.22183191  0.27288079  0.98687537  1  0.058826  0  0.097681  0.061998  0  1.003067  0
H  H17  1  0.25739718  0.13125938  0.14252446  1  0.032235  0  0.096661  0.092714  0  0.964515  0
H  H18  1  0.10118055  0.20634938  0.13199446  1  0.03467  0  0.097071  0.092151  0  0.96807  0
H  H19  1  0.09347252  0.06507892  0.00016266  1  0.001121  0  0.083273  0.104509  0  1.024119  0
H  H20  1  0.09515984  0.98148676  0.09231402  1  0.033652  0  0.089508  0.119328  0  1.003386  0
H  H21  1  0.25059681  0.98982951  0.01084657  1  0.019762  0  0.082668  0.103308  0  1.028116  0
H  H22  1  0.09803287  0.58546724  0.88238846  1  0.04658  0  0.104066  0.069312  0  0.990019  0
H  H23  1  0.27893226  0.57517375  0.83132587  1  0.069448  0  0.099756  0.072401  0  1.004551  0
H  H24  1  0.14847376  0.76884980  0.97585002  1  0.016425  0  0.087953  0.077719  0  0.994988  0
H  H25  1  0.32238798  0.76488967  0.91304381  1  0.028527  0  0.089455  0.083858  0  0.992447  0
H  H26  1  0.22830399  0.78844687  0.77704210  1  0.036642  0  0.087706  0.125751  0  1.005017  0
H  H27  1  0.17649648  0.91306551  0.85414319  1  0.034656  0  0.085926  0.114113  0  1.012074  0
H  H28  1  0.05533170  0.79868377  0.84117798  1  0.008596  0  0.083994  0.10708  0  1.012279  0
H  H29  1  0.94193470  0.51606296  0.00387874  1  0.050336  0  0.105833  0.077552  0  0.984196  0
H  H30  1  0.84220531  0.49946047  0.92215299  1  0.042466  0  0.10019  0.063948  0  0.986734  0
H  H31  1  0.92919650  0.30117233  0.03076289  1  0.013377  0  0.094207  0.089725  0  0.975176  0
H  H32  1  0.80107737  0.27748654  0.96879453  1  0.018824  0  0.08755  0.075763  0  1.011284  0
H  H33  1  0.97228237  0.32393374  0.83332913  1  0.036307  0  0.085981  0.112688  0  1.020418  0
H  H34  1  0.03934452  0.20212748  0.88281340  1  0.032864  0  0.084903  0.109346  0  1.021295  0
H  H35  1  0.10420775  0.35103229  0.89308914  1  0.017702  0  0.087073  0.114761  0  1.040041  0
H  H36  1  0.88861770  0.78897876  0.35742377  1  0.043368  0  0.105481  0.079815  0  0.966218  0
H  H37  1  0.75333745  0.68089916  0.35663959  1  0.11568  0  0.108295  0.084325  0  1.034888  0
H  H38  1  0.03043172  0.67716162  0.22108585  1  0.04091  0  0.094531  0.087852  0  0.970591  0
H  H39  1  0.88923972  0.57799518  0.22044817  1  0.064364  0  0.099453  0.100656  0  0.964929  0
H  H40  1  0.73186269  0.75268749  0.20337824  1  0.03966  0  0.086036  0.113979  0  1.008398  0
H  H41  1  0.88616608  0.74796949  0.12022711  1  0.035776  0  0.085317  0.1092  0  1.021933  0
H  H42  1  0.86632668  0.85772936  0.20972842  1  0.043598  0  0.083854  0.112151  0  1.017927  0
H  H43  1  0.12129218  0.29964368  0.69815146  1  0.061071  0  0.10644  0.083166  0  0.97946  0
H  H44  1  0.15874065  0.24612033  0.58635527  1  0.054215  0  0.110682  0.083645  0  0.974769  0
H  H45  1  0.86108631  0.29413250  0.69697850  1  0.017577  0  0.090136  0.081145  0  0.987344  0
H  H46  1  0.90416763  0.23002726  0.58929960  1  0.053234  0  0.09205  0.092299  0  0.98642  0
H  H47  1  0.00952836  0.04241095  0.63766917  1  0.096002  0  0.080193  0.111319  0  1.049812  0
H  H48  1  0.83288910  0.06936412  0.69331746  1  0.026055  0  0.08825  0.119194  0  0.992622  0
H  H49  1  0.97150017  0.10577243  0.74614997  1  0.013619  0  0.080632  0.104168  0  1.024247  0
C  C50  1  0.44228153  0.72094911  0.53389143  1  1.645023  0  0.21572  0.585192  0  4.235106  0
C  C51  1  0.58361629  0.26624561  0.45550306  1  1.643852  0  0.217478  0.589131  0  4.220441  0
C  C52  1  0.48004592  0.52856859  0.34048869  1  1.63963  0  0.22357  0.675291  0  4.231129  0
C  C53  1  0.51967600  0.45779298  0.65343099  1  1.640825  0  0.221367  0.674501  0  4.236255  0
C  C54  1  0.56751825  0.60345136  0.96114805  1  0.585753  0  0.082347  0.151343  0  3.777032  0
C  C55  1  0.39856571  0.42750602  0.03758009  1  0.637588  0  0.093685  0.179459  0  3.750766  0
C  C56  1  0.42391089  0.62851892  0.02848887  1  -0.089806  0  -0.088632  -0.227446  0  3.652196  0
C  C57  1  0.54181997  0.40184544  0.97081773  1  -0.104328  0  -0.086108  -0.220453  0  3.646532  0
C  C58  1  0.46219987  0.54034995  0.25376465  1  0.090652  0  -0.054387  -0.215953  0  3.986328  0
C  C59  1  0.52961398  0.46139489  0.74272483  1  0.146169  0  -0.057986  -0.222644  0  3.984049  0
C  C60  1  0.61145902  0.50334900  0.02076453  1  0.590093  0  0.08469  0.155687  0  3.759163  0
C  C61  1  0.35366299  0.52686133  0.97893736  1  0.587825  0  0.089781  0.166399  0  3.72498  0
C  C62  1  0.46753368  0.53017509  0.08739031  1  0.116995  0  -0.001442  0.029297  0  3.845042  0
C  C63  1  0.50048224  0.50016819  0.91099652  1  0.074963  0  -0.006678  0.017296  0  3.839021  0
C  C64  1  0.45749242  0.54011538  0.17759409  1  -0.369255  0  -0.022887  0.007243  0  4.078632  0
C  C65  1  0.51969028  0.47968747  0.82053319  1  -0.414113  0  -0.025701  -0.001521  0  4.094497  0
C  C66  1  0.41881692  0.85542646  0.53233068  1  0.218942  0  0.084116  -0.053251  0  3.844106  0
C  C67  1  0.60540657  0.13140760  0.45545733  1  0.216918  0  0.085245  -0.048494  0  3.832235  0
C  C68  1  0.52027824  0.92941811  0.49598813  1  0.087552  0  -0.067975  -0.079369  0  3.98561  0
C  C69  1  0.50220854  0.05726193  0.48907777  1  0.0188  0  -0.068215  -0.081017  0  3.987494  0
C  C70  1  0.07932653  0.50406976  0.48850981  1  0.540679  0  0.076875  0.054889  0  3.876634  0
C  C71  1  0.92973498  0.51505688  0.50196404  1  0.557798  0  0.062522  0.015194  0  3.906383  0
C  C72  1  0.69729196  0.78223786  0.97003845  1  0.427669  0  -0.065813  0.037256  0  3.878525  0
C  C73  1  0.61772704  0.90310788  0.97103081  1  -0.020287  0  -0.170105  -0.141737  0  3.995388  0
C  C74  1  0.67504435  0.00432030  0.02297611  1  -0.07724  0  -0.241293  -0.350429  0  3.969081  0
C  C75  1  0.28141692  0.24101627  0.03347946  1  0.399423  0  -0.06623  0.042636  0  3.897204  0
C  C76  1  0.19609567  0.15632205  0.09508159  1  0.017554  0  -0.165143  -0.132824  0  3.986462  0
C  C77  1  0.15672772  0.04201702  0.04699502  1  -0.068755  0  -0.241621  -0.35217  0  3.976811  0
C  C78  1  0.20374807  0.60617882  0.89139467  1  0.384701  0  -0.069315  0.027723  0  3.875641  0
C  C79  1  0.21357454  0.74268346  0.91115989  1  -0.022152  0  -0.171809  -0.141233  0  3.990528  0
C  C80  1  0.16587770  0.81455343  0.84224740  1  -0.050165  0  -0.244367  -0.352334  0  3.961909  0
C  C81  1  0.85716794  0.46532449  0.98373948  1  0.410321  0  -0.066389  0.032846  0  3.866127  0
C  C82  1  0.89505128  0.32910699  0.97276422  1  0.009317  0  -0.169873  -0.135074  0  3.97715  0
C  C83  1  0.00935197  0.29970167  0.89114078  1  -0.078301  0  -0.246782  -0.367024  0  3.975443  0
C  C84  1  0.86587773  0.69579988  0.33581162  1  0.340758  0  -0.062102  -0.002494  0  3.833947  0
C  C85  1  0.91548496  0.67145659  0.23868397  1  -0.021605  0  -0.164495  -0.124804  0  3.969328  0
C  C86  1  0.84612978  0.76300460  0.19046055  1  -0.097962  0  -0.242452  -0.354653  0  3.964927  0
C  C87  1  0.07980043  0.29298301  0.63883365  1  0.380853  0  -0.059888  0.004744  0  3.83099  0
C  C88  1  0.93786950  0.23367936  0.65136476  1  -0.013593  0  -0.169091  -0.132237  0  3.98136  0
C  C89  1  0.93867433  0.10573993  0.68397866  1  -0.098061  0  -0.24898  -0.350547  0  3.965524  0
N  N90  1  0.14316809  0.44833488  0.53988350  1  -0.62026  0  -0.212509  -0.079601  0  3.406292  0
N  N91  1  0.86229220  0.56471241  0.44976941  1  -0.583614  0  -0.201948  -0.057871  0  3.417364  0
N  N92  1  0.74946822  0.08251445  0.42157481  1  0.415135  0  0.061243  0.536074  0  4.242827  0
N  N93  1  0.27660099  0.90398203  0.57052293  1  0.398772  0  0.062987  0.537934  0  4.234954  0
O  O94  1  0.56867900  0.68496744  0.50409518  1  -1.167827  0  -0.311305  -0.545394  0  2.387672  0
O  O95  1  0.45644308  0.30385618  0.47220408  1  -1.168982  0  -0.311052  -0.544681  0  2.337386  0
O  O96  1  0.33738434  0.65759887  0.56168198  1  -1.153466  0  -0.307255  -0.522977  0  2.270911  0
O  O97  1  0.69305689  0.32873409  0.44195719  1  -1.144087  0  -0.308745  -0.518605  0  2.280458  0
O  O98  1  0.60636541  0.52432760  0.35014588  1  -1.136709  0  -0.303856  -0.524042  0  2.297436  0
O  O99  1  0.39854110  0.43506275  0.63895209  1  -1.137386  0  -0.313612  -0.533232  0  2.269534  0
O  O100  1  0.37024063  0.52224524  0.40028515  1  -1.166085  0  -0.307509  -0.549402  0  2.331794  0
O  O101  1  0.62919482  0.48017535  0.59730557  1  -1.165107  0  -0.307448  -0.545979  0  2.307476  0
O  O102  1  0.65052806  0.68777195  0.91580668  1  -1.073623  0  -0.209439  -0.242456  0  2.499253  0
O  O103  1  0.31711123  0.34421632  0.08433876  1  -1.076448  0  -0.200189  -0.228026  0  2.510915  0
O  O104  1  0.22274473  0.53012520  0.96034095  1  -1.070152  0  -0.205111  -0.242894  0  2.523784  0
O  O105  1  0.73273768  0.49517917  0.05087649  1  -1.067625  0  -0.203722  -0.230063  0  2.494712  0
O  O106  1  0.82442450  0.06855047  0.47419628  1  -0.437497  0  -0.112548  -0.309598  0  1.880309  0
O  O107  1  0.78411920  0.05857611  0.34233329  1  -0.450126  0  -0.12393  -0.324999  0  1.860118  0
O  O108  1  0.19309826  0.91009314  0.52221053  1  -0.425432  0  -0.114582  -0.307834  0  1.851978  0
O  O109  1  0.25155435  0.93479530  0.64896266  1  -0.446087  0  -0.108097  -0.311128  0  1.891768  0
O  O110  1  0.94346777  0.61306759  0.37923814  1  -0.627196  0  -0.065045  -0.064552  0  2.413318  0
O  O111  1  0.05552461  0.41778265  0.61593197  1  -0.641907  0  -0.087132  -0.097423  0  2.405083  0
