# generated using pymatgen
data_AlH11C14N4O9
_symmetry_space_group_name_H-M   'P 1'
_cell_length_a   6.61000636
_cell_length_b   20.61240519
_cell_length_c   23.37487566
_cell_angle_alpha   77.64484785
_cell_angle_beta   92.25874595
_cell_angle_gamma   91.86055322
_symmetry_Int_Tables_number   1
_chemical_formula_structural   AlH11C14N4O9
_chemical_formula_sum   'Al4 H44 C56 N16 O36'
_cell_volume   3107.66403742
_cell_formula_units_Z   4
loop_
 _symmetry_equiv_pos_site_id
 _symmetry_equiv_pos_as_xyz
  1  'x, y, z'
loop_
 _atom_site_type_symbol
 _atom_site_label
 _atom_site_symmetry_multiplicity
 _atom_site_fract_x
 _atom_site_fract_y
 _atom_site_fract_z
 _atom_site_occupancy
 _atom_site_pbe_bader_charge
 _atom_site_pbe_bader_spin_density
 _atom_site_pbe_cm5_charge
 _atom_site_pbe_ddec_charge
 _atom_site_pbe_ddec_spin_density
 _atom_site_pbe_ddec_sum_bond_order
 _atom_site_pbe_magmom
Al  Al0  1  0.23502159  0.25228572  0.25426259  1  2.498932  0  0.401444  1.640281  0  2.5754  0
Al  Al1  1  0.74708315  0.74817485  0.74997891  1  2.500159  0  0.400036  1.639305  0  2.581925  0
Al  Al2  1  0.73433663  0.25086683  0.25037072  1  2.501464  0  0.395987  1.641576  0  2.584128  0
Al  Al3  1  0.24829024  0.74980981  0.75503627  1  2.501869  0  0.399004  1.63725  0  2.581965  0
H  H4  1  0.21932890  0.48730245  0.00323904  1  0.108385  0  0.124494  0.125391  0  0.956599  0
H  H5  1  0.76011309  0.51195719  0.00037815  1  0.123161  0  0.123868  0.123752  0  0.95851  0
H  H6  1  0.72134567  0.01462209  0.50520203  1  0.098963  0  0.123058  0.122693  0  0.957961  0
H  H7  1  0.25740456  0.99135946  0.50332134  1  0.096851  0  0.123514  0.124057  0  0.957557  0
H  H8  1  0.80657403  0.46712776  0.53389180  1  0.127406  0  0.114791  0.135912  0  0.982713  0
H  H9  1  0.16789226  0.54001714  0.46399705  1  0.112872  0  0.115427  0.13631  0  0.981083  0
H  H10  1  0.30220676  0.03907016  0.96540343  1  0.130538  0  0.116147  0.139671  0  0.973116  0
H  H11  1  0.67023199  0.96871207  0.03572485  1  0.125898  0  0.115384  0.134673  0  0.981734  0
H  H12  1  0.23886243  0.50492118  0.69768065  1  0.530935  0  0.307021  0.255634  0  1.033449  0
H  H13  1  0.08806455  0.50488558  0.78399164  1  0.055909  0  0.113402  0.120395  0  0.965289  0
H  H14  1  0.94032481  0.57454100  0.75143506  1  0.062639  0  0.108781  0.118057  0  0.992859  0
H  H15  1  0.19441203  0.58685717  0.77611585  1  0.054565  0  0.103589  0.111252  0  1.019643  0
H  H16  1  0.75050339  0.50069454  0.29950297  1  0.536668  0  0.307373  0.25504  0  1.03373  0
H  H17  1  0.91024894  0.49996377  0.21479726  1  0.023272  0  0.114285  0.122312  0  0.963615  0
H  H18  1  0.80298623  0.41815731  0.22194413  1  0.07466  0  0.101659  0.108254  0  1.016003  0
H  H19  1  0.05437696  0.42993920  0.24881354  1  0.081813  0  0.10894  0.118912  0  0.991057  0
H  H20  1  0.71491408  0.98945101  0.79639954  1  0.437283  0  0.297264  0.248837  0  0.991619  0
H  H21  1  0.04185014  0.94550516  0.82764198  1  0.033268  0  0.091519  0.095679  0  0.988044  0
H  H22  1  0.97486327  0.93480887  0.75557611  1  0.04704  0  0.10135  0.107715  0  0.976709  0
H  H23  1  0.95027003  0.86652706  0.81648096  1  0.128758  0  0.107638  0.128962  0  1.026268  0
H  H24  1  0.19915748  0.01398504  0.20074650  1  0.43954  0  0.294692  0.250569  0  0.991782  0
H  H25  1  0.90573909  0.07049340  0.15362827  1  0.046971  0  0.086732  0.089041  0  1.007842  0
H  H26  1  0.00166635  0.14346916  0.17584274  1  0.116297  0  0.100562  0.114714  0  1.036065  0
H  H27  1  0.92780475  0.07214770  0.22942239  1  0.019466  0  0.100429  0.108549  0  0.974987  0
H  H28  1  0.21216683  0.26937808  0.48066668  1  0.520364  0  0.308767  0.256999  0  1.011274  0
H  H29  1  0.04028245  0.17698970  0.46115890  1  0.036988  0  0.104633  0.108382  0  0.975229  0
H  H30  1  0.14641220  0.20194794  0.39065865  1  0.08712  0  0.099325  0.11057  0  1.04839  0
H  H31  1  0.89880901  0.22630524  0.40242365  1  0.068928  0  0.106217  0.118221  0  1.00455  0
H  H32  1  0.76036716  0.73619569  0.52127682  1  0.522324  0  0.30839  0.256696  0  1.011897  0
H  H33  1  0.92960505  0.82876072  0.54105319  1  0.038955  0  0.105289  0.109019  0  0.975353  0
H  H34  1  0.07966482  0.77915165  0.59754450  1  0.071235  0  0.106044  0.117785  0  0.997117  0
H  H35  1  0.83287389  0.80175644  0.61255501  1  0.088957  0  0.098744  0.109906  0  1.049705  0
H  H36  1  0.70541660  0.23744866  0.11758848  1  0.481266  0  0.310431  0.254749  0  0.996362  0
H  H37  1  0.80955412  0.30827639  0.03622903  1  0.080753  0  0.099896  0.105841  0  1.015081  0
H  H38  1  0.69785973  0.25822916  0.98972123  1  0.070248  0  0.110873  0.123284  0  0.976508  0
H  H39  1  0.93980898  0.23804858  0.02379036  1  0.080111  0  0.103656  0.118586  0  0.99258  0
H  H40  1  0.29008407  0.75758290  0.98140065  1  0.502593  0  0.30726  0.255753  0  1.012326  0
H  H41  1  0.45098711  0.66547649  0.96841545  1  0.059211  0  0.104163  0.108749  0  0.97918  0
H  H42  1  0.63546689  0.71678917  0.92539904  1  0.040347  0  0.102747  0.112582  0  0.991394  0
H  H43  1  0.40376594  0.69391414  0.89196160  1  0.115266  0  0.10214  0.117243  0  1.041952  0
H  H44  1  0.50333159  0.32823550  0.27074976  1  0.613968  0  0.355867  0.43797  0  0.845868  0
H  H45  1  0.47643062  0.67645387  0.72760946  1  0.620025  0  0.355462  0.436973  0  0.846867  0
H  H46  1  0.98222968  0.16336411  0.27022199  1  0.614071  0  0.359035  0.439232  0  0.844577  0
H  H47  1  0.00177651  0.83510594  0.72750216  1  0.638918  0  0.355614  0.430525  0  0.859182  0
C  C48  1  0.45553468  0.18146184  0.18129883  1  1.575012  0  0.277974  0.680813  0  4.062572  0
C  C49  1  0.52571403  0.81298061  0.82833929  1  1.594802  0  0.277342  0.682481  0  4.0752  0
C  C50  1  0.99903341  0.32448296  0.32150553  1  1.537278  0  0.261797  0.665718  0  4.095523  0
C  C51  1  0.98601670  0.68004918  0.67894888  1  1.530846  0  0.262995  0.668351  0  4.099109  0
C  C52  1  0.49757239  0.16314781  0.33992215  1  1.678174  0  0.275894  0.707772  0  4.166593  0
C  C53  1  0.48762155  0.84218584  0.66782486  1  1.701445  0  0.276579  0.70963  0  4.165808  0
C  C54  1  0.97899019  0.33580809  0.16289212  1  1.688979  0  0.273167  0.694343  0  4.18862  0
C  C55  1  0.99844238  0.66143958  0.83921077  1  1.701335  0  0.279204  0.698466  0  4.179643  0
C  C56  1  0.98417185  0.61224973  0.89294874  1  -0.254817  0  -0.019994  -0.175634  0  3.911891  0
C  C57  1  0.99447400  0.38593270  0.10980742  1  0.193908  0  -0.022319  -0.18383  0  3.926476  0
C  C58  1  0.47603564  0.89346903  0.61533028  1  0.199233  0  -0.025913  -0.184427  0  3.917493  0
C  C59  1  0.50625790  0.11276542  0.39308905  1  0.264695  0  -0.023039  -0.178564  0  3.91344  0
C  C60  1  0.91669845  0.51937745  0.98641970  1  0.032918  0  -0.052727  -0.042419  0  4.049619  0
C  C61  1  0.06272550  0.47987497  0.01718093  1  0.165704  0  -0.053518  -0.045713  0  4.048447  0
C  C62  1  0.41448236  0.98414653  0.51937231  1  0.157893  0  -0.051374  -0.041827  0  4.039926  0
C  C63  1  0.56433490  0.02195759  0.48911701  1  0.057789  0  -0.049732  -0.038264  0  4.040353  0
C  C64  1  0.02310967  0.42982103  0.06656063  1  -0.49366  0  -0.017186  0.013718  0  4.129278  0
C  C65  1  0.95615943  0.56922320  0.93684218  1  -0.034018  0  -0.018648  0.0083  0  4.129284  0
C  C66  1  0.52891629  0.07032416  0.43790739  1  -0.523187  0  -0.01766  0.010649  0  4.125537  0
C  C67  1  0.45081140  0.93583795  0.57057839  1  -0.486247  0  -0.017023  0.013033  0  4.127078  0
C  C68  1  0.99967463  0.64100849  0.63246143  1  -0.003326  0  -0.046612  -0.283757  0  3.926918  0
C  C69  1  0.98215199  0.36408551  0.36728446  1  0.014602  0  -0.044904  -0.283748  0  3.9254  0
C  C70  1  0.54645248  0.85205941  0.87583980  1  -0.014291  0  -0.020769  -0.230031  0  3.896481  0
C  C71  1  0.44733166  0.14194446  0.13461584  1  0.052192  0  -0.022199  -0.234292  0  3.910242  0
C  C72  1  0.10692915  0.58030901  0.64491521  1  0.557371  0  0.134781  0.220663  0  4.042566  0
C  C73  1  0.87686502  0.42517883  0.35362202  1  0.564913  0  0.134495  0.222864  0  4.038604  0
C  C74  1  0.63687188  0.91583494  0.86159924  1  0.475228  0  0.114421  0.201709  0  4.028311  0
C  C75  1  0.32149854  0.08496212  0.14109045  1  0.439142  0  0.109623  0.202585  0  4.008908  0
C  C76  1  0.15143667  0.55121585  0.59587994  1  0.299927  0  0.067519  -0.104164  0  3.838325  0
C  C77  1  0.82907452  0.45494380  0.40195828  1  0.270919  0  0.066667  -0.106062  0  3.839817  0
C  C78  1  0.63521097  0.95631049  0.90377838  1  0.189643  0  0.065769  -0.09472  0  3.883193  0
C  C79  1  0.31262767  0.04900667  0.09547998  1  0.264917  0  0.070712  -0.085028  0  3.860883  0
C  C80  1  0.04968480  0.57124893  0.54138669  1  0.115584  0  0.030976  0.113784  0  3.980982  0
C  C81  1  0.92693896  0.43529003  0.45706145  1  0.05974  0  0.032537  0.115805  0  3.980369  0
C  C82  1  0.54506891  0.93598343  0.95802762  1  0.159352  0  0.02387  0.093593  0  3.984913  0
C  C83  1  0.42823305  0.06821716  0.04513476  1  0.06029  0  0.024725  0.09604  0  3.982785  0
C  C84  1  0.92695886  0.62689560  0.53191273  1  0.222863  0  0.068001  -0.099417  0  3.841438  0
C  C85  1  0.04855607  0.37928000  0.46784047  1  0.267366  0  0.067303  -0.102174  0  3.840072  0
C  C86  1  0.44840037  0.87298624  0.96999537  1  0.29058  0  0.073134  -0.08656  0  3.832527  0
C  C87  1  0.56117237  0.12275363  0.04246292  1  0.257276  0  0.06652  -0.090094  0  3.871152  0
C  C88  1  0.91685176  0.66681797  0.57557626  1  0.577395  0  0.128675  0.214498  0  4.052555  0
C  C89  1  0.06074942  0.33861319  0.42481232  1  0.576663  0  0.130872  0.217624  0  4.046775  0
C  C90  1  0.45352826  0.82837916  0.93043948  1  0.49227  0  0.129585  0.20385  0  4.048275  0
C  C91  1  0.57362696  0.16251679  0.08531985  1  0.511846  0  0.12782  0.197861  0  4.067714  0
C  C92  1  0.05382415  0.52902039  0.49730337  1  0.055688  0  -0.09854  -0.14175  0  4.022786  0
C  C93  1  0.92053730  0.47818401  0.50055939  1  -0.031379  0  -0.098755  -0.141744  0  4.02428  0
C  C94  1  0.55289387  0.97955602  0.00111510  1  -0.031124  0  -0.090544  -0.123774  0  4.00708  0
C  C95  1  0.42272652  0.02838591  0.99907082  1  -0.003735  0  -0.09617  -0.138743  0  3.99292  0
C  C96  1  0.09355244  0.55458275  0.75534850  1  0.307607  0  -0.131298  -0.211525  0  3.945672  0
C  C97  1  0.90168336  0.45034517  0.24348844  1  0.300948  0  -0.129974  -0.210264  0  3.948149  0
C  C98  1  0.93443583  0.92013272  0.80180090  1  0.195783  0  -0.14432  -0.213819  0  3.924142  0
C  C99  1  0.99958016  0.08924193  0.18703585  1  0.197285  0  -0.149662  -0.211912  0  3.942156  0
C  C100  1  0.05145538  0.21769819  0.42235116  1  0.282311  0  -0.135839  -0.211192  0  3.932167  0
C  C101  1  0.92444861  0.78732960  0.57942652  1  0.266724  0  -0.136701  -0.212677  0  3.935252  0
C  C102  1  0.79045472  0.25720492  0.02992962  1  0.2545  0  -0.135351  -0.218786  0  3.950507  0
C  C103  1  0.47206481  0.70767980  0.93134847  1  0.245313  0  -0.138409  -0.218965  0  3.937912  0
N  N104  1  0.16323753  0.54755543  0.69918311  1  -1.263541  0  -0.419318  -0.238918  0  3.602038  0
N  N105  1  0.82567759  0.45772482  0.29884064  1  -1.264536  0  -0.419476  -0.239177  0  3.601672  0
N  N106  1  0.72294111  0.93876972  0.80669897  1  -1.096165  0  -0.466473  -0.340323  0  3.435192  0
N  N107  1  0.20843495  0.06480650  0.19239089  1  -1.073353  0  -0.477912  -0.363055  0  3.413673  0
N  N108  1  0.13128645  0.27618202  0.44166476  1  -1.246546  0  -0.425951  -0.249556  0  3.584466  0
N  N109  1  0.84382755  0.72907635  0.55984462  1  -1.242844  0  -0.426634  -0.251351  0  3.582934  0
N  N110  1  0.69029102  0.21878211  0.08075292  1  -1.233425  0  -0.42544  -0.248132  0  3.605781  0
N  N111  1  0.37943471  0.76504980  0.94579359  1  -1.214997  0  -0.43021  -0.26069  0  3.582549  0
N  N112  1  0.83312787  0.64963811  0.47446715  1  0.325506  0  0.043237  0.525657  0  4.196993  0
N  N113  1  0.13872432  0.35703696  0.52581900  1  0.330909  0  0.043553  0.524663  0  4.203664  0
N  N114  1  0.35537233  0.85061159  0.02626638  1  0.332076  0  0.0475  0.52448  0  4.19455  0
N  N115  1  0.70669805  0.13486851  0.99513045  1  0.358021  0  0.04911  0.524448  0  4.230507  0
N  N116  1  0.68059010  0.50640885  0.39484549  1  0.321475  0  0.045624  0.521501  0  4.192257  0
N  N117  1  0.30026723  0.50007029  0.60172086  1  0.297322  0  0.043086  0.517829  0  4.196267  0
N  N118  1  0.17741067  0.99105160  0.09995762  1  0.340135  0  0.049311  0.525776  0  4.209058  0
N  N119  1  0.75383332  0.01860132  0.89239498  1  0.380641  0  0.050899  0.526084  0  4.215423  0
O  O120  1  0.66853099  0.18760108  0.32167331  1  -1.236715  0  -0.225371  -0.580213  0  2.311113  0
O  O121  1  0.31737429  0.81975848  0.68831010  1  -1.242735  0  -0.227209  -0.585031  0  2.309027  0
O  O122  1  0.14315282  0.32391316  0.19278639  1  -1.227438  0  -0.218903  -0.564091  0  2.319043  0
O  O123  1  0.83135657  0.67604081  0.81148840  1  -1.229845  0  -0.220739  -0.565969  0  2.317649  0
O  O124  1  0.29376798  0.20498643  0.19471923  1  -1.249035  0  -0.220784  -0.565846  0  2.360029  0
O  O125  1  0.68618031  0.79311434  0.81037866  1  -1.252237  0  -0.22581  -0.585854  0  2.392413  0
O  O126  1  0.83432454  0.31438060  0.29357379  1  -1.271946  0  -0.242491  -0.628321  0  2.402808  0
O  O127  1  0.15365321  0.69189606  0.70446681  1  -1.269144  0  -0.242936  -0.62587  0  2.399735  0
O  O128  1  0.32401313  0.17870240  0.31614389  1  -1.246936  0  -0.225888  -0.586352  0  2.313104  0
O  O129  1  0.66253471  0.82363357  0.68872551  1  -1.238837  0  -0.226885  -0.585496  0  2.311259  0
O  O130  1  0.80524680  0.30891061  0.17575244  1  -1.241934  0  -0.228465  -0.578774  0  2.285302  0
O  O131  1  0.17313270  0.68460985  0.82353169  1  -1.237728  0  -0.218095  -0.568787  0  2.342761  0
O  O132  1  0.17102930  0.30283439  0.31201688  1  -1.252644  0  -0.239308  -0.600079  0  2.319503  0
O  O133  1  0.81355084  0.69931298  0.69097525  1  -1.251432  0  -0.242241  -0.605631  0  2.31749  0
O  O134  1  0.63061940  0.19100844  0.20407737  1  -1.262683  0  -0.234241  -0.603851  0  2.347554  0
O  O135  1  0.34762765  0.80308410  0.80850509  1  -1.24556  0  -0.227611  -0.580037  0  2.303126  0
O  O136  1  0.48918305  0.29265691  0.24939876  1  -1.415642  0  -0.447108  -0.991188  0  2.187458  0
O  O137  1  0.49255024  0.70885096  0.75227050  1  -1.422484  0  -0.447497  -0.989515  0  2.192856  0
O  O138  1  0.98265666  0.21131494  0.25791744  1  -1.414185  0  -0.449211  -1.001658  0  2.243496  0
O  O139  1  0.99980436  0.78900478  0.74809540  1  -1.440513  0  -0.448062  -0.994988  0  2.244243  0
O  O140  1  0.68342554  0.68709422  0.47022089  1  -0.505278  0  -0.170072  -0.384448  0  1.897949  0
O  O141  1  0.90304101  0.63301531  0.43149033  1  -0.438046  0  -0.122449  -0.313049  0  1.941068  0
O  O142  1  0.28718404  0.31888956  0.53135675  1  -0.509918  0  -0.171168  -0.384719  0  1.900822  0
O  O143  1  0.06706911  0.37475958  0.56805646  1  -0.44289  0  -0.123518  -0.313725  0  1.946111  0
O  O144  1  0.21141117  0.80855727  0.02960406  1  -0.49775  0  -0.162726  -0.374837  0  1.898856  0
O  O145  1  0.42161149  0.87267527  0.06876279  1  -0.430159  0  -0.111539  -0.30026  0  1.942368  0
O  O146  1  0.88877454  0.13150341  0.01049636  1  -0.438553  0  -0.122735  -0.326777  0  1.937561  0
O  O147  1  0.63963439  0.14662586  0.94386939  1  -0.436738  0  -0.125791  -0.325145  0  1.908338  0
O  O148  1  0.63818689  0.54050696  0.34425328  1  -0.507724  0  -0.163474  -0.371929  0  1.918823  0
O  O149  1  0.59318741  0.51403943  0.43876075  1  -0.437903  0  -0.116665  -0.307949  0  1.969984  0
O  O150  1  0.38407466  0.49280837  0.55710075  1  -0.422153  0  -0.115233  -0.30626  0  1.971798  0
O  O151  1  0.34682834  0.46573137  0.65191311  1  -0.503065  0  -0.165114  -0.373365  0  1.921303  0
O  O152  1  0.16063546  0.95294971  0.14903630  1  -0.470106  0  -0.144951  -0.349461  0  1.89778  0
O  O153  1  0.08546435  0.98239416  0.05480377  1  -0.445618  0  -0.1193  -0.318957  0  1.962377  0
O  O154  1  0.87545256  0.02890550  0.93124277  1  -0.431106  0  -0.112127  -0.307385  0  1.968458  0
O  O155  1  0.73017015  0.05660331  0.84336785  1  -0.481694  0  -0.141908  -0.345554  0  1.888515  0
