# generated using pymatgen
data_AgH9C10BrN
_symmetry_space_group_name_H-M   'P 1'
_cell_length_a   4.13950722
_cell_length_b   14.88364686
_cell_length_c   15.48165928
_cell_angle_alpha   89.99973084
_cell_angle_beta   90.00081329
_cell_angle_gamma   93.46467355
_symmetry_Int_Tables_number   1
_chemical_formula_structural   AgH9C10BrN
_chemical_formula_sum   'Ag4 H36 C40 Br4 N4'
_cell_volume   952.09656538
_cell_formula_units_Z   4
loop_
 _symmetry_equiv_pos_site_id
 _symmetry_equiv_pos_as_xyz
  1  'x, y, z'
loop_
 _atom_site_type_symbol
 _atom_site_label
 _atom_site_symmetry_multiplicity
 _atom_site_fract_x
 _atom_site_fract_y
 _atom_site_fract_z
 _atom_site_occupancy
 _atom_site_hle17_bader_spin_density
 _atom_site_hle17_ddec_charge
 _atom_site_hle17_ddec_spin_density
 _atom_site_hle17_ddec_sum_bond_order
 _atom_site_hle17_magmom
 _atom_site_hse06_10hf_bader_spin_density
 _atom_site_hse06_10hf_ddec_charge
 _atom_site_hse06_10hf_ddec_spin_density
 _atom_site_hse06_10hf_ddec_sum_bond_order
 _atom_site_hse06_10hf_magmom
 _atom_site_hse06_bader_spin_density
 _atom_site_hse06_ddec_charge
 _atom_site_hse06_ddec_spin_density
 _atom_site_hse06_ddec_sum_bond_order
 _atom_site_hse06_magmom
 _atom_site_pbe_bader_spin_density
 _atom_site_pbe_cm5_charge
 _atom_site_pbe_ddec_charge
 _atom_site_pbe_ddec_spin_density
 _atom_site_pbe_ddec_sum_bond_order
 _atom_site_pbe_magmom
Ag  Ag0  1  0.32915347  0.92480633  0.04630311  1  0  0.402649  0  1.716471  0  0  0.290064  0  2.20251  0  0  0.318344  0  2.153118  0  0  0.290598  0.270708  0  2.236391  0
Ag  Ag1  1  0.17084883  0.57519165  0.54630617  1  0  0.4026  0  1.716515  0  0  0.29003  0  2.20257  0  0  0.318308  0  2.153169  0  0  0.290587  0.270667  0  2.236456  0
Ag  Ag2  1  0.67085514  0.07519723  0.95369863  1  0  0.402624  0  1.716547  0  0  0.290033  0  2.20259  0  0  0.31831  0  2.153202  0  0  0.290569  0.270681  0  2.236463  0
Ag  Ag3  1  0.82915105  0.42480656  0.45368976  1  0  0.40268  0  1.716486  0  0  0.290092  0  2.202559  0  0  0.318371  0  2.153156  0  0  0.290599  0.270728  0  2.236446  0
H  H4  1  0.82769275  0.77555823  0.08847363  1  0  0.119969  0  0.976511  0  0  0.135352  0  1.050421  0  0  0.137544  0  1.048983  0  0  0.084739  0.133712  0  1.05148  0
H  H5  1  0.67229032  0.72444486  0.58847540  1  0  0.119952  0  0.976417  0  0  0.135351  0  1.050317  0  0  0.137533  0  1.048886  0  0  0.084751  0.13372  0  1.051368  0
H  H6  1  0.17230771  0.22445076  0.91152811  1  0  0.119937  0  0.976515  0  0  0.135346  0  1.050409  0  0  0.137529  0  1.048981  0  0  0.084766  0.133711  0  1.051462  0
H  H7  1  0.32770586  0.27555741  0.41152117  1  0  0.119941  0  0.976426  0  0  0.135337  0  1.050331  0  0  0.137518  0  1.048904  0  0  0.084747  0.133709  0  1.051383  0
H  H8  1  0.19306792  0.72419063  0.06815107  1  0  0.113457  0  0.947356  0  0  0.135328  0  1.011284  0  0  0.137201  0  1.009443  0  0  0.090986  0.133931  0  1.012639  0
H  H9  1  0.30691456  0.77581005  0.56815378  1  0  0.113476  0  0.947406  0  0  0.135357  0  1.011308  0  0  0.137232  0  1.009464  0  0  0.091005  0.13396  0  1.012663  0
H  H10  1  0.80693496  0.27581834  0.93185067  1  0  0.113428  0  0.947288  0  0  0.135303  0  1.011215  0  0  0.137177  0  1.009374  0  0  0.09097  0.133908  0  1.012568  0
H  H11  1  0.69307140  0.22419024  0.43184666  1  0  0.11345  0  0.947413  0  0  0.135321  0  1.011332  0  0  0.137195  0  1.009488  0  0  0.090971  0.133931  0  1.012681  0
H  H12  1  0.89728206  0.66911167  0.13709087  1  0  0.113429  0  0.960075  0  0  0.135414  0  1.018841  0  0  0.136947  0  1.018983  0  0  0.090471  0.13434  0  1.018715  0
H  H13  1  0.60269891  0.83089191  0.63709322  1  0  0.113374  0  0.96009  0  0  0.135392  0  1.018834  0  0  0.136924  0  1.018974  0  0  0.09049  0.134322  0  1.018703  0
H  H14  1  0.10271841  0.33089732  0.86290958  1  0  0.113394  0  0.960099  0  0  0.135373  0  1.018887  0  0  0.136909  0  1.019024  0  0  0.090494  0.134301  0  1.018759  0
H  H15  1  0.39729485  0.16911037  0.36290852  1  0  0.113477  0  0.960197  0  0  0.13546  0  1.018952  0  0  0.136992  0  1.019091  0  0  0.090513  0.134393  0  1.018816  0
H  H16  1  0.97580851  0.68510990  0.28876271  1  0  0.109943  0  0.974531  0  0  0.11823  0  1.039974  0  0  0.121409  0  1.039627  0  0  0.093603  0.115909  0  1.040474  0
H  H17  1  0.52418166  0.81488898  0.78876548  1  0  0.109881  0  0.974592  0  0  0.118208  0  1.040012  0  0  0.121386  0  1.039665  0  0  0.093596  0.115889  0  1.040509  0
H  H18  1  0.02418563  0.31489373  0.71123644  1  0  0.109874  0  0.974583  0  0  0.11817  0  1.040027  0  0  0.121346  0  1.039685  0  0  0.093591  0.115849  0  1.04053  0
H  H19  1  0.47584009  0.18510104  0.21123755  1  0  0.109914  0  0.974563  0  0  0.118207  0  1.040014  0  0  0.121384  0  1.039672  0  0  0.093631  0.11589  0  1.04051  0
H  H20  1  0.22542291  0.76616553  0.41298423  1  0  0.092175  0  0.955842  0  0  0.100984  0  1.023984  0  0  0.103999  0  1.020742  0  0  0.096205  0.098661  0  1.026524  0
H  H21  1  0.27456366  0.73383578  0.91298765  1  0  0.092123  0  0.955864  0  0  0.100936  0  1.024005  0  0  0.10395  0  1.020762  0  0  0.096173  0.098615  0  1.026544  0
H  H22  1  0.77456844  0.23383676  0.58701750  1  0  0.092177  0  0.955864  0  0  0.101004  0  1.023975  0  0  0.104018  0  1.020732  0  0  0.096218  0.09868  0  1.026517  0
H  H23  1  0.72542729  0.26615641  0.08701215  1  0  0.092217  0  0.955903  0  0  0.101084  0  1.023956  0  0  0.104097  0  1.020714  0  0  0.096306  0.098762  0  1.026495  0
H  H24  1  0.57342124  0.90013009  0.46788118  1  0  0.08707  0  0.960878  0  0  0.101122  0  1.020776  0  0  0.103182  0  1.020608  0  0  0.098965  0.099622  0  1.020965  0
H  H25  1  0.92658534  0.59986732  0.96788251  1  0  0.087056  0  0.960871  0  0  0.101133  0  1.020755  0  0  0.103193  0  1.020588  0  0  0.09893  0.09963  0  1.020948  0
H  H26  1  0.42656936  0.09986951  0.53212250  1  0  0.087074  0  0.960948  0  0  0.101154  0  1.020809  0  0  0.103213  0  1.020641  0  0  0.098971  0.099653  0  1.021001  0
H  H27  1  0.07340432  0.40012891  0.03211470  1  0  0.087065  0  0.960957  0  0  0.101093  0  1.02089  0  0  0.103151  0  1.020725  0  0  0.098931  0.099592  0  1.021082  0
H  H28  1  0.90699027  0.04084343  0.43618679  1  0  0.081401  0  0.960972  0  0  0.094598  0  1.020852  0  0  0.096944  0  1.020574  0  0  0.096982  0.092907  0  1.021174  0
H  H29  1  0.59303150  0.45915024  0.93618726  1  0  0.081425  0  0.960931  0  0  0.09464  0  1.020788  0  0  0.096987  0  1.020507  0  0  0.097007  0.092948  0  1.021108  0
H  H30  1  0.09301387  0.95915273  0.56382141  1  0  0.081273  0  0.961055  0  0  0.094491  0  1.020896  0  0  0.096835  0  1.020622  0  0  0.096956  0.092801  0  1.021216  0
H  H31  1  0.40695315  0.54084535  0.06380673  1  0  0.081294  0  0.961018  0  0  0.094499  0  1.020894  0  0  0.096847  0  1.020611  0  0  0.096954  0.092805  0  1.021217  0
H  H32  1  0.97663259  0.09337647  0.28329558  1  0  0.085074  0  0.957197  0  0  0.098286  0  1.0156  0  0  0.10042  0  1.015434  0  0  0.097545  0.096633  0  1.015955  0
H  H33  1  0.52340476  0.40661572  0.78329536  1  0  0.084896  0  0.957338  0  0  0.098141  0  1.015753  0  0  0.100272  0  1.015597  0  0  0.097509  0.096569  0  1.016003  0
H  H34  1  0.02338772  0.90662569  0.71671521  1  0  0.084965  0  0.95741  0  0  0.098193  0  1.01581  0  0  0.100327  0  1.015645  0  0  0.097513  0.096592  0  1.016101  0
H  H35  1  0.47658825  0.59338387  0.21669669  1  0  0.084951  0  0.957213  0  0  0.098182  0  1.01563  0  0  0.100314  0  1.015469  0  0  0.097503  0.096609  0  1.015875  0
H  H36  1  0.70858198  0.00872659  0.16405157  1  0  0.09387  0  1.003244  0  0  0.097392  0  1.084743  0  0  0.101554  0  1.080249  0  0  0.082135  0.094207  0  1.088274  0
H  H37  1  0.79143357  0.49127090  0.66405459  1  0  0.093877  0  1.00318  0  0  0.097393  0  1.084699  0  0  0.101525  0  1.080243  0  0  0.082115  0.094221  0  1.088213  0
H  H38  1  0.29142758  0.99128033  0.83595534  1  0  0.09388  0  1.003273  0  0  0.09743  0  1.084762  0  0  0.101587  0  1.080269  0  0  0.082142  0.094244  0  1.08829  0
H  H39  1  0.20857355  0.50872727  0.33594198  1  0  0.093803  0  1.003172  0  0  0.097362  0  1.084675  0  0  0.101494  0  1.080214  0  0  0.082119  0.094191  0  1.088185  0
C  C40  1  0.16385883  0.78271879  0.19416258  1  0  0.324085  0  3.711577  0  0  0.331804  0  3.95014  0  0  0.343228  0  3.968945  0  0  0.124715  0.324215  0  3.937218  0
C  C41  1  0.33613467  0.71727999  0.69416694  1  0  0.32401  0  3.711773  0  0  0.331834  0  3.950226  0  0  0.343252  0  3.969042  0  0  0.124691  0.324247  0  3.937303  0
C  C42  1  0.83614552  0.21728681  0.80583722  1  0  0.323877  0  3.711753  0  0  0.331601  0  3.950333  0  0  0.343036  0  3.96911  0  0  0.124555  0.324012  0  3.93741  0
C  C43  1  0.66386464  0.28271620  0.30583415  1  0  0.323914  0  3.711574  0  0  0.331719  0  3.950072  0  0  0.343153  0  3.968855  0  0  0.124575  0.324131  0  3.937154  0
C  C44  1  0.01053982  0.73463321  0.11822608  1  0  -0.37789  0  3.708502  0  0  -0.460606  0  3.942405  0  0  -0.463733  0  3.948375  0  0  -0.246428  -0.458135  0  3.938187  0
C  C45  1  0.48942857  0.76536801  0.61822630  1  0  -0.377847  0  3.708504  0  0  -0.460633  0  3.942375  0  0  -0.46375  0  3.948353  0  0  -0.24649  -0.458173  0  3.938142  0
C  C46  1  0.98946046  0.26537510  0.88177565  1  0  -0.377708  0  3.708358  0  0  -0.460463  0  3.942274  0  0  -0.463572  0  3.94822  0  0  -0.246433  -0.458004  0  3.938042  0
C  C47  1  0.51056611  0.23462887  0.38177350  1  0  -0.377898  0  3.708578  0  0  -0.460633  0  3.942419  0  0  -0.463749  0  3.948391  0  0  -0.246472  -0.458181  0  3.938186  0
C  C48  1  0.12140564  0.74759933  0.27859344  1  0  -0.176943  0  3.707643  0  0  -0.194516  0  3.956135  0  0  -0.203713  0  3.977252  0  0  -0.094599  -0.188643  0  3.942158  0
C  C49  1  0.37858838  0.75240248  0.77859524  1  0  -0.176767  0  3.707523  0  0  -0.194429  0  3.956019  0  0  -0.203623  0  3.977136  0  0  -0.094535  -0.188552  0  3.942037  0
C  C50  1  0.87859815  0.25240425  0.72140700  1  0  -0.176717  0  3.707581  0  0  -0.194314  0  3.956063  0  0  -0.203513  0  3.977179  0  0  -0.094497  -0.188444  0  3.942089  0
C  C51  1  0.62141297  0.24759235  0.22140456  1  0  -0.176659  0  3.707397  0  0  -0.19429  0  3.955901  0  0  -0.203487  0  3.977015  0  0  -0.094476  -0.188417  0  3.94192  0
C  C52  1  0.26006096  0.79302594  0.34787753  1  0  -0.022619  0  3.711837  0  0  -0.048903  0  3.963406  0  0  -0.043694  0  3.97966  0  0  -0.066726  -0.052208  0  3.952503  0
C  C53  1  0.23993334  0.70697222  0.84788222  1  0  -0.02258  0  3.71161  0  0  -0.04888  0  3.963186  0  0  -0.043668  0  3.979434  0  0  -0.066686  -0.052184  0  3.952285  0
C  C54  1  0.73993522  0.20697633  0.65212292  1  0  -0.022706  0  3.711716  0  0  -0.048983  0  3.96333  0  0  -0.043771  0  3.979579  0  0  -0.066779  -0.05229  0  3.952433  0
C  C55  1  0.76006541  0.29302195  0.15211758  1  0  -0.022845  0  3.71188  0  0  -0.049176  0  3.963509  0  0  -0.043963  0  3.979758  0  0  -0.066892  -0.052481  0  3.952608  0
C  C56  1  0.44908034  0.87398085  0.33396706  1  0  0.008555  0  3.800836  0  0  0.027986  0  4.023839  0  0  0.023349  0  4.049535  0  0  -0.007469  0.030865  0  4.006541  0
C  C57  1  0.05091583  0.62601803  0.83396944  1  0  0.008633  0  3.800718  0  0  0.028107  0  4.023668  0  0  0.02347  0  4.049367  0  0  -0.007426  0.030986  0  4.006371  0
C  C58  1  0.55092568  0.12602204  0.66603468  1  0  0.008573  0  3.800661  0  0  0.027933  0  4.023764  0  0  0.023322  0  4.04948  0  0  -0.007505  0.030798  0  4.00645  0
C  C59  1  0.94907161  0.37397889  0.16602648  1  0  0.008734  0  3.800738  0  0  0.028058  0  4.023723  0  0  0.023447  0  4.049437  0  0  -0.007438  0.030932  0  4.006416  0
C  C60  1  0.60284797  0.92448026  0.40167833  1  0  -0.109034  0  3.757122  0  0  -0.128667  0  4.004228  0  0  -0.130468  0  4.026967  0  0  -0.091138  -0.127206  0  3.988714  0
C  C61  1  0.89716331  0.57551200  0.90168030  1  0  -0.109138  0  3.757045  0  0  -0.128806  0  4.004135  0  0  -0.130611  0  4.02688  0  0  -0.091132  -0.127344  0  3.988618  0
C  C62  1  0.39715470  0.07551928  0.59832535  1  0  -0.109095  0  3.757189  0  0  -0.128739  0  4.004308  0  0  -0.130538  0  4.02704  0  0  -0.091119  -0.12728  0  3.988795  0
C  C63  1  0.10283061  0.42448219  0.09831497  1  0  -0.109048  0  3.757211  0  0  -0.128658  0  4.004317  0  0  -0.13046  0  4.027056  0  0  -0.091122  -0.127198  0  3.9888  0
C  C64  1  0.78747856  0.00253576  0.38394095  1  0  -0.084286  0  3.801163  0  0  -0.100365  0  4.056548  0  0  -0.103929  0  4.079937  0  0  -0.095941  -0.098035  0  4.040611  0
C  C65  1  0.71254195  0.49745475  0.88394107  1  0  -0.084288  0  3.801179  0  0  -0.100358  0  4.056552  0  0  -0.103926  0  4.079951  0  0  -0.095987  -0.098032  0  4.040636  0
C  C66  1  0.21253338  0.99746238  0.61606466  1  0  -0.084097  0  3.801217  0  0  -0.100175  0  4.056618  0  0  -0.103737  0  4.080004  0  0  -0.095899  -0.097851  0  4.040699  0
C  C67  1  0.28744455  0.50253880  0.11605227  1  0  -0.084053  0  3.801397  0  0  -0.100111  0  4.056737  0  0  -0.103674  0  4.08013  0  0  -0.095878  -0.097788  0  4.040821  0
C  C68  1  0.82634313  0.03255275  0.29765564  1  0  -0.04673  0  3.760038  0  0  -0.060625  0  4.009314  0  0  -0.061424  0  4.031766  0  0  -0.088829  -0.059787  0  3.993968  0
C  C69  1  0.67368513  0.46743875  0.79765832  1  0  -0.046541  0  3.760104  0  0  -0.060483  0  4.009421  0  0  -0.061287  0  4.031886  0  0  -0.088815  -0.059698  0  3.994066  0
C  C70  1  0.17366436  0.96744677  0.70234739  1  0  -0.046604  0  3.760092  0  0  -0.060528  0  4.00942  0  0  -0.061326  0  4.031861  0  0  -0.088844  -0.059731  0  3.994065  0
C  C71  1  0.32631660  0.53255743  0.20233438  1  0  -0.046657  0  3.760043  0  0  -0.060572  0  4.009399  0  0  -0.061372  0  4.031849  0  0  -0.088799  -0.059784  0  3.994043  0
C  C72  1  0.67714290  0.98545464  0.23054100  1  0  -0.133166  0  3.705453  0  0  -0.155008  0  3.959289  0  0  -0.159558  0  3.979298  0  0  -0.091442  -0.152001  0  3.945939  0
C  C73  1  0.82287410  0.51453895  0.73054295  1  0  -0.133032  0  3.705337  0  0  -0.154902  0  3.959217  0  0  -0.159413  0  3.979195  0  0  -0.091351  -0.151914  0  3.945893  0
C  C74  1  0.32287073  0.01454956  0.76946332  1  0  -0.133273  0  3.705421  0  0  -0.155135  0  3.959208  0  0  -0.159663  0  3.97927  0  0  -0.091435  -0.152147  0  3.94586  0
C  C75  1  0.17712484  0.48545589  0.26945103  1  0  -0.133002  0  3.705375  0  0  -0.155019  0  3.959205  0  0  -0.159517  0  3.979243  0  0  -0.091448  -0.152036  0  3.945872  0
C  C76  1  0.48465399  0.90546928  0.24686205  1  0  0.204426  0  3.764309  0  0  0.203756  0  3.993237  0  0  0.21019  0  4.017168  0  0  0.106371  0.199531  0  3.977039  0
C  C77  1  0.01535098  0.59452586  0.74686250  1  0  0.204276  0  3.764297  0  0  0.203617  0  3.993214  0  0  0.210054  0  4.017144  0  0  0.106343  0.19939  0  3.977018  0
C  C78  1  0.51535519  0.09453630  0.75314227  1  0  0.204605  0  3.764171  0  0  0.203969  0  3.993104  0  0  0.210313  0  4.017158  0  0  0.106467  0.199793  0  3.976829  0
C  C79  1  0.98464999  0.40546762  0.25313149  1  0  0.204213  0  3.764148  0  0  0.20384  0  3.992759  0  0  0.210189  0  4.016805  0  0  0.106497  0.199633  0  3.976535  0
Br  Br80  1  0.81456975  0.89222145  0.93664536  1  0  -0.504225  0  1.341968  0  0  -0.413774  0  1.734655  0  0  -0.438606  0  1.702848  0  0  -0.235903  -0.395727  0  1.756396  0
Br  Br81  1  0.68541499  0.60778158  0.43665087  1  0  -0.504201  0  1.341928  0  0  -0.413742  0  1.734625  0  0  -0.438575  0  1.702809  0  0  -0.235898  -0.395689  0  1.756354  0
Br  Br82  1  0.18542216  0.10778286  0.06334992  1  0  -0.504233  0  1.342013  0  0  -0.413775  0  1.734696  0  0  -0.438613  0  1.702898  0  0  -0.235911  -0.395724  0  1.756425  0
Br  Br83  1  0.31458229  0.39221597  0.56334635  1  0  -0.504269  0  1.341981  0  0  -0.413818  0  1.7347  0  0  -0.438651  0  1.702883  0  0  -0.235911  -0.395751  0  1.756407  0
N  N84  1  0.33806972  0.85964671  0.17913657  1  0  -0.38118  0  3.204238  0  0  -0.307838  0  3.467552  0  0  -0.329167  0  3.484013  0  0  -0.334814  -0.293501  0  3.45617  0
N  N85  1  0.16192560  0.64035279  0.67913867  1  0  -0.381168  0  3.204222  0  0  -0.307884  0  3.467538  0  0  -0.329215  0  3.484004  0  0  -0.334858  -0.293547  0  3.456156  0
N  N86  1  0.66193501  0.14036023  0.82086516  1  0  -0.38127  0  3.204266  0  0  -0.307896  0  3.467518  0  0  -0.329202  0  3.484003  0  0  -0.334818  -0.293575  0  3.456116  0
N  N87  1  0.83807334  0.35964205  0.32085984  1  0  -0.381246  0  3.204146  0  0  -0.308001  0  3.467333  0  0  -0.329307  0  3.483817  0  0  -0.334925  -0.293671  0  3.455947  0
