# generated using pymatgen
data_ZnH13C23N3O4
_symmetry_space_group_name_H-M   'P 1'
_cell_length_a   11.67443510
_cell_length_b   15.71745106
_cell_length_c   17.96435405
_cell_angle_alpha   90.06354574
_cell_angle_beta   90.00012184
_cell_angle_gamma   90.00006182
_symmetry_Int_Tables_number   1
_chemical_formula_structural   ZnH13C23N3O4
_chemical_formula_sum   'Zn4 H52 C92 N12 O16'
_cell_volume   3296.31973474
_cell_formula_units_Z   4
loop_
 _symmetry_equiv_pos_site_id
 _symmetry_equiv_pos_as_xyz
  1  'x, y, z'
loop_
 _atom_site_type_symbol
 _atom_site_label
 _atom_site_symmetry_multiplicity
 _atom_site_fract_x
 _atom_site_fract_y
 _atom_site_fract_z
 _atom_site_occupancy
 _atom_site_pbe_bader_charge
 _atom_site_pbe_bader_spin_density
 _atom_site_pbe_cm5_charge
 _atom_site_pbe_ddec_charge
 _atom_site_pbe_ddec_spin_density
 _atom_site_pbe_ddec_sum_bond_order
 _atom_site_pbe_magmom
Zn  Zn0  1  0.25493904  0.50585019  0.78252738  1  1.275022  0  0.669381  0.814625  0  2.460728  0
Zn  Zn1  1  0.25750473  0.50543488  0.93780916  1  1.285384  0  0.667045  0.810191  0  2.372912  0
Zn  Zn2  1  0.75493831  0.49415010  0.21747300  1  1.275023  0  0.669354  0.81458  0  2.460795  0
Zn  Zn3  1  0.75750435  0.49456541  0.06219122  1  1.28542  0  0.66705  0.810227  0  2.372893  0
H  H4  1  0.07198018  0.49047570  0.19468006  1  0.127421  0  0.114779  0.126795  0  1.037572  0
H  H5  1  0.44325553  0.49682468  0.19542652  1  0.140986  0  0.114314  0.125294  0  1.043448  0
H  H6  1  0.96720108  0.00206673  0.85003849  1  0.077642  0  0.102026  0.106404  0  1.007534  0
H  H7  1  0.54497166  0.00969830  0.84418584  1  0.022833  0  0.101979  0.10601  0  1.008079  0
H  H8  1  0.39860212  0.76386205  0.94530268  1  0.084499  0  0.10403  0.107725  0  1.010223  0
H  H9  1  0.09695034  0.25606323  0.95531227  1  0.087073  0  0.103958  0.10926  0  1.008176  0
H  H10  1  0.51908683  0.89534202  0.93920469  1  0.053197  0  0.098811  0.097031  0  1.02072  0
H  H11  1  0.97716156  0.12438824  0.94927238  1  0.048152  0  0.097612  0.094919  0  1.031669  0
H  H12  1  0.57493061  0.66385311  0.75459574  1  0.096809  0  0.094568  0.090201  0  1.047184  0
H  H13  1  0.94800281  0.34196620  0.75026655  1  0.071883  0  0.09635  0.095035  0  1.03109  0
H  H14  1  0.70394508  0.79040553  0.75363221  1  0.067777  0  0.099272  0.102173  0  1.000906  0
H  H15  1  0.81990058  0.21466540  0.74796214  1  0.057939  0  0.099176  0.101495  0  1.000563  0
H  H16  1  0.08018078  0.49776917  0.05611137  1  0.170405  0  0.126995  0.108414  0  0.994771  0
H  H17  1  0.43608922  0.50222334  0.05670550  1  0.178582  0  0.126928  0.107925  0  0.993108  0
H  H18  1  0.10746224  0.75129450  0.76344793  1  0.101571  0  0.103741  0.111723  0  0.997751  0
H  H19  1  0.41740321  0.26671202  0.75322963  1  0.071385  0  0.102028  0.109235  0  1.001041  0
H  H20  1  0.92411015  0.66880601  0.95814205  1  0.096125  0  0.10349  0.109651  0  1.031727  0
H  H21  1  0.57904140  0.33764161  0.95941676  1  0.119202  0  0.101802  0.107572  0  1.048057  0
H  H22  1  0.98454031  0.88104637  0.75673674  1  0.066895  0  0.09893  0.099716  0  1.002981  0
H  H23  1  0.53984928  0.13647379  0.74688152  1  0.04692  0  0.097967  0.098571  0  1.00201  0
H  H24  1  0.79702913  0.79467418  0.94885709  1  0.050472  0  0.103101  0.108681  0  0.994285  0
H  H25  1  0.70540629  0.21148857  0.95093641  1  0.044478  0  0.102596  0.108373  0  0.993282  0
H  H26  1  0.07704133  0.45929278  0.52618711  1  0.119546  0  0.107718  0.10558  0  1.064211  0
H  H27  1  0.43508354  0.52841088  0.52498611  1  0.111951  0  0.106497  0.102324  0  1.073325  0
H  H28  1  0.08236259  0.47004196  0.66520040  1  0.185174  0  0.125063  0.099237  0  1.019478  0
H  H29  1  0.42631589  0.53488144  0.66410085  1  0.125793  0  0.126146  0.102491  0  1.01197  0
H  H30  1  0.57197969  0.50952508  0.80532062  1  0.127383  0  0.114765  0.126767  0  1.037609  0
H  H31  1  0.94325503  0.50317448  0.80457411  1  0.141007  0  0.114304  0.125279  0  1.04339  0
H  H32  1  0.46720216  0.99793436  0.14995829  1  0.077609  0  0.101967  0.106356  0  1.007611  0
H  H33  1  0.04497360  0.99030118  0.15581703  1  0.022837  0  0.101993  0.106047  0  1.008071  0
H  H34  1  0.89860220  0.23613772  0.05469789  1  0.084513  0  0.104016  0.107686  0  1.010229  0
H  H35  1  0.59694941  0.74393756  0.04468510  1  0.087016  0  0.103997  0.109337  0  1.008027  0
H  H36  1  0.01908718  0.10465807  0.06079481  1  0.053209  0  0.098804  0.097008  0  1.020728  0
H  H37  1  0.47716299  0.87561286  0.05072775  1  0.04812  0  0.097606  0.094896  0  1.031649  0
H  H38  1  0.07493104  0.33614576  0.24540550  1  0.096787  0  0.094558  0.090201  0  1.047191  0
H  H39  1  0.44800372  0.65803296  0.24973131  1  0.071844  0  0.096336  0.095037  0  1.031053  0
H  H40  1  0.20394618  0.20959472  0.24636809  1  0.067744  0  0.099295  0.102211  0  1.000979  0
H  H41  1  0.31990426  0.78533494  0.25203832  1  0.057925  0  0.099164  0.101479  0  1.000518  0
H  H42  1  0.58017988  0.50223034  0.94388932  1  0.170399  0  0.126949  0.108362  0  0.994785  0
H  H43  1  0.93608917  0.49777454  0.94329513  1  0.178594  0  0.126937  0.107974  0  0.993061  0
H  H44  1  0.60746208  0.24870503  0.23655169  1  0.101585  0  0.103754  0.111748  0  0.997725  0
H  H45  1  0.91740378  0.73328712  0.24677264  1  0.071365  0  0.102024  0.109226  0  1.000978  0
H  H46  1  0.42411248  0.33119314  0.04185633  1  0.09613  0  0.103494  0.10967  0  1.031692  0
H  H47  1  0.07903649  0.66235917  0.04058337  1  0.119222  0  0.101767  0.107528  0  1.048076  0
H  H48  1  0.48454042  0.11895346  0.24326229  1  0.066928  0  0.098895  0.099661  0  1.003016  0
H  H49  1  0.03985051  0.86352441  0.25312078  1  0.047379  0  0.097944  0.098559  0  1.002018  0
H  H50  1  0.29703045  0.20532551  0.05114112  1  0.050465  0  0.103097  0.108699  0  0.994268  0
H  H51  1  0.20540160  0.78851168  0.04906446  1  0.044561  0  0.102568  0.108313  0  0.993322  0
H  H52  1  0.57704065  0.54070927  0.47381302  1  0.119539  0  0.107712  0.105576  0  1.064205  0
H  H53  1  0.93508105  0.47158955  0.47501396  1  0.111993  0  0.1065  0.102355  0  1.073378  0
H  H54  1  0.58235973  0.52996010  0.33480030  1  0.185152  0  0.125037  0.099192  0  1.0195  0
H  H55  1  0.92631209  0.46511771  0.33589976  1  0.125839  0  0.126125  0.102428  0  1.012105  0
C  C56  1  0.48025298  0.70548215  0.85091319  1  -0.025721  0  -0.020224  -0.034842  0  3.964334  0
C  C57  1  0.02976152  0.30689136  0.85317169  1  0.015124  0  -0.021221  -0.038488  0  3.970806  0
C  C58  1  0.40590415  0.62806101  0.85368850  1  1.588629  0  0.212825  0.585083  0  4.177395  0
C  C59  1  0.10514253  0.38370934  0.85540044  1  1.559021  0  0.213041  0.583557  0  4.177721  0
C  C60  1  0.62095711  0.85103524  0.84714662  1  -0.026821  0  -0.003904  0.080596  0  4.009029  0
C  C61  1  0.89010282  0.16100391  0.84877874  1  -0.031057  0  -0.004297  0.079777  0  4.009389  0
C  C62  1  0.88211664  0.84680123  0.85220588  1  -0.00647  0  -0.005553  0.075248  0  4.010517  0
C  C63  1  0.63094938  0.16509014  0.84845656  1  -0.005668  0  -0.005825  0.076498  0  4.013884  0
C  C64  1  0.15429161  0.49332900  0.16628637  1  -0.011394  0  -0.06657  -0.141638  0  3.903218  0
C  C65  1  0.36121040  0.49667083  0.16665663  1  0.089545  0  -0.067039  -0.140807  0  3.905557  0
C  C66  1  0.81406287  0.92632268  0.84868279  1  -0.021741  0  -0.006191  0.027507  0  3.981583  0
C  C67  1  0.69815600  0.08512797  0.84628873  1  0.006338  0  -0.005542  0.027164  0  3.987789  0
C  C68  1  0.10238798  0.62662608  0.86353543  1  1.559924  0  0.212021  0.582485  0  4.179306  0
C  C69  1  0.41032561  0.38476859  0.86007821  1  1.549048  0  0.212459  0.584076  0  4.176917  0
C  C70  1  0.02388059  0.70194764  0.86085864  1  -0.031811  0  -0.023089  -0.041662  0  3.975025  0
C  C71  1  0.48989000  0.31015117  0.85647178  1  -0.034994  0  -0.024706  -0.045769  0  3.977133  0
C  C72  1  0.87377643  0.00370539  0.84865425  1  -0.08274  0  -0.090035  -0.177797  0  3.973598  0
C  C73  1  0.63840401  0.00791066  0.84541303  1  -0.016806  0  -0.089421  -0.175666  0  3.975806  0
C  C74  1  0.69301889  0.92856171  0.84693087  1  -0.006212  0  -0.006944  0.024281  0  3.988057  0
C  C75  1  0.81903037  0.08293776  0.84775789  1  -0.01581  0  -0.006898  0.026537  0  3.987568  0
C  C76  1  0.46441166  0.77099775  0.90275190  1  -0.039217  0  -0.083357  -0.084094  0  3.982136  0
C  C77  1  0.03770371  0.24556599  0.90935838  1  -0.073349  0  -0.081453  -0.078073  0  3.972159  0
C  C78  1  0.53233962  0.84359981  0.89961633  1  -0.079996  0  -0.09366  -0.14293  0  3.988504  0
C  C79  1  0.97021986  0.17274458  0.90608573  1  -0.003481  0  -0.093171  -0.141965  0  3.990362  0
C  C80  1  0.56521718  0.71398308  0.79613664  1  -0.094048  0  -0.089276  -0.088968  0  3.987113  0
C  C81  1  0.95207071  0.29462278  0.79449297  1  -0.033633  0  -0.089608  -0.090725  0  3.99149  0
C  C82  1  0.63638641  0.78499792  0.79529874  1  0.017684  0  -0.093437  -0.135398  0  3.987658  0
C  C83  1  0.88138544  0.22334182  0.79306236  1  -0.053999  0  -0.093129  -0.135177  0  3.987807  0
C  C84  1  0.15846813  0.49681608  0.08905231  1  0.501968  0  0.063769  0.113463  0  3.874328  0
C  C85  1  0.35760497  0.50052629  0.08943556  1  0.405478  0  0.063582  0.111779  0  3.877659  0
C  C86  1  0.25762601  0.49341541  0.20604522  1  -0.05223  0  0.01398  0.045331  0  3.977396  0
C  C87  1  0.03962006  0.76197469  0.80404287  1  -0.118799  0  -0.090216  -0.09319  0  4.001665  0
C  C88  1  0.48048298  0.25349498  0.79637820  1  -0.012232  0  -0.089639  -0.090735  0  4.001436  0
C  C89  1  0.93634539  0.71457625  0.91325191  1  0.010742  0  -0.084227  -0.089486  0  3.96699  0
C  C90  1  0.57157969  0.29450082  0.91207663  1  -0.071434  0  -0.085279  -0.089477  0  3.969125  0
C  C91  1  0.25771009  0.49043703  0.28781907  1  0.945032  0  0.259806  0.257764  0  3.942145  0
C  C92  1  0.97080007  0.83398512  0.80047063  1  -0.018611  0  -0.098302  -0.14801  0  4.013854  0
C  C93  1  0.54894277  0.18122669  0.79302228  1  -0.049208  0  -0.097917  -0.148549  0  4.014587  0
C  C94  1  0.86519253  0.78555521  0.90811315  1  -0.060242  0  -0.088683  -0.124869  0  3.958629  0
C  C95  1  0.64239247  0.22338006  0.90734299  1  -0.00247  0  -0.087758  -0.122953  0  3.954755  0
C  C96  1  0.25692998  0.49051599  0.43197127  1  1.044281  0  0.250148  0.249102  0  3.97336  0
C  C97  1  0.25597333  0.49391411  0.51396362  1  -0.074078  0  0.013817  0.053987  0  3.983162  0
C  C98  1  0.15585376  0.47679444  0.55428849  1  0.012198  0  -0.072758  -0.150275  0  3.932284  0
C  C99  1  0.35535723  0.51509169  0.55367255  1  0.030909  0  -0.073073  -0.148043  0  3.932878  0
C  C100  1  0.15816236  0.48236094  0.63143730  1  0.425375  0  0.064531  0.114165  0  3.880023  0
C  C101  1  0.35122526  0.51872914  0.63083936  1  0.484203  0  0.063677  0.110488  0  3.882463  0
C  C102  1  0.98025260  0.29451705  0.14908805  1  -0.025716  0  -0.020177  -0.034729  0  3.964154  0
C  C103  1  0.52976085  0.69310938  0.14682615  1  0.014893  0  -0.021266  -0.03863  0  3.970788  0
C  C104  1  0.90590302  0.37193876  0.14631487  1  1.58875  0  0.212785  0.584911  0  4.177332  0
C  C105  1  0.60514089  0.61629145  0.14459360  1  1.558774  0  0.213119  0.583886  0  4.177388  0
C  C106  1  0.12095782  0.14896494  0.15285302  1  -0.026817  0  -0.003937  0.080561  0  4.008989  0
C  C107  1  0.39010453  0.83899712  0.15122182  1  -0.03096  0  -0.004322  0.079763  0  4.009441  0
C  C108  1  0.38211734  0.15319852  0.14779300  1  -0.006489  0  -0.00555  0.075282  0  4.010576  0
C  C109  1  0.13095023  0.83490941  0.15154531  1  -0.005839  0  -0.005815  0.076459  0  4.013984  0
C  C110  1  0.65428949  0.50667247  0.83371387  1  -0.011366  0  -0.066548  -0.141532  0  3.903106  0
C  C111  1  0.86120828  0.50332890  0.83334389  1  0.089548  0  -0.067071  -0.140867  0  3.905626  0
C  C112  1  0.31406346  0.07367638  0.15131600  1  -0.021769  0  -0.006221  0.027393  0  3.981753  0
C  C113  1  0.19815697  0.91487227  0.15371324  1  0.00632  0  -0.005535  0.027182  0  3.987843  0
C  C114  1  0.60238853  0.37337408  0.13646195  1  1.559806  0  0.212096  0.582547  0  4.179326  0
C  C115  1  0.91032567  0.61523055  0.13992461  1  1.549065  0  0.212363  0.583846  0  4.177177  0
C  C116  1  0.52388275  0.29805182  0.13914030  1  -0.031953  0  -0.023094  -0.041721  0  3.975058  0
C  C117  1  0.98989103  0.68984804  0.14353170  1  -0.035476  0  -0.0247  -0.045679  0  3.977121  0
C  C118  1  0.37377666  0.99629626  0.15134351  1  -0.082785  0  -0.08986  -0.177552  0  3.973544  0
C  C119  1  0.13840510  0.99208826  0.15458886  1  -0.016781  0  -0.089439  -0.175694  0  3.975813  0
C  C120  1  0.19301949  0.07143917  0.15306998  1  -0.006196  0  -0.00696  0.024289  0  3.988104  0
C  C121  1  0.31903134  0.91706257  0.15224146  1  -0.015841  0  -0.006957  0.026406  0  3.98754  0
C  C122  1  0.96441187  0.22900207  0.09724876  1  -0.039235  0  -0.083326  -0.084026  0  3.982098  0
C  C123  1  0.53770380  0.75443475  0.09063947  1  -0.073326  0  -0.081529  -0.078206  0  3.972009  0
C  C124  1  0.03233932  0.15640157  0.10038374  1  -0.079987  0  -0.093643  -0.142909  0  3.988456  0
C  C125  1  0.47021965  0.82725715  0.09391383  1  -0.003245  0  -0.093119  -0.141852  0  3.990252  0
C  C126  1  0.06521740  0.28601642  0.20386514  1  -0.093993  0  -0.089293  -0.089027  0  3.987201  0
C  C127  1  0.45207155  0.70537767  0.20550490  1  -0.03353  0  -0.089559  -0.090647  0  3.991278  0
C  C128  1  0.13638739  0.21500164  0.20470258  1  0.017632  0  -0.093419  -0.135381  0  3.987758  0
C  C129  1  0.38138809  0.77665856  0.20693708  1  -0.053964  0  -0.093116  -0.135174  0  3.987744  0
C  C130  1  0.65846884  0.50318413  0.91094737  1  0.501977  0  0.063797  0.113444  0  3.874382  0
C  C131  1  0.85760481  0.49947280  0.91056385  1  0.405469  0  0.063572  0.111753  0  3.877723  0
C  C132  1  0.75762719  0.50658488  0.79395404  1  -0.052236  0  0.013941  0.045277  0  3.977365  0
C  C133  1  0.53962061  0.23802478  0.19595665  1  -0.118816  0  -0.090237  -0.093224  0  4.001651  0
C  C134  1  0.98048515  0.74650295  0.20362249  1  -0.011821  0  -0.08963  -0.09074  0  4.001504  0
C  C135  1  0.43634694  0.28542291  0.08674649  1  0.010995  0  -0.084222  -0.089432  0  3.966915  0
C  C136  1  0.07157757  0.70549869  0.08792405  1  -0.071402  0  -0.085246  -0.089453  0  3.968995  0
C  C137  1  0.75770929  0.50956326  0.71218131  1  0.945017  0  0.259824  0.257807  0  3.942065  0
C  C138  1  0.47080010  0.16601534  0.19952726  1  -0.018586  0  -0.098267  -0.147924  0  4.013868  0
C  C139  1  0.04894292  0.81877280  0.20698004  1  -0.049491  0  -0.097926  -0.148564  0  4.014644  0
C  C140  1  0.36519399  0.21444453  0.09188571  1  -0.060239  0  -0.088696  -0.124969  0  3.958645  0
C  C141  1  0.14239133  0.77662014  0.09265835  1  -0.002492  0  -0.0877  -0.122822  0  3.954763  0
C  C142  1  0.75693129  0.50948493  0.56803023  1  1.044472  0  0.250187  0.249207  0  3.973206  0
C  C143  1  0.75597008  0.50608682  0.48603453  1  -0.074086  0  0.013775  0.054009  0  3.983191  0
C  C144  1  0.65585469  0.52320577  0.44571286  1  0.012138  0  -0.072768  -0.150325  0  3.932432  0
C  C145  1  0.85535553  0.48490804  0.44632796  1  0.030928  0  -0.073112  -0.148172  0  3.932819  0
C  C146  1  0.65815874  0.51763990  0.36856294  1  0.425375  0  0.064591  0.114271  0  3.879789  0
C  C147  1  0.85122158  0.48127059  0.36915948  1  0.484229  0  0.063733  0.110597  0  3.882609  0
N  N148  1  0.25815427  0.50077440  0.05144370  1  -1.251436  0  -0.314279  -0.195204  0  3.505155  0
N  N149  1  0.35801908  0.50532549  0.32362334  1  -0.481671  0  -0.131489  -0.115921  0  3.190035  0
N  N150  1  0.15825178  0.47149325  0.32309305  1  -0.503044  0  -0.131645  -0.116857  0  3.187888  0
N  N151  1  0.35770226  0.50460986  0.39685804  1  -0.631451  0  -0.142122  -0.138048  0  3.203799  0
N  N152  1  0.15776537  0.47236508  0.39642203  1  -0.628305  0  -0.14177  -0.136413  0  3.19691  0
N  N153  1  0.25415337  0.50296820  0.66874787  1  -1.203488  0  -0.312675  -0.181446  0  3.494804  0
N  N154  1  0.75815252  0.49922462  0.94855668  1  -1.251451  0  -0.314231  -0.195179  0  3.505239  0
N  N155  1  0.85801986  0.49467615  0.67637662  1  -0.481656  0  -0.131458  -0.115865  0  3.189873  0
N  N156  1  0.65825176  0.52850696  0.67690663  1  -0.503048  0  -0.131638  -0.116856  0  3.187847  0
N  N157  1  0.85770281  0.49539178  0.60314192  1  -0.63149  0  -0.142145  -0.138145  0  3.203753  0
N  N158  1  0.65776510  0.52763640  0.60357765  1  -0.62846  0  -0.141797  -0.136467  0  3.196863  0
N  N159  1  0.75415303  0.49703081  0.33125195  1  -1.203511  0  -0.312677  -0.181445  0  3.494784  0
O  O160  1  0.35668901  0.61122597  0.91534746  1  -1.165798  0  -0.314874  -0.540092  0  2.307895  0
O  O161  1  0.15544486  0.40064611  0.91666777  1  -1.162418  0  -0.314965  -0.542609  0  2.316373  0
O  O162  1  0.11322198  0.58577336  0.92449813  1  -1.171809  0  -0.30988  -0.543691  0  2.306644  0
O  O163  1  0.40012311  0.42501648  0.92151151  1  -1.172696  0  -0.313018  -0.5483  0  2.310099  0
O  O164  1  0.39694170  0.58428952  0.79405761  1  -1.179276  0  -0.318828  -0.556284  0  2.343921  0
O  O165  1  0.11399514  0.42706067  0.79560238  1  -1.181988  0  -0.318585  -0.556684  0  2.353743  0
O  O166  1  0.15437411  0.60911841  0.80289136  1  -1.173544  0  -0.32169  -0.551943  0  2.349745  0
O  O167  1  0.35683343  0.40243049  0.80009567  1  -1.169423  0  -0.32173  -0.552454  0  2.350559  0
O  O168  1  0.85668855  0.38877440  0.08465584  1  -1.165844  0  -0.314878  -0.540066  0  2.307907  0
O  O169  1  0.65544128  0.59935473  0.08332969  1  -1.162324  0  -0.314975  -0.542724  0  2.316428  0
O  O170  1  0.61322153  0.41422554  0.07550205  1  -1.171865  0  -0.30989  -0.543656  0  2.306865  0
O  O171  1  0.90012119  0.57498265  0.07849129  1  -1.172585  0  -0.313001  -0.548274  0  2.310238  0
O  O172  1  0.89694083  0.41570834  0.20594575  1  -1.179393  0  -0.318826  -0.556214  0  2.343912  0
O  O173  1  0.61399363  0.57293759  0.20439446  1  -1.181798  0  -0.318617  -0.556851  0  2.353542  0
O  O174  1  0.65437403  0.39088243  0.19710943  1  -1.173513  0  -0.32174  -0.552003  0  2.34962  0
O  O175  1  0.85683366  0.59756924  0.19990763  1  -1.169606  0  -0.321669  -0.552304  0  2.350589  0
