# generated using pymatgen
data_MnH3(CO)4
_symmetry_space_group_name_H-M   'P 1'
_cell_length_a   6.26688622
_cell_length_b   7.53145261
_cell_length_c   9.30978933
_cell_angle_alpha   89.99980491
_cell_angle_beta   90.00003699
_cell_angle_gamma   92.98520806
_symmetry_Int_Tables_number   1
_chemical_formula_structural   MnH3(CO)4
_chemical_formula_sum   'Mn4 H12 C16 O16'
_cell_volume   438.81420630
_cell_formula_units_Z   4
loop_
 _symmetry_equiv_pos_site_id
 _symmetry_equiv_pos_as_xyz
  1  'x, y, z'
loop_
 _atom_site_type_symbol
 _atom_site_label
 _atom_site_symmetry_multiplicity
 _atom_site_fract_x
 _atom_site_fract_y
 _atom_site_fract_z
 _atom_site_occupancy
 _atom_site_hle17_ddec_charge
 _atom_site_hle17_ddec_spin_density
 _atom_site_hle17_ddec_sum_bond_order
 _atom_site_hle17_magmom
 _atom_site_hse06_10hf_ddec_charge
 _atom_site_hse06_10hf_ddec_spin_density
 _atom_site_hse06_10hf_ddec_sum_bond_order
 _atom_site_hse06_10hf_magmom
 _atom_site_hse06_ddec_charge
 _atom_site_hse06_ddec_spin_density
 _atom_site_hse06_ddec_sum_bond_order
 _atom_site_hse06_magmom
 _atom_site_pbe_cm5_charge
 _atom_site_pbe_ddec_charge
 _atom_site_pbe_ddec_spin_density
 _atom_site_pbe_ddec_sum_bond_order
 _atom_site_pbe_magmom
Mn  Mn0  1  0.46017125  0.37979295  0.65415831  1  1.25009  4.780194  1.699172  4.676  1.099891  4.706287  2.181632  4.54  1.157561  4.74931  2.110357  4.602  0.605562  1.05643  4.659356  2.233202  4.475
Mn  Mn1  1  0.03983009  0.62020558  0.15415839  1  1.250132  4.780192  1.699143  4.676  1.099899  4.706286  2.181612  4.54  1.157565  4.749308  2.110336  4.602  0.605581  1.05644  4.65936  2.233187  4.475
Mn  Mn2  1  0.53982987  0.62020690  0.34584275  1  1.250081  4.780188  1.699228  4.676  1.099865  4.706277  2.1817  4.54  1.157531  4.749301  2.110424  4.602  0.605564  1.056405  4.659344  2.233268  4.475
Mn  Mn3  1  0.96016763  0.37979164  0.84584158  1  1.250125  4.780193  1.699121  4.676  1.099902  4.706281  2.181584  4.54  1.157571  4.7493  2.110309  4.602  0.605578  1.05645  4.659353  2.233158  4.475
H  H4  1  0.01137818  0.04771395  0.23786031  1  0.121508  -0.000478  0.964544  0.0  0.131649  1.7e-05  1.027147  0.0  0.135238  -0.000189  1.025035  0.0  0.10909  0.129219  0.000223  1.028755  0.0
H  H5  1  0.48862173  0.95228558  0.73786511  1  0.12148  -0.000482  0.964556  0.0  0.131612  1.7e-05  1.027179  0.0  0.135196  -0.000189  1.02507  0.0  0.109069  0.129184  0.000223  1.028792  0.0
H  H6  1  0.98862613  0.95228587  0.76213537  1  0.121471  -0.000476  0.964592  0.0  0.131601  1.7e-05  1.027212  0.0  0.135188  -0.000189  1.025101  0.0  0.10906  0.129175  0.000223  1.02882  0.0
H  H7  1  0.51137151  0.04771568  0.26214023  1  0.121545  -0.000472  0.964498  0.0  0.131661  1.7e-05  1.027127  0.0  0.135243  -0.000188  1.025019  0.0  0.109108  0.12923  0.000223  1.028737  0.0
H  H8  1  0.61289556  0.24144787  0.40458145  1  0.42482  -0.000477  0.879726  0.001  0.393438  0.000319  0.94796  0.001  0.403308  -2e-06  0.933755  0.001  0.301652  0.386564  0.000712  0.957758  0.002
H  H9  1  0.88710378  0.75855307  0.90458137  1  0.424807  -0.000474  0.879765  0.001  0.393419  0.000319  0.947988  0.001  0.403291  -2e-06  0.933782  0.001  0.301648  0.386554  0.000712  0.957775  0.002
H  H10  1  0.38710735  0.75855462  0.59541853  1  0.424813  -0.000477  0.879764  0.001  0.393431  0.000319  0.947972  0.001  0.403301  -1e-06  0.933769  0.001  0.301649  0.386559  0.000712  0.957769  0.002
H  H11  1  0.11289425  0.24144815  0.09541968  1  0.42483  -0.000473  0.879707  0.001  0.393436  0.000319  0.947962  0.001  0.403306  -2e-06  0.933758  0.001  0.301659  0.386566  0.000712  0.957755  0.002
H  H12  1  0.69296699  0.11671561  0.52925900  1  0.407699  -0.000108  0.872192  0.001  0.380763  0.000561  0.947947  0.001  0.387005  0.000236  0.942919  0.001  0.304111  0.376429  0.000808  0.951093  0.002
H  H13  1  0.80703665  0.88328419  0.02925848  1  0.407713  -0.000107  0.872173  0.001  0.380774  0.000561  0.947931  0.001  0.387018  0.000236  0.942901  0.001  0.304139  0.376441  0.000807  0.951077  0.002
H  H14  1  0.30703732  0.88328421  0.47074098  1  0.40774  -0.000113  0.872142  0.001  0.380801  0.000561  0.947898  0.001  0.387045  0.000236  0.94287  0.001  0.304147  0.376469  0.000807  0.951044  0.002
H  H15  1  0.19296307  0.11671833  0.97074150  1  0.407736  -0.000111  0.87216  0.001  0.380804  0.000561  0.947909  0.001  0.387048  0.000236  0.942879  0.001  0.304159  0.37647  0.000807  0.951057  0.002
C  C16  1  0.08539982  0.16495695  0.44443735  1  -0.175419  0.005084  3.735448  0.005  -0.156745  0.008791  3.973957  0.007  -0.165042  0.005671  3.990953  0.005  -0.029163  -0.152236  0.014467  3.964604  0.011
C  C17  1  0.41460195  0.83504302  0.94443921  1  -0.175369  0.005093  3.735495  0.005  -0.156829  0.008791  3.974074  0.007  -0.165054  0.005671  3.990976  0.005  -0.029141  -0.152322  0.014467  3.964725  0.011
C  C18  1  0.91460279  0.83504155  0.55556048  1  -0.175301  0.005162  3.735399  0.005  -0.15675  0.008789  3.974023  0.007  -0.164964  0.005674  3.990913  0.005  -0.029138  -0.152241  0.014466  3.964669  0.011
C  C19  1  0.58539747  0.16495551  0.05556399  1  -0.1753  0.005149  3.735449  0.005  -0.156666  0.008787  3.973966  0.007  -0.164945  0.005676  3.990934  0.005  -0.029159  -0.152156  0.014465  3.964609  0.011
C  C20  1  0.07832781  0.13737775  0.59645156  1  0.315107  0.00804  3.871961  0.007  0.296926  0.015528  4.130618  0.013  0.3112  0.011095  4.147091  0.01  0.07457  0.285957  0.020119  4.120077  0.016
C  C21  1  0.42167189  0.86262104  0.09645651  1  0.315064  0.008051  3.871947  0.007  0.296948  0.015531  4.130567  0.013  0.311204  0.0111  4.147025  0.01  0.074576  0.285979  0.02012  4.12002  0.016
C  C22  1  0.92167809  0.86262205  0.40354519  1  0.315016  0.007968  3.872078  0.007  0.296872  0.015531  4.130734  0.013  0.311118  0.011094  4.147197  0.01  0.074552  0.285903  0.020119  4.120189  0.016
C  C23  1  0.57832593  0.13737751  0.90354776  1  0.315171  0.008006  3.871857  0.007  0.296999  0.015532  4.130513  0.013  0.311269  0.011095  4.146981  0.01  0.07462  0.286029  0.020119  4.11997  0.016
C  C24  1  0.00767579  0.02737526  0.35357187  1  -0.197436  0.005168  3.719716  0.005  -0.225852  0.007589  3.973761  0.006  -0.228166  0.005164  3.990264  0.005  -0.105392  -0.22436  0.009557  3.964151  0.007
C  C25  1  0.49232251  0.97262247  0.85357662  1  -0.197461  0.005143  3.719779  0.005  -0.22584  0.007589  3.973862  0.006  -0.22817  0.005165  3.990339  0.005  -0.105444  -0.224352  0.009558  3.964259  0.007
C  C26  1  0.99232672  0.97262191  0.64642488  1  -0.197398  0.005074  3.719636  0.005  -0.225767  0.007592  3.973722  0.006  -0.228099  0.005163  3.990191  0.005  -0.105374  -0.224278  0.009557  3.964115  0.007
C  C27  1  0.50767392  0.02737876  0.14642443  1  -0.197524  0.00507  3.71972  0.005  -0.225927  0.00759  3.973794  0.006  -0.228236  0.00516  3.990282  0.005  -0.105431  -0.224435  0.009558  3.964182  0.007
C  C28  1  0.16757662  0.33538720  0.37863542  1  0.724175  0.011002  3.766085  0.011  0.663375  0.020552  4.060359  0.018  0.703147  0.014704  4.047364  0.014  0.23879  0.634334  0.028897  4.070407  0.024
C  C29  1  0.33241851  0.66461045  0.87864740  1  0.72405  0.010992  3.766339  0.011  0.663399  0.020553  4.060422  0.018  0.703155  0.014704  4.047422  0.014  0.238793  0.634357  0.028896  4.070472  0.024
C  C30  1  0.83242291  0.66461266  0.62135703  1  0.724092  0.010991  3.766245  0.011  0.663358  0.020552  4.060455  0.018  0.703113  0.014703  4.047453  0.014  0.238796  0.634328  0.028897  4.070499  0.024
C  C31  1  0.66758101  0.33538941  0.12135580  1  0.724036  0.010985  3.766248  0.011  0.663322  0.020556  4.060416  0.018  0.703094  0.014703  4.047418  0.014  0.238793  0.634276  0.028897  4.070466  0.024
O  O32  1  0.11924372  0.36790626  0.24800298  1  -0.668726  0.031326  2.090123  0.017  -0.596369  0.041841  2.355912  0.024  -0.626176  0.036732  2.34008  0.02  -0.296738  -0.574965  0.046976  2.36737  0.029
O  O33  1  0.38075620  0.63209323  0.74800325  1  -0.668706  0.031354  2.08985  0.017  -0.596441  0.041841  2.355607  0.024  -0.626256  0.036738  2.339783  0.02  -0.296772  -0.575026  0.046977  2.367056  0.029
O  O34  1  0.88075262  0.63209364  0.75199699  1  -0.668746  0.031336  2.090033  0.017  -0.596402  0.041841  2.355787  0.024  -0.62621  0.036732  2.339956  0.02  -0.296764  -0.575031  0.046978  2.36727  0.029
O  O35  1  0.61924342  0.36790796  0.25199888  1  -0.668707  0.031359  2.089967  0.017  -0.59642  0.041842  2.355755  0.024  -0.626232  0.036738  2.339923  0.02  -0.29676  -0.575  0.046978  2.367199  0.029
O  O36  1  0.28485114  0.44694330  0.45219872  1  -0.668678  0.052334  2.095515  0.031  -0.589029  0.06733  2.370346  0.042  -0.62168  0.060528  2.353294  0.036  -0.289863  -0.565043  0.074306  2.382286  0.049
O  O37  1  0.21514904  0.55305666  0.95219914  1  -0.668637  0.052312  2.095944  0.031  -0.589003  0.06733  2.370688  0.042  -0.621655  0.060521  2.35365  0.036  -0.289841  -0.565019  0.074304  2.382633  0.049
O  O38  1  0.71514998  0.55305655  0.54780126  1  -0.668652  0.052339  2.095708  0.031  -0.589004  0.067328  2.370499  0.042  -0.621668  0.060527  2.353464  0.036  -0.289859  -0.565017  0.074304  2.382432  0.049
O  O39  1  0.78484729  0.44694324  0.04780084  1  -0.66864  0.052318  2.095816  0.031  -0.588995  0.067327  2.370574  0.042  -0.621643  0.060521  2.35352  0.036  -0.289854  -0.565015  0.074303  2.382524  0.049
O  O40  1  0.14978116  0.26105268  0.69134077  1  -0.709126  0.078836  2.150671  0.051  -0.626773  0.093233  2.454759  0.056  -0.662866  0.083068  2.441358  0.047  -0.349083  -0.598318  0.102568  2.462713  0.065
O  O41  1  0.35021871  0.73894705  0.19134281  1  -0.709081  0.078832  2.150803  0.051  -0.626736  0.093235  2.454873  0.056  -0.662832  0.083069  2.44148  0.047  -0.349063  -0.598285  0.102569  2.462825  0.065
O  O42  1  0.85021996  0.73894717  0.30865813  1  -0.709099  0.078828  2.150758  0.051  -0.62671  0.093233  2.454794  0.056  -0.662795  0.083066  2.441391  0.047  -0.349059  -0.598257  0.102568  2.462745  0.065
O  O43  1  0.64977752  0.26105152  0.80866147  1  -0.709166  0.078825  2.150684  0.051  -0.626812  0.093235  2.454771  0.056  -0.662904  0.08307  2.441369  0.047  -0.349106  -0.598358  0.102571  2.462721  0.065
O  O44  1  0.57395610  0.18600161  0.49861372  1  -0.824026  0.029123  1.970222  0.019  -0.771257  0.037949  2.197452  0.025  -0.793521  0.033685  2.171337  0.021  -0.563546  -0.753995  0.04201  2.214018  0.029
O  O45  1  0.92604501  0.81400025  0.99861458  1  -0.824001  0.029117  1.970229  0.019  -0.771233  0.037948  2.197458  0.025  -0.793502  0.033683  2.171344  0.021  -0.56356  -0.753975  0.04201  2.214013  0.029
O  O46  1  0.42604841  0.81400087  0.50138626  1  -0.82404  0.02913  1.97021  0.019  -0.771282  0.037949  2.197448  0.025  -0.793529  0.033684  2.171297  0.021  -0.563571  -0.754021  0.04201  2.214011  0.029
O  O47  1  0.07395292  0.18599963  0.00138647  1  -0.824063  0.029122  1.970229  0.019  -0.771297  0.037949  2.197448  0.025  -0.793569  0.033685  2.171341  0.021  -0.563587  -0.754039  0.042011  2.214011  0.029
