# generated using pymatgen
data_CdH6(C2O3)2
_symmetry_space_group_name_H-M   'P 1'
_cell_length_a   8.69996940
_cell_length_b   11.62648967
_cell_length_c   14.28500000
_cell_angle_alpha   90.00000000
_cell_angle_beta   90.00000000
_cell_angle_gamma   102.61224911
_symmetry_Int_Tables_number   1
_chemical_formula_structural   CdH6(C2O3)2
_chemical_formula_sum   'Cd8 H48 C32 O48'
_cell_volume   1410.06324738
_cell_formula_units_Z   8
loop_
 _symmetry_equiv_pos_site_id
 _symmetry_equiv_pos_as_xyz
  1  'x, y, z'
loop_
 _atom_site_type_symbol
 _atom_site_label
 _atom_site_symmetry_multiplicity
 _atom_site_fract_x
 _atom_site_fract_y
 _atom_site_fract_z
 _atom_site_occupancy
 _atom_site_hle17_bader_spin_density
 _atom_site_hle17_ddec_charge
 _atom_site_hle17_ddec_spin_density
 _atom_site_hle17_ddec_sum_bond_order
 _atom_site_hle17_magmom
 _atom_site_hse06_10hf_bader_spin_density
 _atom_site_hse06_10hf_ddec_charge
 _atom_site_hse06_10hf_ddec_spin_density
 _atom_site_hse06_10hf_ddec_sum_bond_order
 _atom_site_hse06_10hf_magmom
 _atom_site_hse06_bader_spin_density
 _atom_site_hse06_ddec_charge
 _atom_site_hse06_ddec_spin_density
 _atom_site_hse06_ddec_sum_bond_order
 _atom_site_hse06_magmom
 _atom_site_pbe_bader_charge
 _atom_site_pbe_bader_spin_density
 _atom_site_pbe_cm5_charge
 _atom_site_pbe_ddec_charge
 _atom_site_pbe_ddec_spin_density
 _atom_site_pbe_ddec_sum_bond_order
 _atom_site_pbe_magmom
Cd  Cd0  1  0.26104108  0.62704172  0.28840112  1  0  1.338365  0  1.522492  0  0  1.177023  0  1.962615  0  0  1.229679  0  1.902322  0  1.371394  0  0.78405  1.138869  0  2.004578  0
Cd  Cd1  1  0.73895871  0.87295780  0.78840112  1  0  1.33836  0  1.522506  0  0  1.177015  0  1.962635  0  0  1.229669  0  1.902342  0  1.371394  0  0.78405  1.138859  0  2.004598  0
Cd  Cd2  1  0.73895957  0.37295796  0.71159888  1  0  1.338379  0  1.522481  0  0  1.17705  0  1.962601  0  0  1.229706  0  1.90231  0  1.371396  0  0.78407  1.138895  0  2.004565  0
Cd  Cd3  1  0.26104168  0.12704100  0.21159888  1  0  1.338368  0  1.522479  0  0  1.177036  0  1.962605  0  0  1.22969  0  1.902314  0  1.371398  0  0.784064  1.138881  0  2.004567  0
Cd  Cd4  1  0.65066051  0.84096398  0.11859083  1  0  1.222872  0  1.547463  0  0  1.026637  0  1.992  0  0  1.092537  0  1.92978  0  1.300668  0  0.772126  0.97954  0  2.034729  0
Cd  Cd5  1  0.34933953  0.65903641  0.61859083  1  0  1.222876  0  1.547418  0  0  1.026631  0  1.991958  0  0  1.092532  0  1.929739  0  1.300677  0  0.772128  0.979533  0  2.034685  0
Cd  Cd6  1  0.34933924  0.15903657  0.88140847  1  0  1.222861  0  1.547459  0  0  1.026619  0  1.991999  0  0  1.092521  0  1.929777  0  1.300668  0  0.772123  0.979521  0  2.034729  0
Cd  Cd7  1  0.65066048  0.34096503  0.38140917  1  0  1.222861  0  1.547433  0  0  1.026631  0  1.991977  0  0  1.092534  0  1.929754  0  1.300661  0  0.772123  0.979534  0  2.034702  0
H  H8  1  0.96358116  0.84750288  0.04567798  1  0  0.119973  0  0.966195  0  0  0.126094  0  1.034884  0  0  0.129625  0  1.032293  0  0.08263  0  0.10995  0.123579  0  1.036847  0
H  H9  1  0.03642258  0.65249839  0.54567868  1  0  0.120014  0  0.96619  0  0  0.126186  0  1.034822  0  0  0.129717  0  1.032231  0  0.082595  0  0.11  0.123656  0  1.036801  0
H  H10  1  0.03642089  0.15249767  0.95432272  1  0  0.119972  0  0.966223  0  0  0.126095  0  1.03491  0  0  0.129626  0  1.032319  0  0.082616  0  0.109957  0.123592  0  1.036858  0
H  H11  1  0.96357691  0.34750128  0.45432202  1  0  0.119997  0  0.966191  0  0  0.126166  0  1.034823  0  0  0.129698  0  1.032229  0  0.082583  0  0.109978  0.123635  0  1.036802  0
H  H12  1  0.55126325  0.60107296  0.38193910  1  0  0.444142  0  0.818198  0  0  0.414006  0  0.891088  0  0  0.423476  0  0.87726  0  0.631439  0  0.309358  0.407241  0  0.900969  0
H  H13  1  0.44873653  0.89892655  0.88193910  1  0  0.444143  0  0.818186  0  0  0.414007  0  0.891084  0  0  0.423476  0  0.877258  0  0.631437  0  0.309361  0.407242  0  0.900964  0
H  H14  1  0.44873714  0.39892583  0.61806090  1  0  0.444145  0  0.818173  0  0  0.414014  0  0.89107  0  0  0.423483  0  0.877244  0  0.631438  0  0.309365  0.407249  0  0.900951  0
H  H15  1  0.55126322  0.10107401  0.11806020  1  0  0.44414  0  0.818176  0  0  0.414006  0  0.891082  0  0  0.423476  0  0.877254  0  0.631419  0  0.309352  0.407242  0  0.900962  0
H  H16  1  0.05901074  0.42826495  0.21778649  1  0  0.423497  0  0.888549  0  0  0.390216  0  0.956141  0  0  0.401854  0  0.939559  0  0.656024  0  0.281944  0.382002  0  0.967809  0
H  H17  1  0.94098847  0.07173489  0.71778649  1  0  0.423502  0  0.888538  0  0  0.390221  0  0.95613  0  0  0.401859  0  0.939547  0  0.656026  0  0.281971  0.382006  0  0.967798  0
H  H18  1  0.94098761  0.57173473  0.78221351  1  0  0.423497  0  0.888547  0  0  0.390215  0  0.95614  0  0  0.401854  0  0.939557  0  0.656028  0  0.28197  0.382  0  0.967809  0
H  H19  1  0.05901217  0.92826479  0.28221351  1  0  0.423499  0  0.888543  0  0  0.39022  0  0.956133  0  0  0.401859  0  0.939549  0  0.656029  0  0.28197  0.382005  0  0.967802  0
H  H20  1  0.23254359  0.41074415  0.18530207  1  0  0.43128  0  0.86772  0  0  0.402122  0  0.926593  0  0  0.413225  0  0.910685  0  0.644581  0  0.285785  0.394247  0  0.937851  0
H  H21  1  0.76745702  0.08925657  0.68530207  1  0  0.431251  0  0.867757  0  0  0.402093  0  0.926633  0  0  0.413197  0  0.910723  0  0.644578  0  0.285776  0.394219  0  0.93789  0
H  H22  1  0.76745705  0.58925553  0.81469793  1  0  0.431211  0  0.867795  0  0  0.402052  0  0.926672  0  0  0.413155  0  0.910765  0  0.644585  0  0.285751  0.394179  0  0.937928  0
H  H23  1  0.23254273  0.91074399  0.31469793  1  0  0.431214  0  0.86779  0  0  0.402054  0  0.926671  0  0  0.413158  0  0.910761  0  0.644584  0  0.285751  0.39418  0  0.937927  0
H  H24  1  0.07954211  0.69520528  0.11547427  1  0  0.115732  0  0.960851  0  0  0.125874  0  1.021009  0  0  0.128945  0  1.02056  0  0.073455  0  0.108125  0.123698  0  1.02151  0
H  H25  1  0.92045882  0.80479423  0.61547427  1  0  0.115709  0  0.960863  0  0  0.125847  0  1.02102  0  0  0.128919  0  1.020572  0  0.073447  0  0.108126  0.123672  0  1.021521  0
H  H26  1  0.92045739  0.30479439  0.88452573  1  0  0.115718  0  0.960872  0  0  0.125875  0  1.021007  0  0  0.128949  0  1.020559  0  0.073456  0  0.108125  0.123699  0  1.021511  0
H  H27  1  0.07954182  0.19520545  0.38452503  1  0  0.115713  0  0.960865  0  0  0.12587  0  1.021003  0  0  0.128944  0  1.020556  0  0.07345  0  0.108118  0.123694  0  1.021506  0
H  H28  1  0.84692611  0.84341596  0.43892335  1  0  0.116618  0  0.954247  0  0  0.128101  0  1.012334  0  0  0.130724  0  1.011404  0  0.103222  0  0.10979  0.126262  0  1.013112  0
H  H29  1  0.15307507  0.65658443  0.93892335  1  0  0.116624  0  0.954251  0  0  0.128101  0  1.012336  0  0  0.130724  0  1.011406  0  0.103216  0  0.109781  0.126262  0  1.013113  0
H  H30  1  0.15307479  0.15658460  0.56107665  1  0  0.116594  0  0.95426  0  0  0.128076  0  1.012347  0  0  0.1307  0  1.011416  0  0.103208  0  0.109777  0.126237  0  1.013125  0
H  H31  1  0.84692442  0.34341524  0.06107665  1  0  0.116661  0  0.954299  0  0  0.128171  0  1.012331  0  0  0.130796  0  1.011399  0  0.103214  0  0.109814  0.126332  0  1.013109  0
H  H32  1  0.81940435  0.01751815  0.52567168  1  0  0.132301  0  0.960328  0  0  0.137937  0  1.024684  0  0  0.142283  0  1.022939  0  0.099706  0  0.104886  0.134827  0  1.026098  0
H  H33  1  0.18059601  0.48248168  0.02567168  1  0  0.132302  0  0.960327  0  0  0.137937  0  1.024683  0  0  0.142283  0  1.022938  0  0.099706  0  0.104885  0.134827  0  1.026097  0
H  H34  1  0.18059515  0.98248152  0.47432832  1  0  0.132281  0  0.960358  0  0  0.137916  0  1.024714  0  0  0.142261  0  1.022971  0  0.09969  0  0.104873  0.134806  0  1.026128  0
H  H35  1  0.81940578  0.51751799  0.97432832  1  0  0.132282  0  0.960345  0  0  0.137919  0  1.024699  0  0  0.142265  0  1.022954  0  0.099705  0  0.104872  0.13481  0  1.026112  0
H  H36  1  0.94152439  0.61305169  0.34954708  1  0  0.426699  0  0.875711  0  0  0.394593  0  0.941199  0  0  0.40552  0  0.92551  0  0.648535  0  0.286684  0.386859  0  0.952289  0
H  H37  1  0.05847513  0.88694694  0.84954708  1  0  0.426694  0  0.875717  0  0  0.394589  0  0.941203  0  0  0.405516  0  0.925514  0  0.648539  0  0.286688  0.386855  0  0.952293  0
H  H38  1  0.05847625  0.38694798  0.65045292  1  0  0.426698  0  0.875708  0  0  0.394594  0  0.941193  0  0  0.405521  0  0.925503  0  0.648546  0  0.286692  0.386861  0  0.952282  0
H  H39  1  0.94152410  0.11305186  0.15045362  1  0  0.426704  0  0.875702  0  0  0.394603  0  0.941182  0  0  0.405528  0  0.925495  0  0.648538  0  0.286693  0.386869  0  0.952271  0
H  H40  1  0.93470367  0.66365304  0.25049282  1  0  0.428229  0  0.865479  0  0  0.398443  0  0.928966  0  0  0.407915  0  0.915371  0  0.638241  0  0.292692  0.391703  0  0.938646  0
H  H41  1  0.06529727  0.83634647  0.75049352  1  0  0.428245  0  0.865429  0  0  0.398446  0  0.928967  0  0  0.407921  0  0.915368  0  0.638242  0  0.292686  0.391707  0  0.938646  0
H  H42  1  0.06529672  0.33634576  0.74950718  1  0  0.428213  0  0.865486  0  0  0.398428  0  0.928982  0  0  0.4079  0  0.915388  0  0.638235  0  0.29269  0.391689  0  0.938661  0
H  H43  1  0.93470338  0.16365320  0.24950718  1  0  0.428226  0  0.865457  0  0  0.398441  0  0.928964  0  0  0.407913  0  0.915369  0  0.638244  0  0.292682  0.391702  0  0.938642  0
H  H44  1  0.33293893  0.81769664  0.42221631  1  0  0.436556  0  0.861259  0  0  0.402234  0  0.928403  0  0  0.413957  0  0.91158  0  0.660269  0  0.293656  0.393921  0  0.940299  0
H  H45  1  0.66706085  0.68230288  0.92221631  1  0  0.436553  0  0.861262  0  0  0.40223  0  0.928406  0  0  0.413953  0  0.911583  0  0.660267  0  0.293665  0.393916  0  0.940303  0
H  H46  1  0.66706082  0.18230392  0.57778369  1  0  0.436539  0  0.861284  0  0  0.402216  0  0.92843  0  0  0.413939  0  0.911607  0  0.660271  0  0.293644  0.393905  0  0.940323  0
H  H47  1  0.33293864  0.31769680  0.07778369  1  0  0.436552  0  0.861264  0  0  0.402229  0  0.928408  0  0  0.413952  0  0.911585  0  0.660267  0  0.293665  0.393915  0  0.940304  0
H  H48  1  0.45761071  0.84361603  0.33429471  1  0  0.434184  0  0.865777  0  0  0.398758  0  0.934932  0  0  0.410589  0  0.918027  0  0.638901  0  0.292829  0.390421  0  0.946803  0
H  H49  1  0.54238933  0.65638436  0.83429471  1  0  0.434231  0  0.86572  0  0  0.398796  0  0.934885  0  0  0.410627  0  0.91798  0  0.638904  0  0.292867  0.39046  0  0.946756  0
H  H50  1  0.54238993  0.15638364  0.66570529  1  0  0.434214  0  0.865731  0  0  0.398787  0  0.934887  0  0  0.410618  0  0.917983  0  0.638897  0  0.292849  0.390452  0  0.946757  0
H  H51  1  0.45761183  0.34361708  0.16570529  1  0  0.434205  0  0.865759  0  0  0.398777  0  0.934912  0  0  0.410608  0  0.918008  0  0.638882  0  0.292851  0.39044  0  0.946786  0
H  H52  1  0.59416496  0.60358752  0.27365838  1  0  0.445429  0  0.839635  0  0  0.413781  0  0.903173  0  0  0.423663  0  0.888832  0  0.631429  0  0.300119  0.406768  0  0.913349  0
H  H53  1  0.40583507  0.89641288  0.77365838  1  0  0.445412  0  0.839658  0  0  0.413762  0  0.903199  0  0  0.423644  0  0.888858  0  0.631426  0  0.300112  0.406749  0  0.913373  0
H  H54  1  0.40583479  0.39641304  0.72634092  1  0  0.445421  0  0.839647  0  0  0.413774  0  0.903183  0  0  0.423656  0  0.888842  0  0.631433  0  0.300124  0.406761  0  0.913358  0
H  H55  1  0.59416442  0.10358680  0.22634092  1  0  0.445428  0  0.839642  0  0  0.413781  0  0.903179  0  0  0.423663  0  0.888839  0  0.631437  0  0.300122  0.406768  0  0.913354  0
C  C56  1  0.32652061  0.78378937  0.09276374  1  0  0.685553  0  3.91916  0  0  0.639763  0  4.201271  0  0  0.674761  0  4.196132  0  1.533637  0  0.197046  0.616028  0  4.203871  0
C  C57  1  0.67348007  0.71620927  0.59276234  1  0  0.685478  0  3.919158  0  0  0.639695  0  4.201247  0  0  0.674692  0  4.196112  0  1.533641  0  0.197005  0.61596  0  4.203845  0
C  C58  1  0.67347889  0.21621031  0.90723626  1  0  0.685494  0  3.91927  0  0  0.639706  0  4.201373  0  0  0.674703  0  4.196236  0  1.533654  0  0.197023  0.615971  0  4.203971  0
C  C59  1  0.32651943  0.28379041  0.40723626  1  0  0.685513  0  3.919196  0  0  0.639725  0  4.201292  0  0  0.674724  0  4.196153  0  1.533641  0  0.19702  0.61599  0  4.203892  0
C  C60  1  0.15463439  0.77416037  0.08573469  1  0  -0.2096  0  3.700811  0  0  -0.222827  0  3.951297  0  0  -0.231087  0  3.965152  0  -0.010903  0  -0.098024  -0.217595  0  3.942257  0
C  C61  1  0.84536795  0.72584002  0.58573469  1  0  -0.209495  0  3.700849  0  0  -0.222706  0  3.95132  0  0  -0.230967  0  3.965178  0  -0.010919  0  -0.097991  -0.217475  0  3.942275  0
C  C62  1  0.84536625  0.22583930  0.91426461  1  0  -0.209582  0  3.700863  0  0  -0.222819  0  3.951336  0  0  -0.231083  0  3.965196  0  -0.010886  0  -0.098021  -0.217588  0  3.942299  0
C  C63  1  0.15463206  0.27416142  0.41426461  1  0  -0.209545  0  3.700932  0  0  -0.222777  0  3.951401  0  0  -0.231043  0  3.965263  0  -0.010897  0  -0.098017  -0.217544  0  3.942356  0
C  C64  1  0.09133457  0.85885584  0.04852013  1  0  -0.120792  0  3.611602  0  0  -0.14297  0  3.871804  0  0  -0.142163  0  3.88086  0  -0.021559  0  -0.069832  -0.143707  0  3.866067  0
C  C65  1  0.90866751  0.64114367  0.54852083  1  0  -0.120856  0  3.611694  0  0  -0.143092  0  3.871868  0  0  -0.142283  0  3.880925  0  -0.021546  0  -0.069853  -0.143816  0  3.866137  0
C  C66  1  0.90866607  0.14114383  0.95147987  1  0  -0.120761  0  3.611671  0  0  -0.14294  0  3.871871  0  0  -0.142131  0  3.880933  0  -0.021562  0  -0.069819  -0.143684  0  3.86612  0
C  C67  1  0.09133198  0.35885600  0.45147917  1  0  -0.120804  0  3.61171  0  0  -0.14303  0  3.871872  0  0  -0.142225  0  3.880926  0  -0.021572  0  -0.069823  -0.143756  0  3.866142  0
C  C68  1  0.18193571  0.97143352  0.00730137  1  0  0.715832  0  3.887235  0  0  0.660448  0  4.184345  0  0  0.696059  0  4.17561  0  1.551767  0  0.21597  0.636091  0  4.189569  0
C  C69  1  0.81806663  0.52856688  0.50730137  1  0  0.715768  0  3.887326  0  0  0.66043  0  4.184366  0  0  0.696034  0  4.17564  0  1.551742  0  0.215943  0.636075  0  4.189588  0
C  C70  1  0.81806520  0.02856704  0.99269933  1  0  0.715818  0  3.887236  0  0  0.660443  0  4.184334  0  0  0.696041  0  4.175613  0  1.551763  0  0.215963  0.636086  0  4.189559  0
C  C71  1  0.18193427  0.47143368  0.49269933  1  0  0.715742  0  3.887347  0  0  0.660406  0  4.184375  0  0  0.696022  0  4.175634  0  1.551778  0  0.215939  0.636051  0  4.189597  0
C  C72  1  0.77003743  0.89169753  0.30206650  1  0  0.697369  0  3.890449  0  0  0.64227  0  4.186097  0  0  0.678284  0  4.176261  0  1.586804  0  0.210172  0.61764  0  4.19217  0
C  C73  1  0.22996261  0.60830286  0.80206650  1  0  0.697397  0  3.890336  0  0  0.64222  0  4.186082  0  0  0.678232  0  4.176248  0  1.586803  0  0.210149  0.617597  0  4.192145  0
C  C74  1  0.22996232  0.10830302  0.69793350  1  0  0.697395  0  3.89045  0  0  0.642221  0  4.186194  0  0  0.678234  0  4.176359  0  1.586739  0  0.210156  0.617601  0  4.192254  0
C  C75  1  0.77003803  0.39169681  0.19793350  1  0  0.697389  0  3.890403  0  0  0.642251  0  4.186109  0  0  0.678257  0  4.176285  0  1.586796  0  0.210158  0.617634  0  4.192167  0
C  C76  1  0.80619909  0.91442812  0.40320756  1  0  -0.119829  0  3.626157  0  0  -0.138865  0  3.881377  0  0  -0.139372  0  3.892521  0  -0.12826  0  -0.068981  -0.138712  0  3.874137  0
C  C77  1  0.19379980  0.58557227  0.90320756  1  0  -0.119884  0  3.626147  0  0  -0.138888  0  3.881368  0  0  -0.139393  0  3.89251  0  -0.128261  0  -0.068989  -0.138736  0  3.874126  0
C  C78  1  0.19379951  0.08557243  0.59679174  1  0  -0.1198  0  3.626111  0  0  -0.138817  0  3.881347  0  0  -0.139322  0  3.89249  0  -0.128187  0  -0.068966  -0.138667  0  3.874105  0
C  C79  1  0.80619970  0.41442741  0.09679244  1  0  -0.11995  0  3.626246  0  0  -0.138994  0  3.881471  0  0  -0.139498  0  3.892613  0  -0.128255  0  -0.069018  -0.138845  0  3.87423  0
C  C80  1  0.79350778  0.01140496  0.45078264  1  0  -0.214539  0  3.665709  0  0  -0.229834  0  3.920321  0  0  -0.238787  0  3.934885  0  0.038466  0  -0.099898  -0.224057  0  3.91072  0
C  C81  1  0.20649258  0.48859488  0.95078264  1  0  -0.21454  0  3.66572  0  0  -0.229833  0  3.920317  0  0  -0.238785  0  3.934879  0  0.038467  0  -0.099896  -0.224055  0  3.910714  0
C  C82  1  0.20649172  0.98859472  0.54921666  1  0  -0.21456  0  3.665727  0  0  -0.229854  0  3.920329  0  0  -0.238807  0  3.934892  0  0.038452  0  -0.099918  -0.224076  0  3.910727  0
C  C83  1  0.79350832  0.51140568  0.04921666  1  0  -0.214527  0  3.665722  0  0  -0.229824  0  3.920333  0  0  -0.238777  0  3.934895  0  0.038449  0  -0.099904  -0.224046  0  3.910731  0
C  C84  1  0.74560565  0.11400726  0.40691425  1  0  0.69754  0  3.887589  0  0  0.648115  0  4.175399  0  0  0.683094  0  4.16789  0  1.537889  0  0.208455  0.62442  0  4.179699  0
C  C85  1  0.25439241  0.38599257  0.90691425  1  0  0.697585  0  3.887499  0  0  0.648146  0  4.175318  0  0  0.683126  0  4.167807  0  1.537876  0  0.208482  0.624451  0  4.179618  0
C  C86  1  0.25439154  0.88599241  0.59308575  1  0  0.697516  0  3.887661  0  0  0.648089  0  4.175461  0  0  0.683068  0  4.167953  0  1.537875  0  0.208463  0.624394  0  4.179762  0
C  C87  1  0.74560849  0.61400798  0.09308575  1  0  0.69759  0  3.88758  0  0  0.648172  0  4.175362  0  0  0.683152  0  4.167851  0  1.537879  0  0.208499  0.624476  0  4.179663  0
O  O88  1  0.37869893  0.72209154  0.15475184  1  0  -0.682616  0  2.025181  0  0  -0.605131  0  2.27753  0  0  -0.637952  0  2.265555  0  -1.157536  0  -0.328279  -0.581938  0  2.284846  0
O  O89  1  0.62130200  0.77790797  0.65475184  1  0  -0.682631  0  2.025034  0  0  -0.605159  0  2.277378  0  0  -0.63798  0  2.265404  0  -1.157494  0  -0.328301  -0.581966  0  2.284693  0
O  O90  1  0.62130082  0.27790901  0.84524886  1  0  -0.682585  0  2.025223  0  0  -0.605115  0  2.277589  0  0  -0.637936  0  2.265615  0  -1.157541  0  -0.328256  -0.581922  0  2.284904  0
O  O91  1  0.37869750  0.22209171  0.34524886  1  0  -0.682573  0  2.025168  0  0  -0.605103  0  2.277524  0  0  -0.637924  0  2.265549  0  -1.157506  0  -0.328252  -0.58191  0  2.28484  0
O  O92  1  0.34386136  0.81669011  0.35232552  1  0  -0.851601  0  1.900766  0  0  -0.775453  0  2.090331  0  0  -0.801624  0  2.055042  0  -1.253819  0  -0.564961  -0.756851  0  2.114784  0
O  O93  1  0.65613843  0.68330940  0.85232552  1  0  -0.851635  0  1.900738  0  0  -0.77548  0  2.090326  0  0  -0.801651  0  2.055043  0  -1.253824  0  -0.565003  -0.756877  0  2.11478  0
O  O94  1  0.65613929  0.18330956  0.64767378  1  0  -0.851613  0  1.900756  0  0  -0.775472  0  2.090327  0  0  -0.80164  0  2.055039  0  -1.253821  0  -0.564966  -0.756871  0  2.114779  0
O  O95  1  0.34386248  0.31669115  0.14767448  1  0  -0.851623  0  1.900749  0  0  -0.77547  0  2.09032  0  0  -0.801641  0  2.055036  0  -1.253808  0  -0.564993  -0.756867  0  2.114774  0
O  O96  1  0.50753102  0.58152765  0.31931747  1  0  -0.843603  0  1.834082  0  0  -0.784084  0  2.035818  0  0  -0.805348  0  2.003193  0  -1.212637  0  -0.577496  -0.769008  0  2.058681  0
O  O97  1  0.49246761  0.91847186  0.81931747  1  0  -0.843584  0  1.834084  0  0  -0.784063  0  2.035834  0  0  -0.805326  0  2.00321  0  -1.212633  0  -0.577497  -0.768987  0  2.058698  0
O  O98  1  0.49246847  0.41847202  0.68068253  1  0  -0.843585  0  1.834051  0  0  -0.784081  0  2.035806  0  0  -0.805344  0  2.003182  0  -1.212636  0  -0.577508  -0.769004  0  2.05867  0
O  O99  1  0.50753074  0.08152782  0.18068253  1  0  -0.843585  0  1.834045  0  0  -0.784082  0  2.035812  0  0  -0.805346  0  2.003188  0  -1.212635  0  -0.577495  -0.769005  0  2.058675  0
O  O100  1  0.16719059  0.47011427  0.19648722  1  0  -0.881025  0  1.877574  0  0  -0.81426  0  2.080013  0  0  -0.839567  0  2.044456  0  -1.272034  0  -0.594225  -0.796208  0  2.104671  0
O  O101  1  0.83280862  0.02988557  0.69648792  1  0  -0.881005  0  1.877593  0  0  -0.814245  0  2.080033  0  0  -0.839552  0  2.044475  0  -1.272037  0  -0.594257  -0.796194  0  2.104691  0
O  O102  1  0.83280890  0.52988541  0.80351208  1  0  -0.880967  0  1.877631  0  0  -0.814205  0  2.080075  0  0  -0.839512  0  2.044519  0  -1.272049  0  -0.594241  -0.796154  0  2.104735  0
O  O103  1  0.16719114  0.97011499  0.30351278  1  0  -0.880976  0  1.87762  0  0  -0.814208  0  2.080056  0  0  -0.839515  0  2.044498  0  -1.272048  0  -0.594238  -0.796157  0  2.104714  0
O  O104  1  0.41988139  0.85408850  0.03904515  1  0  -0.627772  0  1.941868  0  0  -0.557434  0  2.170993  0  0  -0.587229  0  2.161194  0  -1.142843  0  -0.315135  -0.536679  0  2.177129  0
O  O105  1  0.58012069  0.64591102  0.53904515  1  0  -0.627695  0  1.941895  0  0  -0.557362  0  2.171036  0  0  -0.587153  0  2.161232  0  -1.142858  0  -0.315093  -0.536608  0  2.177172  0
O  O106  1  0.58011810  0.14591118  0.96095415  1  0  -0.627737  0  1.941876  0  0  -0.557414  0  2.171026  0  0  -0.587208  0  2.161225  0  -1.142839  0  -0.315142  -0.536659  0  2.177162  0
O  O107  1  0.41988021  0.35408954  0.46095485  1  0  -0.627762  0  1.941802  0  0  -0.55744  0  2.170962  0  0  -0.58723  0  2.16115  0  -1.142848  0  -0.315137  -0.536686  0  2.177099  0
O  O108  1  0.22621341  0.06237912  0.05702135  1  0  -0.658477  0  2.020144  0  0  -0.586116  0  2.273799  0  0  -0.618035  0  2.262843  0  -1.169701  0  -0.312325  -0.563384  0  2.280497  0
O  O109  1  0.77378720  0.43762160  0.55702135  1  0  -0.658447  0  2.020138  0  0  -0.586114  0  2.273799  0  0  -0.618036  0  2.262853  0  -1.169653  0  -0.312327  -0.563382  0  2.280494  0
O  O110  1  0.77378698  0.93761967  0.94297935  1  0  -0.658462  0  2.020103  0  0  -0.586114  0  2.273774  0  0  -0.618029  0  2.262822  0  -1.169686  0  -0.31232  -0.563382  0  2.280471  0
O  O111  1  0.22621370  0.56237896  0.44297935  1  0  -0.658416  0  2.020153  0  0  -0.586085  0  2.273813  0  0  -0.618007  0  2.262856  0  -1.169692  0  -0.312307  -0.563354  0  2.280507  0
O  O112  1  0.20051798  0.97346420  0.91826601  1  0  -0.655418  0  2.040364  0  0  -0.574467  0  2.278958  0  0  -0.606981  0  2.267506  0  -1.13553  0  -0.306463  -0.551567  0  2.286043  0
O  O113  1  0.79948206  0.52653619  0.41826601  1  0  -0.655417  0  2.040407  0  0  -0.57449  0  2.278987  0  0  -0.607  0  2.267536  0  -1.135539  0  -0.306478  -0.551582  0  2.286052  0
O  O114  1  0.79948036  0.02653547  0.08173399  1  0  -0.655446  0  2.040384  0  0  -0.574485  0  2.278949  0  0  -0.606989  0  2.267497  0  -1.13555  0  -0.306485  -0.551586  0  2.286036  0
O  O115  1  0.20051769  0.47346436  0.58173399  1  0  -0.655429  0  2.040427  0  0  -0.574492  0  2.278998  0  0  -0.607008  0  2.267544  0  -1.135556  0  -0.306483  -0.551585  0  2.286066  0
O  O116  1  0.88017148  0.88821259  0.24528596  1  0  -0.623186  0  2.015451  0  0  -0.559681  0  2.246493  0  0  -0.589741  0  2.237796  0  -1.165171  0  -0.299366  -0.538396  0  2.251701  0
O  O117  1  0.11982741  0.61178781  0.74528596  1  0  -0.623165  0  2.015324  0  0  -0.559629  0  2.246397  0  0  -0.589687  0  2.237701  0  -1.165182  0  -0.299336  -0.538355  0  2.251621  0
O  O118  1  0.11982827  0.11178797  0.75471334  1  0  -0.623184  0  2.015461  0  0  -0.559647  0  2.24652  0  0  -0.589707  0  2.237824  0  -1.165178  0  -0.299346  -0.538366  0  2.251724  0
O  O119  1  0.88017094  0.38821187  0.25471334  1  0  -0.623183  0  2.015478  0  0  -0.559656  0  2.246536  0  0  -0.589713  0  2.237844  0  -1.165172  0  -0.299368  -0.538375  0  2.251734  0
O  O120  1  0.62549083  0.86922078  0.27642422  1  0  -0.654184  0  2.077934  0  0  -0.574668  0  2.318656  0  0  -0.607668  0  2.307298  0  -1.156763  0  -0.310039  -0.5515  0  2.325769  0
O  O121  1  0.37450806  0.63077962  0.77642492  1  0  -0.654221  0  2.077998  0  0  -0.574658  0  2.31873  0  0  -0.607657  0  2.307375  0  -1.156748  0  -0.310043  -0.551491  0  2.325839  0
O  O122  1  0.37450777  0.13077978  0.72357508  1  0  -0.654216  0  2.078021  0  0  -0.574649  0  2.318748  0  0  -0.60765  0  2.307392  0  -1.156747  0  -0.310036  -0.551484  0  2.325855  0
O  O123  1  0.62549144  0.36922006  0.22357508  1  0  -0.654172  0  2.077901  0  0  -0.574648  0  2.318642  0  0  -0.607645  0  2.307288  0  -1.156749  0  -0.310032  -0.551483  0  2.32575  0
O  O124  1  0.74879265  0.12868299  0.31909625  1  0  -0.655747  0  1.991647  0  0  -0.589743  0  2.210033  0  0  -0.614865  0  2.199509  0  -1.187049  0  -0.309798  -0.572315  0  2.216882  0
O  O125  1  0.25120452  0.37131773  0.81909625  1  0  -0.655748  0  1.991625  0  0  -0.589736  0  2.210018  0  0  -0.614859  0  2.199495  0  -1.187047  0  -0.309811  -0.572308  0  2.216867  0
O  O126  1  0.25120366  0.87131756  0.68090375  1  0  -0.655745  0  1.991696  0  0  -0.589737  0  2.210087  0  0  -0.61486  0  2.199564  0  -1.187047  0  -0.309819  -0.572307  0  2.216936  0
O  O127  1  0.74879638  0.62868283  0.18090375  1  0  -0.655758  0  1.991674  0  0  -0.589759  0  2.210058  0  0  -0.614883  0  2.199535  0  -1.187046  0  -0.309827  -0.57233  0  2.216908  0
O  O128  1  0.70562317  0.18916628  0.46372769  1  0  -0.662947  0  2.04634  0  0  -0.579772  0  2.287027  0  0  -0.612105  0  2.27377  0  -1.157521  0  -0.31534  -0.557158  0  2.295326  0
O  O129  1  0.29437719  0.31083355  0.96372769  1  0  -0.662961  0  2.04631  0  0  -0.579784  0  2.286997  0  0  -0.612117  0  2.27374  0  -1.157516  0  -0.315342  -0.557171  0  2.295304  0
O  O130  1  0.29437658  0.81083427  0.53627301  1  0  -0.66291  0  2.046363  0  0  -0.579739  0  2.287051  0  0  -0.612071  0  2.273794  0  -1.157506  0  -0.315317  -0.557125  0  2.295352  0
O  O131  1  0.70562346  0.68916612  0.03627231  1  0  -0.662944  0  2.046343  0  0  -0.579775  0  2.287021  0  0  -0.612107  0  2.273765  0  -1.157514  0  -0.31533  -0.557163  0  2.295329  0
O  O132  1  0.00843127  0.66548806  0.30327196  1  0  -0.850845  0  1.837841  0  0  -0.791104  0  2.0287  0  0  -0.813664  0  1.996477  0  -1.257707  0  -0.593458  -0.77504  0  2.05106  0
O  O133  1  0.99156877  0.83451234  0.80327196  1  0  -0.85085  0  1.837795  0  0  -0.791109  0  2.028661  0  0  -0.813668  0  1.996437  0  -1.257714  0  -0.593456  -0.775043  0  2.051022  0
O  O134  1  0.99156963  0.33451250  0.69672874  1  0  -0.850826  0  1.837855  0  0  -0.791092  0  2.028721  0  0  -0.813655  0  1.996507  0  -1.257703  0  -0.593465  -0.775028  0  2.05108  0
O  O135  1  0.00843187  0.16548734  0.19672804  1  0  -0.850831  0  1.8378  0  0  -0.791114  0  2.028684  0  0  -0.813674  0  1.996466  0  -1.257704  0  -0.593456  -0.77505  0  2.051043  0
