# generated using pymatgen
data_MnH16(C11O4)2
_symmetry_space_group_name_H-M   'P 1'
_cell_length_a   13.05894495
_cell_length_b   16.08195620
_cell_length_c   16.43437770
_cell_angle_alpha   108.84321931
_cell_angle_beta   102.09655673
_cell_angle_gamma   106.29233139
_symmetry_Int_Tables_number   1
_chemical_formula_structural   MnH16(C11O4)2
_chemical_formula_sum   'Mn3 H48 C66 O24'
_cell_volume   2959.17683111
_cell_formula_units_Z   3
loop_
 _symmetry_equiv_pos_site_id
 _symmetry_equiv_pos_as_xyz
  1  'x, y, z'
loop_
 _atom_site_type_symbol
 _atom_site_label
 _atom_site_symmetry_multiplicity
 _atom_site_fract_x
 _atom_site_fract_y
 _atom_site_fract_z
 _atom_site_occupancy
 _atom_site_pbe_bader_charge
 _atom_site_pbe_bader_spin_density
 _atom_site_pbe_cm5_charge
 _atom_site_pbe_ddec_charge
 _atom_site_pbe_ddec_spin_density
 _atom_site_pbe_ddec_sum_bond_order
 _atom_site_pbe_magmom
Mn  Mn0  1  0.19751419  0.37237194  0.40686511  1  1.70138  3.796194  0.777223  1.163421  3.91515  2.704302  3.766
Mn  Mn1  1  0.80248972  0.62763006  0.59313172  1  1.701334  3.796135  0.777261  1.163483  3.915084  2.704268  3.766
Mn  Mn2  1  0.49999554  0.50000700  0.50000557  1  1.644726  4.331993  0.676975  1.150502  4.430413  2.464339  4.295
H  H3  1  0.31795320  0.11743960  0.87409679  1  0.045937  6.8e-05  0.105278  0.079074  3.9e-05  0.971632  0.0
H  H4  1  0.45278988  0.20217851  0.95334212  1  0.099012  1.1e-05  0.107016  0.076979  6e-06  0.995846  0.0
H  H5  1  0.54554251  0.34658705  0.25564087  1  0.090338  0.000147  0.108614  0.11256  -0.000168  1.000724  0.0
H  H6  1  0.55604729  0.23827355  0.11165323  1  0.079121  -5.1e-05  0.103155  0.118209  -6e-05  1.019553  0.0
H  H7  1  0.20108498  0.07220195  0.02947569  1  0.08239  1.8e-05  0.10612  0.121343  -2.1e-05  0.990474  0.0
H  H8  1  0.55594587  0.23287326  0.71922057  1  0.049002  -0.000102  0.106059  0.117927  -0.000109  1.013851  0.0
H  H9  1  0.17821686  0.62832286  0.62708182  1  0.083873  0.000241  0.111294  0.115957  -7.6e-05  0.984673  0.0
H  H10  1  0.53575573  0.33075000  0.63186660  1  0.095919  0.000166  0.114345  0.121234  -0.000212  0.981782  0.0
H  H11  1  0.61602537  0.04864162  0.87947751  1  0.064258  8.3e-05  0.108982  0.086273  4.8e-05  0.969323  0.0
H  H12  1  0.55520009  0.05291630  0.96798231  1  0.061469  5.9e-05  0.104123  0.07223  3.7e-05  1.019356  0.0
H  H13  1  0.52975075  0.09227052  0.75344944  1  0.075196  0.000114  0.10949  0.083634  6.7e-05  0.970279  0.0
H  H14  1  0.53321874  0.20027348  0.83406909  1  0.059206  0.000115  0.107098  0.078144  6.5e-05  0.990066  0.0
H  H15  1  0.24911791  0.79742706  0.73311699  1  0.071953  0.000126  0.098119  0.107464  3.5e-05  1.062683  0.0
H  H16  1  0.72111125  0.06788137  0.03184101  1  0.102243  -5.1e-05  0.100452  0.108435  -7e-05  1.078133  0.0
H  H17  1  0.45860066  0.68637907  0.52751355  1  0.133998  0.000523  0.108466  0.110396  -9.8e-05  1.044644  0.0
H  H18  1  0.53114458  0.85719746  0.63398759  1  0.081934  -7.1e-05  0.10966  0.124541  -0.000107  0.980848  0.0
H  H19  1  0.88681436  0.12777449  0.17016612  1  0.064503  0.000415  0.108054  0.110091  0.000172  0.987453  0.0
H  H20  1  0.30289984  0.96083340  0.76502996  1  0.071989  0.000167  0.110493  0.085236  0.000109  0.968745  0.0
H  H21  1  0.37745917  0.93477451  0.85216351  1  0.07105  0.000142  0.102766  0.074055  7.6e-05  1.006905  0.0
H  H22  1  0.19184863  0.18097855  0.17511638  1  0.086323  0.00032  0.109393  0.114441  -1.3e-05  0.992623  0.0
H  H23  1  0.76997537  0.35660106  0.06846909  1  0.077839  2.8e-05  0.110973  0.126589  -1e-06  0.981521  0.0
H  H24  1  0.94188527  0.41512771  0.20488061  1  0.124674  1e-05  0.113606  0.118299  -0.000197  0.977437  0.0
H  H25  1  0.19251895  0.10473963  0.63989146  1  0.08182  -3e-05  0.109949  0.124968  -4.8e-05  0.984922  0.0
H  H26  1  0.17393485  0.20312884  0.55044983  1  0.108704  9e-06  0.113548  0.118734  -0.000327  0.984293  0.0
H  H27  1  0.68205670  0.88256738  0.12591480  1  0.045762  6.8e-05  0.105177  0.078917  3.9e-05  0.971655  0.0
H  H28  1  0.54722259  0.79781998  0.04666118  1  0.099143  1.1e-05  0.106941  0.07685  6e-06  0.995764  0.0
H  H29  1  0.45446583  0.65341992  0.74437045  1  0.090584  0.000147  0.108582  0.112527  -0.000168  1.000915  0.0
H  H30  1  0.44396699  0.76173274  0.88836073  1  0.0792  -5.1e-05  0.10315  0.118175  -6e-05  1.019473  0.0
H  H31  1  0.79892785  0.92780433  0.97052767  1  0.082373  1.8e-05  0.106174  0.121387  -2.1e-05  0.990462  0.0
H  H32  1  0.44404675  0.76711737  0.28076953  1  0.048969  -0.000102  0.106085  0.118008  -0.000109  1.013722  0.0
H  H33  1  0.82177688  0.37167415  0.37292264  1  0.084066  0.000241  0.111269  0.115954  -7.7e-05  0.984735  0.0
H  H34  1  0.46423591  0.66924204  0.36812681  1  0.095849  0.000166  0.114306  0.121209  -0.000212  0.98174  0.0
H  H35  1  0.38397810  0.95135754  0.12051592  1  0.064408  8.3e-05  0.108985  0.086218  4.8e-05  0.969362  0.0
H  H36  1  0.44480948  0.94708430  0.03201445  1  0.064638  5.8e-05  0.104134  0.072182  3.7e-05  1.019276  0.0
H  H37  1  0.47024796  0.90772863  0.24654803  1  0.075206  0.000115  0.109486  0.083669  6.7e-05  0.970222  0.0
H  H38  1  0.46677667  0.79972353  0.16592653  1  0.059182  0.000115  0.107108  0.077256  6.5e-05  0.990753  0.0
H  H39  1  0.75088054  0.20256996  0.26688890  1  0.07195  0.000126  0.098153  0.107469  3.5e-05  1.062636  0.0
H  H40  1  0.27889149  0.93212345  0.96816380  1  0.102174  -5.1e-05  0.100407  0.108274  -7e-05  1.07805  0.0
H  H41  1  0.54138579  0.31361720  0.47248211  1  0.135608  0.000523  0.108456  0.110361  -9.8e-05  1.044707  0.0
H  H42  1  0.46884717  0.14279671  0.36601077  1  0.081953  -7.1e-05  0.109644  0.124554  -0.000107  0.980848  0.0
H  H43  1  0.11318158  0.87223103  0.82984260  1  0.064537  0.000415  0.108041  0.110066  0.000172  0.98753  0.0
H  H44  1  0.69709847  0.03916504  0.23497453  1  0.071955  0.000167  0.11051  0.085192  0.000109  0.968829  0.0
H  H45  1  0.62254431  0.06522678  0.14784398  1  0.071323  0.000142  0.102734  0.074048  7.6e-05  1.006964  0.0
H  H46  1  0.80815684  0.81902699  0.82488426  1  0.086233  0.00032  0.109378  0.114424  -1.3e-05  0.992695  0.0
H  H47  1  0.23003319  0.64339529  0.93151826  1  0.076958  2.8e-05  0.110935  0.126507  -1e-06  0.981495  0.0
H  H48  1  0.05811731  0.58487640  0.79510995  1  0.124672  1e-05  0.113599  0.118292  -0.000197  0.977335  0.0
H  H49  1  0.80747112  0.89524887  0.36010058  1  0.081911  -3e-05  0.110018  0.125011  -4.8e-05  0.984973  0.0
H  H50  1  0.82605618  0.79686179  0.44954121  1  0.108568  9e-06  0.113579  0.118777  -0.000327  0.984292  0.0
C  C51  1  0.36325602  0.33469087  0.31061072  1  1.576005  0.017555  0.239848  0.607912  0.016815  4.133286  0.016
C  C52  1  0.40020031  0.12605220  0.91751369  1  0.391425  0.000212  -0.06209  -0.020207  0.000224  3.850218  0.0
C  C53  1  0.47031696  0.28696072  0.20534564  1  -0.061604  0.003868  -0.075818  -0.056376  0.002821  3.969623  0.002
C  C54  1  0.47612856  0.22665310  0.12526125  1  -0.000554  -0.001019  -0.10376  -0.207493  -0.001079  3.989123  -0.001
C  C55  1  0.37844256  0.14956130  0.06253483  1  0.408662  0.004176  0.080136  0.258575  0.003382  4.054895  0.003
C  C56  1  0.27588890  0.13237831  0.07982534  1  -0.036986  -0.00103  -0.105097  -0.20879  -0.001109  4.012304  -0.001
C  C57  1  0.47204348  0.22640836  0.68338001  1  0.024063  -0.000725  -0.114172  -0.236715  -0.000779  4.019958  -0.001
C  C58  1  0.37448975  0.16409181  0.68634428  1  0.437757  0.004643  0.08988  0.27319  0.003709  4.058594  0.003
C  C59  1  0.73493617  0.20949704  0.04217355  1  0.42974  0.003102  0.086583  0.267073  0.002482  4.062717  0.002
C  C60  1  0.31446946  0.64656229  0.57142317  1  -0.035001  -0.003846  -0.028559  -0.077383  -0.005517  4.024219  -0.004
C  C61  1  0.25552387  0.67869017  0.62894093  1  -0.061586  0.00732  -0.07157  -0.049075  0.005567  3.959949  0.005
C  C62  1  0.46033175  0.07616748  0.85924648  1  0.080354  -1e-06  -0.020684  0.043358  -1.8e-05  3.830248  0.0
C  C63  1  0.46090460  0.28096828  0.63381919  1  -0.058469  0.004736  -0.075832  -0.052626  0.003478  3.98058  0.003
C  C64  1  0.57257109  0.08535352  0.92027837  1  0.416952  1.3e-05  -0.062652  -0.026331  2.5e-05  3.849172  0.0
C  C65  1  0.48296748  0.12407538  0.79436919  1  0.408807  -3e-05  -0.060074  -0.024748  -1.1e-05  3.855023  0.0
C  C66  1  0.29550652  0.77383434  0.68848503  1  0.030438  -0.000785  -0.111018  -0.228786  -0.000837  3.996564  -0.001
C  C67  1  0.76775590  0.14391374  0.06919309  1  -0.01636  -0.000678  -0.116507  -0.241533  -0.00073  4.025644  -0.001
C  C68  1  0.39558399  0.83726441  0.69010564  1  0.469111  0.005747  0.09239  0.27553  0.004605  4.05435  0.004
C  C69  1  0.41357006  0.71163688  0.57271677  1  -0.005144  0.005471  -0.077051  -0.06087  0.003997  3.979674  0.003
C  C70  1  0.45395636  0.80610326  0.63144959  1  -0.048148  -0.001307  -0.102907  -0.203416  -0.001421  3.99723  -0.001
C  C71  1  0.86114699  0.17731903  0.14672653  1  -0.065407  0.003506  -0.081101  -0.066715  0.002636  3.99817  0.002
C  C72  1  0.02158855  0.30633697  0.27817484  1  1.48589  0.012813  0.206851  0.551005  0.01433  4.178996  0.011
C  C73  1  0.92419653  0.27459417  0.19595771  1  -0.005784  -0.002378  -0.026583  -0.060648  -0.003533  4.018918  -0.003
C  C74  1  0.36792696  0.27054109  0.22358113  1  0.018725  -0.003513  -0.021396  -0.059139  -0.004605  3.977723  -0.004
C  C75  1  0.27742329  0.54625167  0.51098048  1  1.474189  0.025188  0.223208  0.580715  0.02538  4.125444  0.022
C  C76  1  0.34482406  0.33391980  0.53590855  1  1.506648  0.021135  0.242345  0.606137  0.019771  4.140849  0.022
C  C77  1  0.35394591  0.27365782  0.58650436  1  -0.00041  -0.006735  -0.03007  -0.078946  -0.008672  4.02064  -0.007
C  C78  1  0.38728029  0.97038125  0.80559466  1  0.389767  -2.2e-05  -0.059659  -0.019946  3e-06  3.84053  0.0
C  C79  1  0.27096556  0.19280107  0.16037548  1  -0.016291  0.005109  -0.078174  -0.063311  0.003933  3.98022  0.003
C  C80  1  0.79758702  0.30736320  0.09106521  1  0.020538  -0.000618  -0.102558  -0.207774  -0.000615  3.997217  0.0
C  C81  1  0.89241442  0.33944120  0.16667299  1  -0.056885  0.003373  -0.074331  -0.062096  0.002408  3.978203  0.002
C  C82  1  0.26674988  0.15463293  0.63733860  1  -0.039142  -0.000901  -0.10369  -0.208725  -0.000926  4.004008  -0.001
C  C83  1  0.25685828  0.20909893  0.58803536  1  -0.004533  0.004439  -0.078808  -0.064502  0.003313  3.997287  0.003
C  C84  1  0.63674390  0.66531465  0.68939321  1  1.575756  0.017559  0.239873  0.608023  0.016815  4.133202  0.016
C  C85  1  0.59980946  0.87395266  0.08249539  1  0.391412  0.000212  -0.061824  -0.019739  0.000224  3.849547  0.0
C  C86  1  0.52969125  0.71304413  0.79466256  1  -0.062233  0.003869  -0.075763  -0.056262  0.002821  3.969857  0.002
C  C87  1  0.52388513  0.77335177  0.87474851  1  0.000521  -0.001019  -0.103721  -0.207418  -0.001079  3.989232  -0.001
C  C88  1  0.62157427  0.85044357  0.93747488  1  0.407964  0.004177  0.080178  0.258519  0.003382  4.055053  0.003
C  C89  1  0.72412391  0.86762797  0.92017923  1  -0.037517  -0.00103  -0.105265  -0.208956  -0.001109  4.012367  -0.001
C  C90  1  0.52794992  0.77358227  0.31661084  1  0.024129  -0.000725  -0.11418  -0.236684  -0.000779  4.019899  -0.001
C  C91  1  0.62550819  0.83590026  0.31364840  1  0.438112  0.004644  0.089955  0.2733  0.00371  4.058565  0.003
C  C92  1  0.26506872  0.79050354  0.95782057  1  0.429566  0.003102  0.08651  0.266899  0.002482  4.062782  0.002
C  C93  1  0.68551898  0.35343683  0.42857920  1  -0.035431  -0.003845  -0.028649  -0.077489  -0.005517  4.02435  -0.004
C  C94  1  0.74446800  0.32130966  0.37106347  1  -0.061223  0.00732  -0.071545  -0.049109  0.005567  3.959744  0.005
C  C95  1  0.53966724  0.92383237  0.14075369  1  0.080265  -1e-06  -0.020729  0.043386  -1.8e-05  3.829967  0.0
C  C96  1  0.53909254  0.71902378  0.36617458  1  -0.058552  0.004737  -0.07582  -0.052669  0.003479  3.980617  0.003
C  C97  1  0.42743455  0.91464707  0.07971832  1  0.413624  1.2e-05  -0.062651  -0.026163  2.4e-05  3.848838  0.0
C  C98  1  0.51702855  0.87592305  0.20562942  1  0.408764  -3e-05  -0.060066  -0.02403  -1.2e-05  3.854548  0.0
C  C99  1  0.70449018  0.22616409  0.31152282  1  0.030887  -0.000785  -0.110931  -0.228589  -0.000837  3.996545  -0.001
C  C100  1  0.23224188  0.85608682  0.93080345  1  -0.016092  -0.000679  -0.116385  -0.241097  -0.00073  4.025188  -0.001
C  C101  1  0.60441262  0.16273544  0.30989655  1  0.468879  0.005747  0.092342  0.275439  0.004605  4.05465  0.004
C  C102  1  0.58641668  0.28836010  0.42728099  1  -0.006984  0.005471  -0.076969  -0.060734  0.003996  3.979795  0.003
C  C103  1  0.54603882  0.19389163  0.36855202  1  -0.048195  -0.001307  -0.102883  -0.203409  -0.001421  3.997293  -0.001
C  C104  1  0.13884511  0.82268293  0.85327310  1  -0.0656  0.003506  -0.081119  -0.066783  0.002636  3.998126  0.002
C  C105  1  0.97840384  0.69366570  0.72182750  1  1.485772  0.012813  0.206954  0.5513  0.01433  4.178938  0.011
C  C106  1  0.07580080  0.72540710  0.80403836  1  -0.005808  -0.002379  -0.026473  -0.060523  -0.003534  4.019031  -0.003
C  C107  1  0.63208238  0.72946447  0.77642445  1  0.018765  -0.00351  -0.02138  -0.059219  -0.004601  3.977795  -0.004
C  C108  1  0.72255779  0.45374671  0.48901917  1  1.474459  0.025184  0.223184  0.580659  0.025378  4.125537  0.022
C  C109  1  0.65517263  0.66608005  0.46408696  1  1.506496  0.021139  0.242353  0.606066  0.019773  4.141038  0.022
C  C110  1  0.64605551  0.72633850  0.41348905  1  -0.00053  -0.006733  -0.029982  -0.078916  -0.008671  4.020694  -0.007
C  C111  1  0.61272057  0.02961578  0.19440618  1  0.389518  -2.2e-05  -0.059623  -0.019819  3e-06  3.840753  0.0
C  C112  1  0.72904538  0.80720450  0.83962794  1  -0.01612  0.00511  -0.07814  -0.063171  0.003934  3.980218  0.003
C  C113  1  0.20241667  0.69263809  0.90892406  1  0.021636  -0.000619  -0.102562  -0.207708  -0.000615  3.997185  0.0
C  C114  1  0.10758548  0.66056220  0.83331810  1  -0.056856  0.003373  -0.074407  -0.062221  0.002408  3.978339  0.002
C  C115  1  0.73324759  0.84535984  0.36265423  1  -0.04008  -0.000901  -0.10377  -0.208829  -0.000926  4.004038  -0.001
C  C116  1  0.74313877  0.79089455  0.41195396  1  -0.003994  0.004439  -0.078866  -0.06449  0.003314  3.997393  0.003
O  O117  1  0.45033428  0.40782513  0.36256919  1  -1.186406  0.055733  -0.290026  -0.540538  0.039759  2.323461  0.025
O  O118  1  0.64204152  0.18439207  0.96961583  1  -1.08862  0.001344  -0.179732  -0.204304  0.000968  2.56215  0.001
O  O119  1  0.38209564  0.08666991  0.98316183  1  -1.098109  0.000926  -0.204056  -0.245814  0.000586  2.528747  0.001
O  O120  1  0.44401335  0.93115583  0.74674977  1  -1.088442  0.00248  -0.176924  -0.200769  0.001786  2.578827  0.002
O  O121  1  0.37581737  0.11040564  0.73576452  1  -1.072105  0.002359  -0.175913  -0.198288  0.00173  2.557435  0.002
O  O122  1  0.18334766  0.48371884  0.50095464  1  -1.109781  0.034144  -0.29181  -0.498171  0.018759  2.144666  0.006
O  O123  1  0.26896701  0.30830819  0.32583274  1  -1.150386  0.063622  -0.304294  -0.547729  0.043838  2.347041  0.03
O  O124  1  0.33932049  0.51794082  0.46521898  1  -1.19994  0.119062  -0.300539  -0.58917  0.09265  2.360513  0.07
O  O125  1  0.43448326  0.38808743  0.53365070  1  -1.187249  0.056349  -0.28818  -0.547531  0.040425  2.400274  0.022
O  O126  1  0.02965364  0.25458863  0.32153468  1  -1.147162  0.067466  -0.302604  -0.526237  0.050153  2.087836  0.045
O  O127  1  0.10243697  0.38903899  0.30693926  1  -1.10223  -0.001173  -0.3064  -0.507348  -0.015855  2.147192  -0.024
O  O128  1  0.24399590  0.32666152  0.49682955  1  -1.112841  0.024229  -0.299384  -0.516997  0.006682  2.333414  -0.01
O  O129  1  0.54965781  0.59218745  0.63743620  1  -1.186239  0.055763  -0.290091  -0.540616  0.039771  2.323517  0.025
O  O130  1  0.35796678  0.81560570  0.03038105  1  -1.088545  0.001343  -0.179712  -0.20433  0.000968  2.56176  0.001
O  O131  1  0.61792061  0.91334064  0.01684651  1  -1.097806  0.000926  -0.204115  -0.245961  0.000586  2.528489  0.001
O  O132  1  0.55598734  0.06883908  0.25325098  1  -1.088489  0.00248  -0.176978  -0.200899  0.001785  2.578923  0.002
O  O133  1  0.62418195  0.88959138  0.26423361  1  -1.07182  0.00236  -0.175957  -0.198271  0.001731  2.557096  0.002
O  O134  1  0.81664408  0.51627887  0.49904664  1  -1.109823  0.034145  -0.291919  -0.498279  0.018758  2.144459  0.006
O  O135  1  0.73102822  0.69168315  0.67416290  1  -1.15019  0.063637  -0.304281  -0.547775  0.043862  2.347183  0.03
O  O136  1  0.66066997  0.48206255  0.53477351  1  -1.200178  0.11904  -0.30048  -0.589057  0.092629  2.360813  0.07
O  O137  1  0.56551943  0.61191740  0.46635837  1  -1.186915  0.056345  -0.288153  -0.547493  0.040439  2.40046  0.022
O  O138  1  0.97033322  0.74542110  0.67847317  1  -1.147197  0.067472  -0.302745  -0.526471  0.050162  2.087713  0.045
O  O139  1  0.89757234  0.61096444  0.69305409  1  -1.102224  -0.001166  -0.306327  -0.507355  -0.01586  2.147467  -0.024
O  O140  1  0.75599747  0.67333265  0.50316543  1  -1.112796  0.024232  -0.299474  -0.517054  0.006689  2.333544  -0.01
