# generated using pymatgen
data_AlH4C8ClO5
_symmetry_space_group_name_H-M   'P 1'
_cell_length_a   6.64599233
_cell_length_b   13.75070181
_cell_length_c   16.18726692
_cell_angle_alpha   90.01264921
_cell_angle_beta   90.47478688
_cell_angle_gamma   90.52136944
_symmetry_Int_Tables_number   1
_chemical_formula_structural   AlH4C8ClO5
_chemical_formula_sum   'Al4 H16 C32 Cl4 O20'
_cell_volume   1479.19461649
_cell_formula_units_Z   4
loop_
 _symmetry_equiv_pos_site_id
 _symmetry_equiv_pos_as_xyz
  1  'x, y, z'
loop_
 _atom_site_type_symbol
 _atom_site_label
 _atom_site_symmetry_multiplicity
 _atom_site_fract_x
 _atom_site_fract_y
 _atom_site_fract_z
 _atom_site_occupancy
 _atom_site_pbe_bader_charge
 _atom_site_pbe_bader_spin_density
 _atom_site_pbe_cm5_charge
 _atom_site_pbe_ddec_charge
 _atom_site_pbe_ddec_spin_density
 _atom_site_pbe_ddec_sum_bond_order
 _atom_site_pbe_magmom
Al  Al0  1  0.99730923  0.00021512  0.50286881  1  2.499361  0  0.393693  1.644304  0  2.570535  0
Al  Al1  1  0.49673490  0.00320910  0.50048355  1  2.497458  0  0.390994  1.651033  0  2.564287  0
Al  Al2  1  0.00496166  0.50373905  0.99884993  1  2.501195  0  0.399923  1.638843  0  2.579439  0
Al  Al3  1  0.50470297  0.50058966  0.99952129  1  2.503319  0  0.399416  1.640233  0  2.582513  0
H  H4  1  0.25142848  0.87970228  0.53041469  1  0.634366  0  0.334737  0.412324  0  0.896747  0
H  H5  1  0.75550636  0.12082324  0.46769789  1  0.633088  0  0.350262  0.426707  0  0.860942  0
H  H6  1  0.26212636  0.62331245  0.03144557  1  0.639363  0  0.351939  0.429638  0  0.856617  0
H  H7  1  0.75885447  0.38199406  0.03509904  1  0.600796  0  0.352571  0.430853  0  0.854591  0
H  H8  1  0.03833713  0.73840082  0.83926366  1  0.113734  0  0.115041  0.124007  0  0.983855  0
H  H9  1  0.45235813  0.62959934  0.76977142  1  0.120079  0  0.115964  0.134663  0  0.988804  0
H  H10  1  0.02768381  0.85366873  0.71887135  1  0.117278  0  0.111491  0.117715  0  0.993059  0
H  H11  1  0.55003154  0.35796214  0.23049767  1  0.095234  0  0.111378  0.119027  0  0.988933  0
H  H12  1  0.96257370  0.26080479  0.15102129  1  0.105442  0  0.110543  0.125413  0  0.998888  0
H  H13  1  0.53669023  0.23897440  0.34721846  1  0.091079  0  0.107543  0.109757  0  1.002309  0
H  H14  1  0.94347624  0.34777345  0.77855289  1  0.08501  0  0.112461  0.121436  0  0.988128  0
H  H15  1  0.53824148  0.26143433  0.85318551  1  0.115013  0  0.113457  0.13203  0  0.992397  0
H  H16  1  0.95382571  0.22684444  0.66235156  1  0.114284  0  0.108605  0.115344  0  1.001554  0
H  H17  1  0.05463933  0.65594574  0.22539007  1  0.077235  0  0.1095  0.116864  0  0.992091  0
H  H18  1  0.46924166  0.74907590  0.14404532  1  0.091472  0  0.109176  0.123075  0  1.002196  0
H  H19  1  0.03885790  0.77445154  0.34282552  1  0.118652  0  0.110731  0.119505  0  0.993981  0
C  C20  1  0.74777429  0.89063318  0.38559565  1  1.597451  0  0.261228  0.640967  0  4.114872  0
C  C21  1  0.73822454  0.88117492  0.60986520  1  1.600384  0  0.26963  0.655375  0  4.089481  0
C  C22  1  0.24663555  0.11275352  0.61721791  1  1.580188  0  0.264908  0.648032  0  4.099363  0
C  C23  1  0.24836787  0.11738739  0.38900675  1  1.590193  0  0.270395  0.657916  0  4.084364  0
C  C24  1  0.76605066  0.62327732  0.10850424  1  1.568121  0  0.268476  0.644141  0  4.08823  0
C  C25  1  0.74420073  0.61139680  0.88450486  1  1.581914  0  0.272628  0.639173  0  4.093603  0
C  C26  1  0.24084546  0.38479479  0.89040007  1  1.579485  0  0.271051  0.639328  0  4.094178  0
C  C27  1  0.26159573  0.38729941  0.11346903  1  1.565316  0  0.269429  0.643615  0  4.088172  0
C  C28  1  0.73547092  0.80724225  0.67741776  1  -0.004984  0  -0.011046  -0.096549  0  3.935105  0
C  C29  1  0.74447209  0.67858063  0.81211127  1  -0.02333  0  -0.00618  -0.014502  0  3.966659  0
C  C30  1  0.57399561  0.74230128  0.69139557  1  0.028521  0  0.024545  0.138681  0  4.005549  0
C  C31  1  0.90869744  0.74059236  0.79772562  1  -0.033484  0  -0.078892  -0.096598  0  3.966684  0
C  C32  1  0.57786776  0.67922979  0.75872106  1  0.033812  0  -0.082476  -0.161927  0  3.945185  0
C  C33  1  0.90257237  0.80414629  0.73108956  1  0.001532  0  -0.076727  -0.080726  0  3.982522  0
C  C34  1  0.24305185  0.18434309  0.31619291  1  0.013412  0  -0.011831  -0.096233  0  3.926475  0
C  C35  1  0.25554197  0.31766081  0.18434087  1  0.051654  0  -0.00856  -0.014666  0  3.965731  0
C  C36  1  0.08111579  0.19035821  0.25961985  1  0.069239  0  0.023282  0.134248  0  4.018906  0
C  C37  1  0.41885847  0.31123909  0.23929206  1  -0.012237  0  -0.082857  -0.101528  0  3.976625  0
C  C38  1  0.08757750  0.25708128  0.19473701  1  -0.011889  0  -0.086375  -0.165001  0  3.957638  0
C  C39  1  0.41097138  0.24533326  0.30410466  1  -0.047581  0  -0.077702  -0.074816  0  3.98767  0
C  C40  1  0.25107142  0.17816740  0.69118938  1  -0.001705  0  -0.011066  -0.089548  0  3.919155  0
C  C41  1  0.24247442  0.31312058  0.82134308  1  -0.018848  0  -0.0096  -0.021002  0  3.980862  0
C  C42  1  0.41491078  0.18649027  0.74671490  1  0.054738  0  0.023708  0.134127  0  4.022699  0
C  C43  1  0.07552573  0.30313092  0.76849386  1  0.019693  0  -0.081664  -0.100464  0  3.977682  0
C  C44  1  0.41111746  0.25443147  0.81065503  1  0.017358  0  -0.086137  -0.166469  0  3.953133  0
C  C45  1  0.08160220  0.23638878  0.70422104  1  -0.044085  0  -0.079966  -0.082566  0  3.986712  0
C  C46  1  0.74602988  0.82637918  0.31078994  1  -0.016687  0  -0.01092  -0.087903  0  3.918343  0
C  C47  1  0.76097715  0.69398274  0.17843686  1  0.00234  0  -0.011932  -0.020289  0  3.975285  0
C  C48  1  0.58631617  0.82021987  0.25307113  1  0.053677  0  0.023437  0.134762  0  4.0199  0
C  C49  1  0.92349726  0.70168603  0.23384085  1  -0.014581  0  -0.084569  -0.103518  0  3.982481  0
C  C50  1  0.59350531  0.75362989  0.18813486  1  0.040754  0  -0.088246  -0.166768  0  3.964132  0
C  C51  1  0.91438948  0.76704938  0.29902516  1  -0.014842  0  -0.077931  -0.078428  0  3.980239  0
Cl  Cl52  1  0.36826778  0.73195287  0.62500865  1  -0.201652  0  0.013542  -0.065561  0  1.515126  0
Cl  Cl53  1  0.87316678  0.11397949  0.26398092  1  -0.187176  0  0.016471  -0.052306  0  1.548673  0
Cl  Cl54  1  0.62148642  0.11122567  0.74173485  1  -0.190955  0  0.012895  -0.051609  0  1.535422  0
Cl  Cl55  1  0.38041744  0.89607339  0.25630039  1  -0.181705  0  0.012182  -0.051415  0  1.538884  0
O  O56  1  0.92052797  0.91931714  0.41047446  1  -1.251936  0  -0.236294  -0.592189  0  2.370395  0
O  O57  1  0.57208584  0.91913355  0.58929213  1  -1.253483  0  -0.231738  -0.597986  0  2.412921  0
O  O58  1  0.41102936  0.09885742  0.57965563  1  -1.247917  0  -0.237221  -0.594107  0  2.375611  0
O  O59  1  0.08428436  0.09840539  0.42552350  1  -1.252077  0  -0.233195  -0.596473  0  2.382776  0
O  O60  1  0.07414976  0.07965466  0.59603202  1  -1.243831  0  -0.235517  -0.58554  0  2.340724  0
O  O61  1  0.42096052  0.08654728  0.41061406  1  -1.252335  0  -0.231709  -0.591811  0  2.358749  0
O  O62  1  0.58076444  0.90807952  0.41989650  1  -1.250455  0  -0.237914  -0.594664  0  2.386787  0
O  O63  1  0.90906035  0.90229202  0.57923514  1  -1.252013  0  -0.231274  -0.586068  0  2.336228  0
O  O64  1  0.24716011  0.94183332  0.50195325  1  -1.440199  0  -0.450237  -0.98153  0  2.20646  0
O  O65  1  0.74919006  0.06194663  0.50056834  1  -1.4358  0  -0.447765  -0.981131  0  2.189268  0
O  O66  1  0.93600580  0.58620486  0.09144653  1  -1.25839  0  -0.238282  -0.598767  0  2.33506  0
O  O67  1  0.57736988  0.57098544  0.90262167  1  -1.250121  0  -0.22857  -0.573591  0  2.336637  0
O  O68  1  0.40531841  0.39904601  0.92977636  1  -1.259236  0  -0.233689  -0.588524  0  2.351083  0
O  O69  1  0.09647154  0.40335985  0.07538879  1  -1.260322  0  -0.237501  -0.600798  0  2.341114  0
O  O70  1  0.07475050  0.42610949  0.90590867  1  -1.253461  0  -0.229345  -0.576494  0  2.334434  0
O  O71  1  0.43248068  0.42456339  0.09613021  1  -1.261064  0  -0.237802  -0.597447  0  2.330989  0
O  O72  1  0.60049099  0.60545531  0.07066698  1  -1.268546  0  -0.2383  -0.603432  0  2.342054  0
O  O73  1  0.90965767  0.60030277  0.92341355  1  -1.258526  0  -0.230909  -0.585071  0  2.343585  0
O  O74  1  0.25715337  0.56298413  0.00048154  1  -1.442843  0  -0.447348  -0.987902  0  2.190621  0
O  O75  1  0.75508439  0.44168233  0.00334474  1  -1.404943  0  -0.447948  -0.98922  0  2.192227  0
