# generated using pymatgen
data_CoH14C13(NCl)2
_symmetry_space_group_name_H-M   'P 1'
_cell_length_a   5.34405511
_cell_length_b   9.62548036
_cell_length_c   13.10237988
_cell_angle_alpha   89.99874871
_cell_angle_beta   89.99965335
_cell_angle_gamma   90.87851383
_symmetry_Int_Tables_number   1
_chemical_formula_structural   CoH14C13(NCl)2
_chemical_formula_sum   'Co2 H28 C26 N4 Cl4'
_cell_volume   673.89537170
_cell_formula_units_Z   2
loop_
 _symmetry_equiv_pos_site_id
 _symmetry_equiv_pos_as_xyz
  1  'x, y, z'
loop_
 _atom_site_type_symbol
 _atom_site_label
 _atom_site_symmetry_multiplicity
 _atom_site_fract_x
 _atom_site_fract_y
 _atom_site_fract_z
 _atom_site_occupancy
 _atom_site_hle17_ddec_charge
 _atom_site_hle17_ddec_spin_density
 _atom_site_hle17_ddec_sum_bond_order
 _atom_site_hle17_magmom
 _atom_site_hse06_10hf_ddec_charge
 _atom_site_hse06_10hf_ddec_spin_density
 _atom_site_hse06_10hf_ddec_sum_bond_order
 _atom_site_hse06_10hf_magmom
 _atom_site_hse06_ddec_charge
 _atom_site_hse06_ddec_spin_density
 _atom_site_hse06_ddec_sum_bond_order
 _atom_site_hse06_magmom
 _atom_site_pbe_cm5_charge
 _atom_site_pbe_ddec_charge
 _atom_site_pbe_ddec_spin_density
 _atom_site_pbe_ddec_sum_bond_order
 _atom_site_pbe_magmom
Co  Co0  1  0.08080500  0.28475427  0.75000409  1  0.762316  2.7882  2.2822  2.458  0.711141  2.788807  2.76513  2.521  0.804307  2.845793  2.682154  2.629  0.541053  0.641016  2.737422  2.826434  2.425
Co  Co1  1  0.91919176  0.71523967  0.24999980  1  0.762168  2.788147  2.282359  2.458  0.711084  2.788808  2.765283  2.521  0.804245  2.845789  2.68231  2.629  0.541027  0.640986  2.737417  2.826481  2.425
H  H2  1  0.53462468  0.42022010  0.84389620  1  0.073524  0.000824  0.972659  0.002  0.078809  0.000967  1.045804  0.001  0.080957  0.000648  1.043558  0.001  0.10525  0.077222  0.001306  1.047343  0.002
H  H3  1  0.46536487  0.57977427  0.34390335  1  0.073572  0.000819  0.972677  0.002  0.078882  0.000966  1.04578  0.001  0.081018  0.000647  1.043546  0.001  0.105243  0.077291  0.001306  1.047327  0.002
H  H4  1  0.46537863  0.57978727  0.15610464  1  0.073616  0.000825  0.97267  0.002  0.078892  0.000966  1.045811  0.001  0.081051  0.000648  1.04355  0.001  0.105288  0.0773  0.001306  1.047364  0.002
H  H5  1  0.53462944  0.42021138  0.65610741  1  0.073575  0.000822  0.972687  0.002  0.078846  0.000966  1.045854  0.001  0.081004  0.000648  1.043596  0.001  0.10527  0.077259  0.001306  1.047396  0.002
H  H6  1  0.78699007  0.38997127  0.00026092  1  0.113298  0.000105  0.935997  0.0  0.12434  0.000189  0.993235  0.0  0.127823  8.8e-05  0.992511  0.0  0.107889  0.121824  0.000296  0.994029  0.0
H  H7  1  0.21301671  0.61002369  0.50026958  1  0.113269  0.00011  0.936036  0.0  0.12421  0.000189  0.99338  0.0  0.127698  8.8e-05  0.992657  0.0  0.107829  0.121699  0.000296  0.994168  0.0
H  H8  1  0.21303539  0.61003165  0.99973686  1  0.113251  0.000109  0.936083  0.0  0.124238  0.000189  0.993403  0.0  0.127726  8.8e-05  0.992679  0.0  0.107844  0.121729  0.000296  0.99418  0.0
H  H9  1  0.78697675  0.38997653  0.49973660  1  0.113215  0.000111  0.936009  0.0  0.124189  0.000189  0.993337  0.0  0.127674  8.8e-05  0.992616  0.0  0.107849  0.121677  0.000296  0.994123  0.0
H  H10  1  0.27711524  0.05975893  0.08930517  1  0.107723  0.000487  0.974927  0.0  0.116252  0.000506  1.040649  0.001  0.120007  0.000314  1.03923  0.0  0.097093  0.113442  0.000716  1.041673  0.001
H  H11  1  0.72288657  0.94024074  0.58929451  1  0.107741  0.000486  0.974866  0.0  0.116261  0.000506  1.040602  0.001  0.120021  0.000314  1.039165  0.0  0.097091  0.113452  0.000716  1.041625  0.001
H  H12  1  0.72291928  0.94023972  0.91069490  1  0.107696  0.000485  0.974902  0.0  0.116242  0.000506  1.040616  0.001  0.119993  0.000314  1.039214  0.0  0.097068  0.113431  0.000716  1.04164  0.001
H  H13  1  0.27708674  0.05976598  0.41069716  1  0.107757  0.000484  0.974856  0.0  0.116291  0.000506  1.040567  0.001  0.120044  0.000314  1.039156  0.0  0.0971  0.113481  0.000716  1.041589  0.001
H  H14  1  0.03994763  0.10421952  0.92759090  1  0.070476  0.000629  0.977337  0.001  0.0778  0.00075  1.046227  0.001  0.079583  0.000522  1.045009  0.001  0.105892  0.076393  0.00098  1.047191  0.001
H  H15  1  0.96004051  0.89577551  0.42757747  1  0.07043  0.000634  0.977361  0.001  0.077716  0.00075  1.046291  0.001  0.079509  0.000522  1.045066  0.001  0.105846  0.076302  0.00098  1.04728  0.001
H  H16  1  0.96007538  0.89577512  0.07241375  1  0.070587  0.000629  0.977368  0.001  0.077878  0.00075  1.046278  0.001  0.079655  0.000522  1.045066  0.001  0.105979  0.076475  0.00098  1.047228  0.001
H  H17  1  0.03992338  0.10423029  0.57241420  1  0.070612  0.000629  0.977306  0.001  0.07792  0.000749  1.046205  0.001  0.079678  0.000522  1.045011  0.001  0.105995  0.076511  0.00098  1.047175  0.001
H  H18  1  0.88228425  0.25095877  0.15059268  1  0.083984  0.000264  0.948473  0.0  0.099375  0.000256  1.011949  0.0  0.101348  0.000159  1.011361  0.0  0.086667  0.097567  0.000375  1.012831  0.0
H  H19  1  0.11772695  0.74902960  0.65059390  1  0.084139  0.000265  0.948367  0.0  0.099502  0.000256  1.011869  0.0  0.101476  0.00016  1.01128  0.0  0.086722  0.097694  0.000375  1.012753  0.0
H  H20  1  0.11774020  0.74902961  0.84941121  1  0.084017  0.000252  0.948481  0.0  0.099432  0.000256  1.011952  0.0  0.101411  0.00016  1.011366  0.0  0.08668  0.097625  0.000375  1.012834  0.0
H  H21  1  0.88225557  0.25097492  0.34940770  1  0.084088  0.000269  0.948322  0.0  0.099474  0.000256  1.011851  0.0  0.101456  0.00016  1.011263  0.0  0.08669  0.097664  0.000375  1.012737  0.0
H  H22  1  0.74176802  0.08282550  0.15898579  1  0.080194  -0.000328  0.94377  0.0  0.095923  8.4e-05  1.010008  0.0  0.096775  4.4e-05  1.010315  0.0  0.091423  0.094993  8.8e-05  1.010156  0.0
H  H23  1  0.25822669  0.91717011  0.65898094  1  0.080235  -0.000323  0.943786  0.0  0.095988  8.4e-05  1.009989  0.0  0.096825  4.4e-05  1.010312  0.0  0.09145  0.095054  8.8e-05  1.01014  0.0
H  H24  1  0.25824363  0.91716720  0.84101658  1  0.080219  -0.000334  0.943853  0.0  0.095965  8.4e-05  1.010088  0.0  0.096825  4.4e-05  1.010394  0.0  0.091446  0.095038  8.8e-05  1.010234  0.0
H  H25  1  0.74175411  0.08283651  0.34102142  1  0.080164  -0.000321  0.943828  0.0  0.095928  8.4e-05  1.010065  0.0  0.09679  4.4e-05  1.010375  0.0  0.091444  0.095  8.8e-05  1.010211  0.0
H  H26  1  0.37247849  0.18765376  0.24999316  1  0.067006  0.000546  0.94505  0.0  0.086255  0.000494  1.006123  0.0  0.087259  0.000349  1.006537  0.0  0.083977  0.085205  0.000645  1.006323  0.0
H  H27  1  0.62752446  0.81234842  0.74999470  1  0.067023  0.000539  0.944992  0.0  0.086292  0.000494  1.006048  0.0  0.087296  0.000349  1.006463  0.0  0.083972  0.08525  0.000645  1.006237  0.0
H  H28  1  0.53165285  0.35011260  0.24998864  1  0.064101  0.000193  0.954294  0.0  0.080431  0.00024  1.021035  0.0  0.081589  0.000111  1.020804  0.0  0.078854  0.079602  0.000347  1.020963  0.0
H  H29  1  0.46835182  0.64988748  0.74999846  1  0.064133  0.000192  0.954309  0.0  0.080469  0.00024  1.021037  0.0  0.081623  0.000111  1.020819  0.0  0.078857  0.079644  0.000347  1.020956  0.0
C  C30  1  0.48074219  0.34163819  0.89989740  1  0.131977  -0.013019  3.719811  -0.009  0.100948  0.001239  3.979741  0.001  0.111201  0.000974  3.998552  0.001  0.042756  0.093355  0.001376  3.968042  0.001
C  C31  1  0.51925210  0.65835758  0.39989935  1  0.131911  -0.012992  3.719918  -0.009  0.100839  0.00124  3.979843  0.001  0.111101  0.000976  3.998658  0.001  0.042805  0.09324  0.001377  3.968157  0.001
C  C32  1  0.51925717  0.65836611  0.10010725  1  0.131837  -0.01302  3.719745  -0.009  0.100807  0.001241  3.979716  0.001  0.111052  0.000975  3.998525  0.001  0.04271  0.093205  0.001377  3.968037  0.001
C  C33  1  0.48073747  0.34164061  0.60010530  1  0.131894  -0.012997  3.719733  -0.009  0.100873  0.00124  3.979677  0.001  0.111118  0.000975  3.998486  0.001  0.042789  0.09328  0.001377  3.96798  0.001
C  C34  1  0.62208671  0.32400132  0.98786922  1  -0.17201  0.007221  3.703214  0.01  -0.189855  0.002111  3.949792  0.003  -0.199511  0.001249  3.970408  0.002  -0.08354  -0.183761  0.002868  3.937242  0.004
C  C35  1  0.37791739  0.67599588  0.48787572  1  -0.171968  0.007208  3.703261  0.01  -0.189734  0.002111  3.949827  0.003  -0.199392  0.00125  3.970442  0.002  -0.083511  -0.183642  0.002867  3.937281  0.004
C  C36  1  0.37793861  0.67599952  0.01212856  1  -0.171975  0.007213  3.703468  0.01  -0.189841  0.002111  3.950023  0.003  -0.1995  0.001248  3.970628  0.002  -0.083567  -0.183751  0.002867  3.937484  0.004
C  C37  1  0.62207240  0.32400543  0.51212893  1  -0.171959  0.007208  3.703298  0.01  -0.189772  0.002111  3.949867  0.003  -0.199428  0.001249  3.970475  0.002  -0.083565  -0.183678  0.002867  3.937317  0.004
C  C38  1  0.55511037  0.22066004  0.05828862  1  0.170348  -0.012329  3.69789  -0.009  0.187454  0.000212  3.93053  0.0  0.195647  0.000671  3.949794  0.001  0.017811  0.180618  -0.000999  3.918114  -0.001
C  C39  1  0.44489356  0.77933532  0.55828950  1  0.170307  -0.012328  3.697923  -0.009  0.187472  0.000212  3.930467  0.0  0.195656  0.000671  3.949748  0.001  0.017808  0.180638  -0.000998  3.918046  -0.001
C  C40  1  0.44492760  0.77933441  0.94170840  1  0.170345  -0.012328  3.698047  -0.009  0.187643  0.000212  3.930491  0.0  0.195847  0.000671  3.949748  0.001  0.017907  0.180808  -0.000999  3.918073  -0.001
C  C41  1  0.55507796  0.22067246  0.44170752  1  0.170336  -0.012344  3.697858  -0.009  0.187539  0.000212  3.930419  0.0  0.195745  0.000671  3.949678  0.001  0.017841  0.180703  -0.000999  3.918008  -0.001
C  C42  1  0.33946609  0.14096269  0.03653999  1  -0.168452  0.006374  3.702052  0.009  -0.183322  0.001306  3.943247  0.002  -0.191957  0.000425  3.963039  0.001  -0.085988  -0.177708  0.002099  3.930656  0.003
C  C43  1  0.66052726  0.85903657  0.53653535  1  -0.168492  0.006379  3.702044  0.009  -0.183347  0.001306  3.943218  0.002  -0.191978  0.000424  3.963019  0.001  -0.086023  -0.177732  0.002098  3.930624  0.003
C  C44  1  0.66055700  0.85903299  0.96345932  1  -0.168364  0.006381  3.702277  0.009  -0.183281  0.001306  3.943386  0.002  -0.191923  0.000423  3.963172  0.001  -0.085969  -0.177668  0.002099  3.930794  0.003
C  C45  1  0.33945174  0.14097112  0.46346014  1  -0.168409  0.00639  3.702182  0.009  -0.183301  0.001306  3.943366  0.002  -0.191942  0.000424  3.963151  0.001  -0.085991  -0.177684  0.002099  3.93077  0.003
C  C46  1  0.20737038  0.16422728  0.94744390  1  0.119232  -0.01068  3.719662  -0.007  0.092204  0.001932  3.971764  0.002  0.101323  0.001738  3.991437  0.002  0.037486  0.085613  0.00164  3.959257  0.002
C  C47  1  0.79261601  0.83577447  0.44743711  1  0.119321  -0.010697  3.719785  -0.007  0.092278  0.001933  3.971903  0.002  0.101399  0.001741  3.991559  0.002  0.03756  0.08568  0.001641  3.959398  0.002
C  C48  1  0.79265113  0.83577258  0.05255693  1  0.119038  -0.010681  3.719789  -0.007  0.092031  0.001933  3.971919  0.002  0.10115  0.001741  3.991612  0.002  0.037319  0.08544  0.00164  3.959417  0.002
C  C49  1  0.20734975  0.16423131  0.55255534  1  0.119027  -0.010681  3.719708  -0.007  0.09201  0.001933  3.971833  0.002  0.101144  0.00174  3.991537  0.002  0.037328  0.085421  0.00164  3.95932  0.002
C  C50  1  0.70206922  0.19466014  0.15357520  1  -0.16774  0.000443  3.699062  0.001  -0.208703  0.000453  3.943547  0.001  -0.210953  0.000264  3.954674  0.0  -0.16252  -0.206699  0.000722  3.936454  0.001
C  C51  1  0.29792934  0.80533559  0.65357364  1  -0.167896  0.000432  3.699048  0.001  -0.208846  0.000453  3.94347  0.001  -0.211088  0.000262  3.954618  0.0  -0.162572  -0.206837  0.000722  3.936375  0.001
C  C52  1  0.29795005  0.80533455  0.84642716  1  -0.167747  0.00046  3.699095  0.001  -0.208827  0.000453  3.943601  0.001  -0.211104  0.000262  3.954769  0.0  -0.162519  -0.206826  0.000722  3.936506  0.001
C  C53  1  0.70204959  0.19467105  0.34642490  1  -0.167807  0.000431  3.698938  0.001  -0.208848  0.000453  3.943462  0.001  -0.211143  0.000262  3.954656  0.0  -0.162548  -0.206845  0.000722  3.936364  0.001
C  C54  1  0.55947800  0.23718270  0.24999564  1  -0.086512  -0.000361  3.661745  0.0  -0.122195  0.000926  3.910781  0.001  -0.122895  0.000685  3.923483  0.001  -0.163089  -0.121698  0.001322  3.902304  0.001
C  C55  1  0.44052114  0.76281848  0.74999985  1  -0.086616  -0.000341  3.661709  0.0  -0.122329  0.000927  3.910758  0.001  -0.123032  0.000685  3.923451  0.001  -0.163115  -0.121837  0.001322  3.902277  0.001
N  N56  1  0.27702905  0.26235444  0.87871125  1  -0.320534  0.047549  3.387514  0.073  -0.266783  0.032895  3.684657  0.043  -0.298726  0.025559  3.702695  0.032  -0.349028  -0.244709  0.03929  3.673706  0.051
N  N57  1  0.72297126  0.73764188  0.37870771  1  -0.320433  0.047548  3.387577  0.073  -0.266674  0.032892  3.684711  0.043  -0.298616  0.025556  3.702748  0.032  -0.34903  -0.244597  0.039288  3.673755  0.051
N  N58  1  0.72298684  0.73764549  0.12129112  1  -0.32038  0.047552  3.38731  0.073  -0.266668  0.032895  3.684482  0.043  -0.298612  0.025559  3.702519  0.032  -0.348958  -0.244591  0.039291  3.673522  0.051
N  N59  1  0.27701802  0.26235215  0.62129160  1  -0.320424  0.047542  3.3873  0.073  -0.266689  0.032894  3.684462  0.043  -0.298633  0.025559  3.702497  0.032  -0.34898  -0.244613  0.039291  3.673508  0.051
Cl  Cl60  1  0.80197209  0.10915638  0.74999952  1  -0.526794  0.074053  0.980357  0.105  -0.503348  0.058484  1.264754  0.072  -0.538336  0.04112  1.241371  0.05  -0.280272  -0.471986  0.075783  1.279832  0.094
Cl  Cl61  1  0.19802459  0.89083652  0.25000284  1  -0.526778  0.074057  0.980371  0.105  -0.503343  0.058484  1.26477  0.072  -0.53834  0.041119  1.241396  0.05  -0.280276  -0.471991  0.075784  1.279835  0.094
Cl  Cl62  1  0.95229974  0.50225205  0.75000456  1  -0.524197  0.082298  0.966594  0.117  -0.501191  0.06525  1.245615  0.082  -0.538951  0.046632  1.220547  0.058  -0.282918  -0.468477  0.082967  1.261831  0.105
Cl  Cl63  1  0.04769141  0.49774196  0.24999932  1  -0.524212  0.082307  0.966609  0.117  -0.501227  0.065253  1.245654  0.082  -0.538989  0.046635  1.220581  0.058  -0.282928  -0.468493  0.082969  1.261812  0.105
