# generated using pymatgen
data_FeH11C17N3O4
_symmetry_space_group_name_H-M   'P 1'
_cell_length_a   8.69951494
_cell_length_b   9.03790381
_cell_length_c   10.66925692
_cell_angle_alpha   112.37707549
_cell_angle_beta   90.16799145
_cell_angle_gamma   102.14810784
_symmetry_Int_Tables_number   1
_chemical_formula_structural   FeH11C17N3O4
_chemical_formula_sum   'Fe2 H22 C34 N6 O8'
_cell_volume   755.12860894
_cell_formula_units_Z   2
loop_
 _symmetry_equiv_pos_site_id
 _symmetry_equiv_pos_as_xyz
  1  'x, y, z'
loop_
 _atom_site_type_symbol
 _atom_site_label
 _atom_site_symmetry_multiplicity
 _atom_site_fract_x
 _atom_site_fract_y
 _atom_site_fract_z
 _atom_site_occupancy
 _atom_site_pbe_bader_spin_density
 _atom_site_pbe_cm5_charge
 _atom_site_pbe_ddec_charge
 _atom_site_pbe_ddec_spin_density
 _atom_site_pbe_ddec_sum_bond_order
 _atom_site_pbe_magmom
Fe  Fe0  1  0.68855250  0.60799907  0.88771249  1  0  0.686317  0.5619  0  3.195945  0
Fe  Fe1  1  0.31143502  0.39198317  0.11228678  1  0  0.68647  0.562177  0  3.19592  0
H  H2  1  0.00963083  0.60500786  0.00496273  1  0  0.119038  0.083154  0  1.075394  0
H  H3  1  0.99037690  0.39498327  0.99504419  1  0  0.119081  0.083101  0  1.075566  0
H  H4  1  0.30009949  0.64234329  0.68806323  1  0  0.1089  0.110774  0  1.030628  0
H  H5  1  0.69989632  0.35765607  0.31193394  1  0  0.108923  0.110796  0  1.030666  0
H  H6  1  0.08023748  0.73601341  0.60039010  1  0  0.107379  0.113479  0  1.029224  0
H  H7  1  0.91975494  0.26399221  0.39961836  1  0  0.107366  0.113474  0  1.029268  0
H  H8  1  0.86758936  0.73596904  0.15972522  1  0  0.118224  0.082977  0  1.016927  0
H  H9  1  0.13241201  0.26402437  0.84027672  1  0  0.11824  0.082998  0  1.016976  0
H  H10  1  0.84034575  0.92094197  0.39091851  1  0  0.114002  0.126563  0  1.000534  0
H  H11  1  0.15965903  0.07906731  0.60908183  1  0  0.114022  0.126585  0  1.000508  0
H  H12  1  0.46450243  0.05753509  0.22152191  1  0  0.109282  0.125296  0  1.042555  0
H  H13  1  0.53551458  0.94248278  0.77847466  1  0  0.109283  0.125188  0  1.042683  0
H  H14  1  0.50709232  0.86236908  0.99616973  1  0  0.121359  0.093628  0  1.011691  0
H  H15  1  0.49290505  0.13763761  0.00382693  1  0  0.121396  0.09367  0  1.011669  0
H  H16  1  0.80297595  0.06549074  0.57984651  1  0  0.109878  0.130617  0  1.031402  0
H  H17  1  0.19702522  0.93450132  0.42014845  1  0  0.109874  0.130603  0  1.031444  0
H  H18  1  0.81880793  0.31010033  0.78993558  1  0  0.117444  0.090588  0  1.025913  0
H  H19  1  0.18118653  0.68989301  0.21006627  1  0  0.117437  0.090553  0  1.025958  0
H  H20  1  0.49575994  0.47685105  0.62420142  1  0  0.121927  0.09675  0  1.018233  0
H  H21  1  0.50424302  0.52314964  0.37579717  1  0  0.121901  0.096751  0  1.018224  0
H  H22  1  0.46756375  0.24188465  0.40283273  1  0  0.108223  0.120265  0  1.066223  0
H  H23  1  0.53244851  0.75812702  0.59716093  1  0  0.108253  0.120266  0  1.066308  0
C  C24  1  0.80154428  0.77382301  0.71446019  1  0  0.199453  0.516291  0  4.241683  0
C  C25  1  0.19845670  0.22617414  0.28554666  1  0  0.199591  0.516519  0  4.241606  0
C  C26  1  0.93325087  0.71164589  0.75318886  1  0  0.103749  0.085996  0  3.926728  0
C  C27  1  0.06675229  0.28835619  0.24681954  1  0  0.103726  0.085846  0  3.926423  0
C  C28  1  0.03003254  0.63144318  0.91483265  1  0  0.044641  0.053434  0  3.897384  0
C  C29  1  0.96995596  0.36854872  0.08516025  1  0  0.044448  0.053357  0  3.897727  0
C  C30  1  0.17316084  0.62247629  0.85620455  1  0  -0.012926  -0.071833  0  3.958792  0
C  C31  1  0.82683208  0.37750965  0.14379405  1  0  -0.012926  -0.071863  0  3.958908  0
C  C32  1  0.19191630  0.65444798  0.73800333  1  0  -0.069664  -0.058646  0  3.929362  0
C  C33  1  0.80808202  0.34555276  0.26200086  1  0  -0.069653  -0.05869  0  3.929473  0
C  C34  1  0.07154767  0.70391646  0.68906219  1  0  -0.075657  -0.118482  0  3.960442  0
C  C35  1  0.92844717  0.29608428  0.31094478  1  0  -0.075665  -0.118391  0  3.9604  0
C  C36  1  0.29804861  0.56728217  0.91437990  1  0  0.216873  0.550059  0  4.225411  0
C  C37  1  0.70195942  0.43272117  0.08562800  1  0  0.216736  0.549865  0  4.225533  0
C  C38  1  0.77804250  0.80761340  0.17749035  1  0  0.043004  0.089018  0  3.923745  0
C  C39  1  0.22196208  0.19238990  0.82251751  1  0  0.043026  0.089101  0  3.923885  0
C  C40  1  0.76140070  0.91250055  0.30797407  1  0  -0.074927  -0.156217  0  3.933273  0
C  C41  1  0.23858971  0.08750619  0.69203003  1  0  -0.075003  -0.156337  0  3.933395  0
C  C42  1  0.64788710  0.00775373  0.33057216  1  0  0.007083  0.090292  0  3.975028  0
C  C43  1  0.35211111  0.99226759  0.66942342  1  0  0.00704  0.09026  0  3.97494  0
C  C44  1  0.55404743  0.98713296  0.21467977  1  0  -0.080026  -0.1651  0  3.923593  0
C  C45  1  0.44594725  0.01285522  0.78530642  1  0  -0.079922  -0.164801  0  3.923534  0
C  C46  1  0.57697028  0.87863066  0.08718577  1  0  0.042512  0.084338  0  3.904271  0
C  C47  1  0.42304905  0.12137610  0.91280174  1  0  0.042428  0.084168  0  3.904261  0
C  C48  1  0.64152908  0.13512924  0.46552041  1  0  0.008686  0.094809  0  3.977128  0
C  C49  1  0.35847285  0.86488224  0.53446840  1  0  0.008831  0.094925  0  3.977147  0
C  C50  1  0.73667174  0.15538944  0.58045805  1  0  -0.082535  -0.177275  0  3.941489  0
C  C51  1  0.26331084  0.84459631  0.41953570  1  0  -0.082623  -0.177296  0  3.941729  0
C  C52  1  0.74538126  0.29153205  0.70016616  1  0  0.040496  0.083833  0  3.921825  0
C  C53  1  0.25461551  0.70846130  0.29983477  1  0  0.04049  0.08383  0  3.921796  0
C  C54  1  0.56403869  0.38422525  0.60762241  1  0  0.046271  0.090225  0  3.900141  0
C  C55  1  0.43597169  0.61578912  0.39238707  1  0  0.046266  0.090119  0  3.90004  0
C  C56  1  0.55006269  0.25177823  0.48409869  1  0  -0.082313  -0.172178  0  3.929885  0
C  C57  1  0.44993718  0.74824098  0.51591500  1  0  -0.082345  -0.172132  0  3.930236  0
N  N58  1  0.68625990  0.78634406  0.06633189  1  0  -0.339183  -0.175681  0  3.596182  0
N  N59  1  0.31374682  0.21365318  0.93367692  1  0  -0.339219  -0.17576  0  3.596322  0
N  N60  1  0.90794593  0.66405800  0.86029431  1  0  -0.342734  -0.182754  0  3.649076  0
N  N61  1  0.09204311  0.33595849  0.13970999  1  0  -0.342642  -0.182667  0  3.649004  0
N  N62  1  0.66364591  0.40820938  0.71468192  1  0  -0.335731  -0.169943  0  3.584096  0
N  N63  1  0.33636084  0.59177668  0.28531497  1  0  -0.335704  -0.169942  0  3.583773  0
O  O64  1  0.67545313  0.75346354  0.77776111  1  0  -0.296066  -0.490758  0  2.289977  0
O  O65  1  0.32453801  0.24655160  0.22223436  1  0  -0.296141  -0.490875  0  2.290268  0
O  O66  1  0.81852435  0.84269860  0.63236986  1  0  -0.321193  -0.524643  0  2.101684  0
O  O67  1  0.18146794  0.15730088  0.36763575  1  0  -0.321182  -0.524651  0  2.101629  0
O  O68  1  0.42213377  0.55563259  0.85455053  1  0  -0.283856  -0.496282  0  2.333862  0
O  O69  1  0.57786499  0.44435321  0.14543589  1  0  -0.283735  -0.496057  0  2.333782  0
O  O70  1  0.25956795  0.53290342  0.01763297  1  0  -0.297999  -0.51459  0  2.534078  0
O  O71  1  0.74045229  0.46708637  0.98235959  1  0  -0.298001  -0.514597  0  2.533832  0
