# generated using pymatgen
data_Ag2P2H26C29(NO2)3
_symmetry_space_group_name_H-M   'P 1'
_cell_length_a   10.41442824
_cell_length_b   12.30928649
_cell_length_c   12.34284901
_cell_angle_alpha   95.55800258
_cell_angle_beta   97.35049377
_cell_angle_gamma   108.79063830
_symmetry_Int_Tables_number   1
_chemical_formula_structural   Ag2P2H26C29(NO2)3
_chemical_formula_sum   'Ag4 P4 H52 C58 N6 O12'
_cell_volume   1469.48960301
_cell_formula_units_Z   2
loop_
 _symmetry_equiv_pos_site_id
 _symmetry_equiv_pos_as_xyz
  1  'x, y, z'
loop_
 _atom_site_type_symbol
 _atom_site_label
 _atom_site_symmetry_multiplicity
 _atom_site_fract_x
 _atom_site_fract_y
 _atom_site_fract_z
 _atom_site_occupancy
 _atom_site_hle17_bader_spin_density
 _atom_site_hle17_ddec_charge
 _atom_site_hle17_ddec_spin_density
 _atom_site_hle17_ddec_sum_bond_order
 _atom_site_hle17_magmom
 _atom_site_hse06_10hf_bader_spin_density
 _atom_site_hse06_10hf_ddec_charge
 _atom_site_hse06_10hf_ddec_spin_density
 _atom_site_hse06_10hf_ddec_sum_bond_order
 _atom_site_hse06_10hf_magmom
 _atom_site_hse06_bader_spin_density
 _atom_site_hse06_ddec_charge
 _atom_site_hse06_ddec_spin_density
 _atom_site_hse06_ddec_sum_bond_order
 _atom_site_hse06_magmom
 _atom_site_pbe_bader_spin_density
 _atom_site_pbe_cm5_charge
 _atom_site_pbe_ddec_charge
 _atom_site_pbe_ddec_spin_density
 _atom_site_pbe_ddec_sum_bond_order
 _atom_site_pbe_magmom
Ag  Ag0  1  0.77966372  0.61972876  0.65632723  1  0  0.394039  0  1.597183  0  0  0.265171  0  2.052738  0  0  0.290661  0  2.006984  0  0  0.425108  0.24447  0  2.088199  0
Ag  Ag1  1  0.22034042  0.38027287  0.34367530  1  0  0.394037  0  1.59723  0  0  0.265197  0  2.052804  0  0  0.290678  0  2.007078  0  0  0.425124  0.244501  0  2.088249  0
Ag  Ag2  1  0.44733161  0.61693762  0.58462393  1  0  0.435035  0  1.627874  0  0  0.306293  0  2.103277  0  0  0.33199  0  2.053087  0  0  0.434723  0.285343  0  2.142651  0
Ag  Ag3  1  0.55267669  0.38305976  0.41537952  1  0  0.435056  0  1.627937  0  0  0.306331  0  2.103299  0  0  0.332032  0  2.053077  0  0  0.434737  0.28539  0  2.142676  0
P  P4  1  0.41710341  0.71362815  0.74425500  1  0  0.267702  0  3.771471  0  0  0.228614  0  4.254452  0  0  0.235255  0  4.249647  0  0  -0.031361  0.224933  0  4.258475  0
P  P5  1  0.58289652  0.28636997  0.25574428  1  0  0.267684  0  3.771559  0  0  0.228565  0  4.254604  0  0  0.235206  0  4.249793  0  0  -0.031348  0.224872  0  4.258639  0
P  P6  1  0.95737772  0.79055171  0.73055115  1  0  0.270278  0  3.762974  0  0  0.24013  0  4.227408  0  0  0.245618  0  4.225393  0  0  -0.030908  0.23781  0  4.228216  0
P  P7  1  0.04262618  0.20945163  0.26944745  1  0  0.270312  0  3.763085  0  0  0.240163  0  4.227576  0  0  0.24565  0  4.225562  0  0  -0.030933  0.237833  0  4.228362  0
H  H8  1  0.96079452  0.68724381  0.49524444  1  0  0.091069  0  0.979995  0  0  0.103282  0  1.039701  0  0  0.105871  0  1.038571  0  0  0.097033  0.101686  0  1.040195  0
H  H9  1  0.03920032  0.31275595  0.50474871  1  0  0.091078  0  0.980029  0  0  0.103287  0  1.039736  0  0  0.105874  0  1.038615  0  0  0.097047  0.101692  0  1.040227  0
H  H10  1  0.16591987  0.47041432  0.64688021  1  0  0.096415  0  0.994286  0  0  0.104477  0  1.061311  0  0  0.107944  0  1.058717  0  0  0.095315  0.102102  0  1.063169  0
H  H11  1  0.83407366  0.52958196  0.35311085  1  0  0.09643  0  0.994178  0  0  0.104529  0  1.061172  0  0  0.107974  0  1.058572  0  0  0.095312  0.102153  0  1.063041  0
H  H12  1  0.19705732  0.58142983  0.78116458  1  0  0.107154  0  0.931178  0  0  0.127616  0  0.982013  0  0  0.128171  0  0.982117  0  0  0.118188  0.12718  0  0.982113  0
H  H13  1  0.80293980  0.41856823  0.21882707  1  0  0.107088  0  0.931304  0  0  0.127612  0  0.982029  0  0  0.128172  0  0.982128  0  0  0.11819  0.127176  0  0.982135  0
H  H14  1  0.23039627  0.72725897  0.83829454  1  0  0.106098  0  0.95255  0  0  0.12151  0  1.013584  0  0  0.1216  0  1.016255  0  0  0.114145  0.121491  0  1.011881  0
H  H15  1  0.76959824  0.27273991  0.16169849  1  0  0.106167  0  0.952489  0  0  0.121545  0  1.013528  0  0  0.121635  0  1.016203  0  0  0.114168  0.121526  0  1.011822  0
H  H16  1  0.70560333  0.79792568  0.83845654  1  0  0.072872  0  0.989458  0  0  0.081637  0  1.0637  0  0  0.084101  0  1.062318  0  0  0.090001  0.079592  0  1.065313  0
H  H17  1  0.29440095  0.20207166  0.16155454  1  0  0.07285  0  0.989459  0  0  0.081623  0  1.063699  0  0  0.084087  0  1.062316  0  0  0.089983  0.079572  0  1.065312  0
H  H18  1  0.83535764  0.79073958  0.01898483  1  0  0.088565  0  0.97579  0  0  0.098806  0  1.036205  0  0  0.100411  0  1.037987  0  0  0.096826  0.097619  0  1.035009  0
H  H19  1  0.16463357  0.20925411  0.98102759  1  0  0.088633  0  0.975769  0  0  0.098799  0  1.036265  0  0  0.100408  0  1.038037  0  0  0.096756  0.097601  0  1.035089  0
H  H20  1  0.71029032  0.69054539  0.16049670  1  0  0.09681  0  0.984158  0  0  0.105444  0  1.04761  0  0  0.108723  0  1.045243  0  0  0.099954  0.103006  0  1.04944  0
H  H21  1  0.28969255  0.30944645  0.83950808  1  0  0.096905  0  0.98403  0  0  0.105383  0  1.047653  0  0  0.108691  0  1.045286  0  0  0.099916  0.102945  0  1.04947  0
H  H22  1  0.45677630  0.59823488  0.12063553  1  0  0.095312  0  0.935066  0  0  0.108577  0  0.988487  0  0  0.111373  0  0.987683  0  0  0.104244  0.106535  0  0.989279  0
H  H23  1  0.54320701  0.40175781  0.87936208  1  0  0.095275  0  0.935075  0  0  0.10857  0  0.988471  0  0  0.111362  0  0.987681  0  0  0.104295  0.106529  0  0.989263  0
H  H24  1  0.32566447  0.60735185  0.94305566  1  0  0.0883  0  0.959215  0  0  0.102133  0  1.016185  0  0  0.10453  0  1.015691  0  0  0.101999  0.100761  0  1.015933  0
H  H25  1  0.67432511  0.39264179  0.05693711  1  0  0.088372  0  0.95924  0  0  0.102212  0  1.016194  0  0  0.10461  0  1.015696  0  0  0.102024  0.100838  0  1.015949  0
H  H26  1  0.47348815  0.91197215  0.91989722  1  0  0.085296  0  0.973482  0  0  0.097995  0  1.035205  0  0  0.100222  0  1.034776  0  0  0.097904  0.096334  0  1.035648  0
H  H27  1  0.52652817  0.08801845  0.08010901  1  0  0.085356  0  0.973459  0  0  0.097999  0  1.035209  0  0  0.100224  0  1.034783  0  0  0.097909  0.096356  0  1.03563  0
H  H28  1  0.47562805  0.11421583  0.91043290  1  0  0.082949  0  0.979448  0  0  0.092605  0  1.043666  0  0  0.094486  0  1.044638  0  0  0.095465  0.091229  0  1.043256  0
H  H29  1  0.52439441  0.88578351  0.08958134  1  0  0.082903  0  0.979385  0  0  0.092538  0  1.04363  0  0  0.094418  0  1.044599  0  0  0.095469  0.091161  0  1.04323  0
H  H30  1  0.44735521  0.18078066  0.72773314  1  0  0.096475  0  0.961296  0  0  0.102586  0  1.027898  0  0  0.105311  0  1.026697  0  0  0.101746  0.100577  0  1.028877  0
H  H31  1  0.55265874  0.81921683  0.27228396  1  0  0.096392  0  0.961289  0  0  0.102564  0  1.027837  0  0  0.105295  0  1.026598  0  0  0.10173  0.100551  0  1.028823  0
H  H32  1  0.42219608  0.04990544  0.55650343  1  0  0.097006  0  0.954505  0  0  0.109865  0  1.012671  0  0  0.111787  0  1.012771  0  0  0.104986  0.108402  0  1.012777  0
H  H33  1  0.57781377  0.95010148  0.44351161  1  0  0.097014  0  0.954247  0  0  0.109915  0  1.012381  0  0  0.111836  0  1.012468  0  0  0.104973  0.10845  0  1.012494  0
H  H34  1  0.42370409  0.84778645  0.56432094  1  0  0.091757  0  0.9761  0  0  0.096679  0  1.053531  0  0  0.10069  0  1.049514  0  0  0.096324  0.093919  0  1.056255  0
H  H35  1  0.57630138  0.15221606  0.43568021  1  0  0.091747  0  0.976104  0  0  0.096675  0  1.053513  0  0  0.100675  0  1.049529  0  0  0.096322  0.093914  0  1.056232  0
H  H36  1  0.11001644  0.82052417  0.59116283  1  0  0.108932  0  0.931501  0  0  0.125423  0  0.9893  0  0  0.125523  0  0.990741  0  0  0.115154  0.125345  0  0.988345  0
H  H37  1  0.88998072  0.17947648  0.40882824  1  0  0.108975  0  0.931423  0  0  0.125467  0  0.989195  0  0  0.125564  0  0.990636  0  0  0.115162  0.125383  0  0.98824  0
H  H38  1  0.20363936  0.86210376  0.72676898  1  0  0.103827  0  0.972811  0  0  0.119997  0  1.032731  0  0  0.120041  0  1.035348  0  0  0.113726  0.119805  0  1.03133  0
H  H39  1  0.79636337  0.13789609  0.27321863  1  0  0.103813  0  0.972821  0  0  0.119985  0  1.032724  0  0  0.120003  0  1.035369  0  0  0.113714  0.119782  0  1.031328  0
H  H40  1  0.93356460  0.61021716  0.86455753  1  0  0.08826  0  0.974948  0  0  0.09656  0  1.045941  0  0  0.100056  0  1.042628  0  0  0.093659  0.094178  0  1.048142  0
H  H41  1  0.06644192  0.38978536  0.13543889  1  0  0.088261  0  0.975029  0  0  0.096571  0  1.046008  0  0  0.100059  0  1.042696  0  0  0.093677  0.094194  0  1.048204  0
H  H42  1  0.04896468  0.60640007  0.05416743  1  0  0.095211  0  0.947612  0  0  0.10958  0  1.000301  0  0  0.112091  0  0.999566  0  0  0.102022  0.107764  0  1.00083  0
H  H43  1  0.95103297  0.39360492  0.94583626  1  0  0.095194  0  0.947544  0  0  0.109579  0  1.000225  0  0  0.112089  0  0.999489  0  0  0.102001  0.107759  0  1.000749  0
H  H44  1  0.19760183  0.78887476  0.17139899  1  0  0.096738  0  0.969006  0  0  0.101703  0  1.038283  0  0  0.10485  0  1.036438  0  0  0.100971  0.099434  0  1.039673  0
H  H45  1  0.80238647  0.21113613  0.82860330  1  0  0.096767  0  0.968892  0  0  0.101709  0  1.038202  0  0  0.10485  0  1.036358  0  0  0.100984  0.09944  0  1.039584  0
H  H46  1  0.22741683  0.97854401  0.10352092  1  0  0.085893  0  0.967979  0  0  0.097031  0  1.029413  0  0  0.098699  0  1.03073  0  0  0.095822  0.095897  0  1.028444  0
H  H47  1  0.77257571  0.02146262  0.89647825  1  0  0.085831  0  0.967934  0  0  0.09698  0  1.029382  0  0  0.098657  0  1.030667  0  0  0.095784  0.095847  0  1.028418  0
H  H48  1  0.11734772  0.98411024  0.91477335  1  0  0.087758  0  0.972069  0  0  0.097073  0  1.039152  0  0  0.099514  0  1.038608  0  0  0.097414  0.095402  0  1.039445  0
H  H49  1  0.88265557  0.01589395  0.08522283  1  0  0.087642  0  0.972255  0  0  0.097066  0  1.039225  0  0  0.099504  0  1.038685  0  0  0.097431  0.095402  0  1.039508  0
H  H50  1  0.72143643  0.85961313  0.66335289  1  0  0.068241  0  0.996349  0  0  0.071616  0  1.081931  0  0  0.074498  0  1.079299  0  0  0.0878  0.06929  0  1.084457  0
H  H51  1  0.27856616  0.14039192  0.33664734  1  0  0.068237  0  0.99625  0  0  0.071588  0  1.08189  0  0  0.074472  0  1.079273  0  0  0.087791  0.069264  0  1.084406  0
H  H52  1  0.69872028  0.04791163  0.62555717  1  0  0.090285  0  0.974645  0  0  0.101648  0  1.034673  0  0  0.103348  0  1.035725  0  0  0.099035  0.1006  0  1.033714  0
H  H53  1  0.30127896  0.95209512  0.37445010  1  0  0.090321  0  0.974502  0  0  0.10166  0  1.034564  0  0  0.103357  0  1.035622  0  0  0.099059  0.10058  0  1.033633  0
H  H54  1  0.90520100  0.21991072  0.63520246  1  0  0.090202  0  0.972345  0  0  0.097026  0  1.03967  0  0  0.099833  0  1.038175  0  0  0.097836  0.094913  0  1.040907  0
H  H55  1  0.09479957  0.78009431  0.36480157  1  0  0.090263  0  0.972338  0  0  0.097077  0  1.039673  0  0  0.099883  0  1.03818  0  0  0.097867  0.094961  0  1.040915  0
H  H56  1  0.14019828  0.20570325  0.68383677  1  0  0.090899  0  0.986976  0  0  0.098133  0  1.052815  0  0  0.101035  0  1.051409  0  0  0.09712  0.09591  0  1.054132  0
H  H57  1  0.85979977  0.79430001  0.31616114  1  0  0.090879  0  0.986983  0  0  0.098112  0  1.052831  0  0  0.10102  0  1.051384  0  0  0.097118  0.095888  0  1.05416  0
H  H58  1  0.16466302  0.02359735  0.73045637  1  0  0.083778  0  0.978392  0  0  0.094161  0  1.04293  0  0  0.096185  0  1.043091  0  0  0.098387  0.093273  0  1.041953  0
H  H59  1  0.83534290  0.97641120  0.26954052  1  0  0.083758  0  0.978486  0  0  0.094169  0  1.042991  0  0  0.096192  0  1.04315  0  0  0.09838  0.093281  0  1.042025  0
C  C60  1  0.97899328  0.60547669  0.49975632  1  0  -0.170305  0  3.798871  0  0  -0.183477  0  4.052267  0  0  -0.186955  0  4.07263  0  0  -0.119136  -0.180996  0  4.038072  0
C  C61  1  0.02100019  0.39451960  0.50023878  1  0  -0.170362  0  3.798981  0  0  -0.18353  0  4.052385  0  0  -0.187014  0  4.072775  0  0  -0.119221  -0.181046  0  4.038184  0
C  C62  1  0.07391424  0.59407671  0.58657802  1  0  0.16824  0  3.827407  0  0  0.15809  0  4.077967  0  0  0.165345  0  4.100732  0  0  0.076419  0.153519  0  4.062814  0
C  C63  1  0.92608341  0.40591792  0.41341905  1  0  0.168331  0  3.827238  0  0  0.158163  0  4.077804  0  0  0.165419  0  4.100565  0  0  0.076491  0.153584  0  4.062664  0
C  C64  1  0.09278315  0.48584699  0.58439515  1  0  -0.156651  0  3.774702  0  0  -0.179065  0  4.035046  0  0  -0.182323  0  4.055101  0  0  -0.115507  -0.176537  0  4.021522  0
C  C65  1  0.90720935  0.51414669  0.41559798  1  0  -0.156716  0  3.774461  0  0  -0.179181  0  4.034849  0  0  -0.182413  0  4.054876  0  0  -0.115583  -0.176658  0  4.021357  0
C  C66  1  0.23263479  0.67128639  0.76428898  1  0  -0.164217  0  3.645486  0  0  -0.211429  0  3.897376  0  0  -0.209973  0  3.910586  0  0  -0.059961  -0.21238  0  3.88838  0
C  C67  1  0.76736235  0.32871425  0.23570291  1  0  -0.164193  0  3.645537  0  0  -0.211397  0  3.897337  0  0  -0.209945  0  3.910552  0  0  -0.059931  -0.212339  0  3.888327  0
C  C68  1  0.50646333  0.70403774  0.87776386  1  0  -0.097976  0  3.783033  0  0  -0.057357  0  4.014081  0  0  -0.062363  0  4.040863  0  0  -0.029094  -0.054153  0  3.996273  0
C  C69  1  0.49352741  0.29595679  0.12223805  1  0  -0.09803  0  3.782828  0  0  -0.057477  0  4.014024  0  0  -0.062485  0  4.040806  0  0  -0.029197  -0.054276  0  3.996216  0
C  C70  1  0.65065622  0.75490194  0.90058162  1  0  -0.092667  0  3.775125  0  0  -0.110251  0  4.01792  0  0  -0.112431  0  4.040407  0  0  -0.092791  -0.108584  0  4.003096  0
C  C71  1  0.34933870  0.24509352  0.09942411  1  0  -0.092564  0  3.775039  0  0  -0.110129  0  4.017784  0  0  -0.112309  0  4.040267  0  0  -0.09276  -0.108472  0  4.002995  0
C  C72  1  0.72370305  0.75079064  0.00197023  1  0  -0.069354  0  3.7689  0  0  -0.077817  0  4.007778  0  0  -0.080379  0  4.030968  0  0  -0.092194  -0.076364  0  3.991879  0
C  C73  1  0.27628398  0.24919954  0.99803733  1  0  -0.069363  0  3.769113  0  0  -0.077765  0  4.007911  0  0  -0.080327  0  4.031108  0  0  -0.092007  -0.076314  0  3.991993  0
C  C74  1  0.65413856  0.69424541  0.08115835  1  0  -0.065021  0  3.745736  0  0  -0.079492  0  3.991139  0  0  -0.080929  0  4.011748  0  0  -0.088495  -0.078306  0  3.97711  0
C  C75  1  0.34584462  0.30574471  0.91884631  1  0  -0.065044  0  3.745787  0  0  -0.079379  0  3.991185  0  0  -0.08084  0  4.011797  0  0  -0.088471  -0.078191  0  3.97714  0
C  C76  1  0.51126618  0.64249359  0.05893479  1  0  -0.055184  0  3.75355  0  0  -0.068726  0  4.003104  0  0  -0.071115  0  4.025051  0  0  -0.084382  -0.06723  0  3.988376  0
C  C77  1  0.48871545  0.35749735  0.94106570  1  0  -0.055265  0  3.753465  0  0  -0.068829  0  4.003026  0  0  -0.071219  0  4.024986  0  0  -0.084508  -0.067337  0  3.988298  0
C  C78  1  0.43723668  0.64763290  0.95793198  1  0  -0.07919  0  3.740528  0  0  -0.098829  0  3.98169  0  0  -0.100173  0  4.003649  0  0  -0.086062  -0.098011  0  3.966566  0
C  C79  1  0.56275344  0.35236248  0.04206831  1  0  -0.079298  0  3.740168  0  0  -0.098922  0  3.981348  0  0  -0.100268  0  4.003311  0  0  -0.086063  -0.098102  0  3.966232  0
C  C80  1  0.45031966  0.86788700  0.74288933  1  0  -0.106365  0  3.779926  0  0  -0.064759  0  4.01013  0  0  -0.070781  0  4.03756  0  0  -0.033189  -0.060928  0  3.991212  0
C  C81  1  0.54968643  0.13210948  0.25710972  1  0  -0.106191  0  3.779652  0  0  -0.064629  0  4.009887  0  0  -0.070626  0  4.037246  0  0  -0.033144  -0.06079  0  3.990956  0
C  C82  1  0.46494761  0.94291586  0.84037692  1  0  -0.080541  0  3.755327  0  0  -0.100523  0  3.995951  0  0  -0.10087  0  4.017104  0  0  -0.090186  -0.09975  0  3.981694  0
C  C83  1  0.53506684  0.05707989  0.15962712  1  0  -0.080735  0  3.755316  0  0  -0.10064  0  3.995948  0  0  -0.100984  0  4.017102  0  0  -0.090217  -0.099878  0  3.981669  0
C  C84  1  0.46521161  0.05565452  0.83513288  1  0  -0.075987  0  3.767175  0  0  -0.085307  0  4.012365  0  0  -0.088442  0  4.034348  0  0  -0.089755  -0.083599  0  3.99744  0
C  C85  1  0.53480963  0.94434393  0.16487545  1  0  -0.075703  0  3.76694  0  0  -0.084999  0  4.012093  0  0  -0.08813  0  4.034071  0  0  -0.089657  -0.083293  0  3.997177  0
C  C86  1  0.44972438  0.09366604  0.73278957  1  0  -0.046583  0  3.733957  0  0  -0.061331  0  3.981458  0  0  -0.061283  0  4.000677  0  0  -0.081601  -0.061015  0  3.96758  0
C  C87  1  0.55029262  0.90633407  0.26722084  1  0  -0.046692  0  3.734112  0  0  -0.0615  0  3.981631  0  0  -0.061452  0  4.000829  0  0  -0.081696  -0.061181  0  3.96776  0
C  C88  1  0.43552329  0.01938485  0.63566540  1  0  -0.056983  0  3.724349  0  0  -0.068999  0  3.968798  0  0  -0.071324  0  3.989834  0  0  -0.083782  -0.067017  0  3.953811  0
C  C89  1  0.56448952  0.98061433  0.36434199  1  0  -0.056946  0  3.724046  0  0  -0.068981  0  3.968503  0  0  -0.071307  0  3.98953  0  0  -0.083748  -0.066999  0  3.953515  0
C  C90  1  0.43705476  0.90690843  0.64022310  1  0  -0.082448  0  3.737588  0  0  -0.099801  0  3.978795  0  0  -0.101206  0  4.000156  0  0  -0.085045  -0.098593  0  3.963816  0
C  C91  1  0.56295231  0.09309324  0.35977898  1  0  -0.082556  0  3.737274  0  0  -0.099881  0  3.978513  0  0  -0.10129  0  3.999882  0  0  -0.0851  -0.098677  0  3.963528  0
C  C92  1  0.11794159  0.79365357  0.67341759  1  0  -0.172656  0  3.65611  0  0  -0.218211  0  3.902891  0  0  -0.216635  0  3.916428  0  0  -0.062225  -0.219126  0  3.893277  0
C  C93  1  0.88205847  0.20634712  0.32657465  1  0  -0.172687  0  3.656085  0  0  -0.218243  0  3.902855  0  0  -0.216646  0  3.916388  0  0  -0.062209  -0.219122  0  3.893203  0
C  C94  1  0.02020694  0.79716978  0.87649709  1  0  -0.103038  0  3.774535  0  0  -0.064724  0  4.009224  0  0  -0.069963  0  4.035127  0  0  -0.033012  -0.061413  0  3.99161  0
C  C95  1  0.97979634  0.20283701  0.12350094  1  0  -0.103065  0  3.774386  0  0  -0.064898  0  4.00932  0  0  -0.070139  0  4.035222  0  0  -0.033074  -0.061576  0  3.991696  0
C  C96  1  0.99900722  0.69087524  0.91697872  1  0  -0.089203  0  3.769912  0  0  -0.106554  0  4.012606  0  0  -0.107828  0  4.034409  0  0  -0.089536  -0.105262  0  3.997346  0
C  C97  1  0.00099571  0.30913068  0.08302081  1  0  -0.089216  0  3.770114  0  0  -0.106525  0  4.012829  0  0  -0.107797  0  4.034646  0  0  -0.089558  -0.10523  0  3.997552  0
C  C98  1  0.06345168  0.68856507  0.02269299  1  0  -0.075655  0  3.764912  0  0  -0.086452  0  4.007465  0  0  -0.089724  0  4.029561  0  0  -0.090705  -0.084048  0  3.991537  0
C  C99  1  0.93654760  0.31144167  0.97731186  1  0  -0.075673  0  3.765055  0  0  -0.08649  0  4.007566  0  0  -0.089763  0  4.029659  0  0  -0.0907  -0.084083  0  3.991628  0
C  C100  1  0.14708971  0.79181271  0.08937458  1  0  -0.052669  0  3.741754  0  0  -0.066608  0  3.987862  0  0  -0.066964  0  4.008978  0  0  -0.083822  -0.066089  0  3.972912  0
C  C101  1  0.85290440  0.20819567  0.91062899  1  0  -0.052609  0  3.741623  0  0  -0.066491  0  3.987662  0  0  -0.06684  0  4.008765  0  0  -0.08374  -0.065966  0  3.972705  0
C  C102  1  0.16409809  0.89787079  0.05078236  1  0  -0.067187  0  3.756399  0  0  -0.076957  0  3.99908  0  0  -0.080274  0  4.022059  0  0  -0.090776  -0.074429  0  3.983242  0
C  C103  1  0.83589507  0.10213499  0.94921761  1  0  -0.067157  0  3.75624  0  0  -0.076976  0  3.998958  0  0  -0.080287  0  4.021943  0  0  -0.090813  -0.074455  0  3.983134  0
C  C104  1  0.10171108  0.90100531  0.94461872  1  0  -0.080625  0  3.745348  0  0  -0.099794  0  3.987499  0  0  -0.100218  0  4.008343  0  0  -0.08988  -0.099392  0  3.973314  0
C  C105  1  0.89828892  0.09900057  0.05538046  1  0  -0.080517  0  3.745231  0  0  -0.09972  0  3.987408  0  0  -0.100147  0  4.008258  0  0  -0.08983  -0.099323  0  3.973235  0
C  C106  1  0.94391852  0.92910670  0.70405026  1  0  -0.104591  0  3.776054  0  0  -0.064799  0  4.004713  0  0  -0.070814  0  4.03189  0  0  -0.030399  -0.061016  0  3.98627  0
C  C107  1  0.05608273  0.07089747  0.29595135  1  0  -0.104728  0  3.776205  0  0  -0.064875  0  4.004811  0  0  -0.070891  0  4.031992  0  0  -0.030401  -0.061084  0  3.986361  0
C  C108  1  0.81305348  0.93656291  0.67169245  1  0  -0.07243  0  3.765328  0  0  -0.088878  0  4.003076  0  0  -0.090098  0  4.025946  0  0  -0.086591  -0.087729  0  3.987546  0
C  C109  1  0.18694483  0.06344122  0.32831042  1  0  -0.072318  0  3.765385  0  0  -0.088786  0  4.003104  0  0  -0.090006  0  4.025993  0  0  -0.086548  -0.087636  0  3.987547  0
C  C110  1  0.80022904  0.04119676  0.64741187  1  0  -0.058619  0  3.737907  0  0  -0.069791  0  3.977941  0  0  -0.072809  0  4.000517  0  0  -0.087552  -0.067751  0  3.962311  0
C  C111  1  0.19976989  0.95880652  0.35259262  1  0  -0.058712  0  3.737865  0  0  -0.069855  0  3.977906  0  0  -0.072872  0  4.000481  0  0  -0.087608  -0.067787  0  3.96227  0
C  C112  1  0.91739405  0.13836335  0.65258088  1  0  -0.056349  0  3.746979  0  0  -0.06916  0  3.992291  0  0  -0.069494  0  4.012415  0  0  -0.085648  -0.068886  0  3.978677  0
C  C113  1  0.08260461  0.86164165  0.34742050  1  0  -0.056294  0  3.74694  0  0  -0.069113  0  3.992243  0  0  -0.069447  0  4.012368  0  0  -0.085619  -0.068835  0  3.978617  0
C  C114  1  0.04801285  0.13096720  0.68158291  1  0  -0.067681  0  3.750406  0  0  -0.077009  0  3.991051  0  0  -0.080802  0  4.013373  0  0  -0.090869  -0.074394  0  3.97617  0
C  C115  1  0.95198520  0.86903606  0.31841499  1  0  -0.067709  0  3.75036  0  0  -0.077036  0  3.991029  0  0  -0.080825  0  4.013319  0  0  -0.090886  -0.074422  0  3.976167  0
C  C116  1  0.06157389  0.02717929  0.70806588  1  0  -0.065446  0  3.729831  0  0  -0.082061  0  3.965001  0  0  -0.082094  0  3.986374  0  0  -0.084542  -0.082185  0  3.950257  0
C  C117  1  0.93842319  0.97282395  0.29193191  1  0  -0.065399  0  3.729805  0  0  -0.08207  0  3.964977  0  0  -0.0821  0  3.986344  0  0  -0.084558  -0.0822  0  3.950254  0
N  N118  1  0.14460892  0.68606818  0.67101545  1  0  -0.137567  0  3.492887  0  0  -0.049423  0  3.71989  0  0  -0.068478  0  3.747433  0  0  -0.292359  -0.036129  0  3.700506  0
N  N119  1  0.85539277  0.31393426  0.32897795  1  0  -0.137626  0  3.492868  0  0  -0.049453  0  3.719786  0  0  -0.068503  0  3.747312  0  0  -0.292399  -0.036162  0  3.700375  0
N  N120  1  0.64876668  0.66267395  0.41141150  1  0  0.684785  0  4.116745  0  0  0.722329  0  4.393111  0  0  0.751757  0  4.399509  0  0  0.095825  0.702571  0  4.387601  0
N  N121  1  0.35123386  0.33732073  0.58858754  1  0  0.685009  0  4.116654  0  0  0.722355  0  4.393302  0  0  0.739721  0  4.416856  0  0  0.095875  0.702603  0  4.387777  0
N  N122  1  0.72500911  0.36496835  0.66185339  1  0  0.686795  0  4.122128  0  0  0.731141  0  4.387266  0  0  0.74617  0  4.414708  0  0  0.102068  0.711396  0  4.381663  0
N  N123  1  0.27499557  0.63503153  0.33813446  1  0  0.686738  0  4.121801  0  0  0.731134  0  4.386884  0  0  0.746047  0  4.41449  0  0  0.102047  0.711377  0  4.381299  0
O  O124  1  0.61381546  0.58791106  0.48138861  1  0  -0.499246  0  2.02666  0  0  -0.437999  0  2.303507  0  0  -0.462437  0  2.288433  0  0  -0.248552  -0.41993  0  2.313521  0
O  O125  1  0.38618703  0.41208623  0.51861252  1  0  -0.499364  0  2.026577  0  0  -0.438087  0  2.303551  0  0  -0.458644  0  2.292725  0  0  -0.24861  -0.420026  0  2.313567  0
O  O126  1  0.65741397  0.76486315  0.43948617  1  0  -0.41166  0  1.76667  0  0  -0.408814  0  1.979305  0  0  -0.422142  0  1.974015  0  0  -0.156216  -0.399725  0  1.982697  0
O  O127  1  0.34259733  0.23513427  0.56051279  1  0  -0.411753  0  1.766531  0  0  -0.408798  0  1.979186  0  0  -0.417966  0  1.979047  0  0  -0.15621  -0.399731  0  1.982597  0
O  O128  1  0.67221196  0.62578803  0.32053936  1  0  -0.434125  0  1.767651  0  0  -0.423358  0  1.972456  0  0  -0.438505  0  1.966076  0  0  -0.166268  -0.413049  0  1.976658  0
O  O129  1  0.32778367  0.37420140  0.67945862  1  0  -0.434175  0  1.767732  0  0  -0.423296  0  1.972562  0  0  -0.434336  0  1.971302  0  0  -0.166269  -0.412993  0  1.976755  0
O  O130  1  0.80942554  0.41029101  0.74886625  1  0  -0.445929  0  1.728317  0  0  -0.438485  0  1.925445  0  0  -0.448497  0  1.925064  0  0  -0.181707  -0.428262  0  1.92974  0
O  O131  1  0.19057801  0.58970111  0.25112563  1  0  -0.446014  0  1.728173  0  0  -0.438577  0  1.925257  0  0  -0.44854  0  1.924922  0  0  -0.181732  -0.428349  0  1.929558  0
O  O132  1  0.66970657  0.43152816  0.60836770  1  0  -0.480507  0  1.952835  0  0  -0.427278  0  2.222193  0  0  -0.447801  0  2.214827  0  0  -0.247271  -0.409018  0  2.230907  0
O  O133  1  0.33029402  0.56847428  0.39163367  1  0  -0.480481  0  1.952547  0  0  -0.427337  0  2.221969  0  0  -0.447819  0  2.214669  0  0  -0.247287  -0.409076  0  2.230692  0
O  O134  1  0.68892820  0.26064645  0.62255365  1  0  -0.418296  0  1.772893  0  0  -0.411411  0  1.979898  0  0  -0.421619  0  1.981973  0  0  -0.155804  -0.400974  0  1.982489  0
O  O135  1  0.31108546  0.73935873  0.37742441  1  0  -0.418185  0  1.772903  0  0  -0.411262  0  1.979821  0  0  -0.421433  0  1.981945  0  0  -0.155737  -0.400812  0  1.9824  0
