# generated using pymatgen
data_KH10C11SNO5
_symmetry_space_group_name_H-M   'P 1'
_cell_length_a   7.82308901
_cell_length_b   8.08165849
_cell_length_c   11.25435601
_cell_angle_alpha   96.79721996
_cell_angle_beta   105.23917625
_cell_angle_gamma   114.66292556
_symmetry_Int_Tables_number   1
_chemical_formula_structural   KH10C11SNO5
_chemical_formula_sum   'K2 H20 C22 S2 N2 O10'
_cell_volume   602.42606199
_cell_formula_units_Z   2
loop_
 _symmetry_equiv_pos_site_id
 _symmetry_equiv_pos_as_xyz
  1  'x, y, z'
loop_
 _atom_site_type_symbol
 _atom_site_label
 _atom_site_symmetry_multiplicity
 _atom_site_fract_x
 _atom_site_fract_y
 _atom_site_fract_z
 _atom_site_occupancy
 _atom_site_hle17_bader_spin_density
 _atom_site_hle17_ddec_charge
 _atom_site_hle17_ddec_spin_density
 _atom_site_hle17_ddec_sum_bond_order
 _atom_site_hle17_magmom
 _atom_site_hse06_10hf_bader_spin_density
 _atom_site_hse06_10hf_ddec_charge
 _atom_site_hse06_10hf_ddec_spin_density
 _atom_site_hse06_10hf_ddec_sum_bond_order
 _atom_site_hse06_10hf_magmom
 _atom_site_hse06_bader_spin_density
 _atom_site_hse06_ddec_charge
 _atom_site_hse06_ddec_spin_density
 _atom_site_hse06_ddec_sum_bond_order
 _atom_site_hse06_magmom
 _atom_site_pbe_bader_spin_density
 _atom_site_pbe_cm5_charge
 _atom_site_pbe_ddec_charge
 _atom_site_pbe_ddec_spin_density
 _atom_site_pbe_ddec_sum_bond_order
 _atom_site_pbe_magmom
K  K0  1  0.47446525  0.24677767  0.50614444  1  0  0.941331  0  0.435888  0  0  0.899241  0  0.607432  0  0  0.913072  0  0.585242  0  0  0.779672  0.888624  0  0.623603  0
K  K1  1  0.52553379  0.75322935  0.49385568  1  0  0.941321  0  0.43591  0  0  0.899243  0  0.607458  0  0  0.913069  0  0.585268  0  0  0.779682  0.888624  0  0.623633  0
H  H2  1  0.25831758  0.52923401  0.10756170  1  0  0.114593  0  0.975429  0  0  0.123866  0  1.037092  0  0  0.12782  0  1.034851  0  0  0.106333  0.121019  0  1.038842  0
H  H3  1  0.74167843  0.47076453  0.89243622  1  0  0.114623  0  0.975441  0  0  0.123911  0  1.037076  0  0  0.127868  0  1.034833  0  0  0.106357  0.121065  0  1.038826  0
H  H4  1  0.54563871  0.84507776  0.17981799  1  0  0.095656  0  0.940495  0  0  0.107499  0  0.999242  0  0  0.111078  0  0.996399  0  0  0.110651  0.104894  0  1.001335  0
H  H5  1  0.45435477  0.15492081  0.82018219  1  0  0.095615  0  0.94046  0  0  0.107475  0  0.999194  0  0  0.111055  0  0.996348  0  0  0.110639  0.10487  0  1.001287  0
H  H6  1  0.70012314  0.98874845  0.02619969  1  0  0.082474  0  0.979772  0  0  0.098684  0  1.035433  0  0  0.100454  0  1.036438  0  0  0.098202  0.097313  0  1.035074  0
H  H7  1  0.29987544  0.01124720  0.97380015  1  0  0.082531  0  0.979714  0  0  0.09873  0  1.035374  0  0  0.100506  0  1.036377  0  0  0.098219  0.09736  0  1.035018  0
H  H8  1  0.56911093  0.80383926  0.79898214  1  0  0.101224  0  0.960153  0  0  0.108904  0  1.02717  0  0  0.113377  0  1.022804  0  0  0.107993  0.105601  0  1.030405  0
H  H9  1  0.43089108  0.19616061  0.20101779  1  0  0.101242  0  0.960187  0  0  0.108911  0  1.02721  0  0  0.113405  0  1.022821  0  0  0.107995  0.105608  0  1.030445  0
H  H10  1  0.85102789  0.22163275  0.25972067  1  0  0.088699  0  0.958538  0  0  0.103203  0  1.028348  0  0  0.102953  0  1.029325  0  0  0.099325  0.103288  0  1.027783  0
H  H11  1  0.14897357  0.77836854  0.74028019  1  0  0.088751  0  0.958634  0  0  0.103259  0  1.028437  0  0  0.103012  0  1.029412  0  0  0.099376  0.103345  0  1.027868  0
H  H12  1  0.89016966  0.01774734  0.25992490  1  0  0.083116  0  0.964557  0  0  0.093284  0  1.044644  0  0  0.093586  0  1.044607  0  0  0.096691  0.092988  0  1.044748  0
H  H13  1  0.10982464  0.98225263  0.74007821  1  0  0.083137  0  0.964555  0  0  0.093313  0  1.044633  0  0  0.093598  0  1.044615  0  0  0.096714  0.09302  0  1.044729  0
H  H14  1  0.07740007  0.23027273  0.24409016  1  0  0.095563  0  0.931887  0  0  0.116676  0  0.990285  0  0  0.117508  0  0.989131  0  0  0.109685  0.115649  0  0.992169  0
H  H15  1  0.92260131  0.76972287  0.75591458  1  0  0.095534  0  0.931885  0  0  0.116683  0  0.990252  0  0  0.117516  0  0.989095  0  0  0.109687  0.115654  0  0.992138  0
H  H16  1  0.12665555  0.21719158  0.03245786  1  0  0.098554  0  0.966046  0  0  0.118437  0  1.031865  0  0  0.118635  0  1.032695  0  0  0.106147  0.118092  0  1.032076  0
H  H17  1  0.87333870  0.78279848  0.96753718  1  0  0.098579  0  0.966049  0  0  0.118441  0  1.031891  0  0  0.11864  0  1.032718  0  0  0.10615  0.118097  0  1.032103  0
H  H18  1  0.88885751  0.07150297  0.91044627  1  0  0.108326  0  0.96471  0  0  0.128749  0  1.02642  0  0  0.129619  0  1.026413  0  0  0.11113  0.128122  0  1.026562  0
H  H19  1  0.11113951  0.92849274  0.08954710  1  0  0.108277  0  0.964821  0  0  0.128764  0  1.026447  0  0  0.129636  0  1.026435  0  0  0.111117  0.128133  0  1.026596  0
H  H20  1  0.93326595  0.28756732  0.00693549  1  0  0.091994  0  0.957252  0  0  0.110665  0  1.023326  0  0  0.111011  0  1.024072  0  0  0.096798  0.110289  0  1.023282  0
H  H21  1  0.06673104  0.71242839  0.99305699  1  0  0.092041  0  0.957214  0  0  0.110704  0  1.023293  0  0  0.111048  0  1.024042  0  0  0.096825  0.110332  0  1.023245  0
C  C22  1  0.24513118  0.48758473  0.91045620  1  0  0.190678  0  3.79029  0  0  0.177294  0  4.036635  0  0  0.18683  0  4.057727  0  0  0.096725  0.170847  0  4.022206  0
C  C23  1  0.75486887  0.51241374  0.08954504  1  0  0.190705  0  3.790314  0  0  0.177315  0  4.036675  0  0  0.18685  0  4.057769  0  0  0.096713  0.170867  0  4.022247  0
C  C24  1  0.32540304  0.58755535  0.03924376  1  0  -0.164622  0  3.731893  0  0  -0.182341  0  3.98584  0  0  -0.187739  0  4.004499  0  0  -0.096428  -0.178735  0  3.97317  0
C  C25  1  0.67459068  0.41243613  0.96075310  1  0  -0.164773  0  3.731951  0  0  -0.182505  0  3.98592  0  0  -0.18791  0  4.004588  0  0  -0.096452  -0.178898  0  3.973248  0
C  C26  1  0.48929180  0.76637701  0.08039318  1  0  -0.030892  0  3.755935  0  0  -0.05176  0  4.015884  0  0  -0.049046  0  4.032547  0  0  -0.082957  -0.053275  0  4.004317  0
C  C27  1  0.51070966  0.23362428  0.91960768  1  0  -0.030726  0  3.755861  0  0  -0.051604  0  4.01581  0  0  -0.048892  0  4.032475  0  0  -0.082927  -0.053121  0  4.004246  0
C  C28  1  0.57636910  0.84626682  0.99420513  1  0  -0.102084  0  3.812646  0  0  -0.117685  0  4.067708  0  0  -0.121911  0  4.089519  0  0  -0.103476  -0.114889  0  4.052691  0
C  C29  1  0.42363087  0.15372881  0.00579671  1  0  -0.102174  0  3.8126  0  0  -0.117763  0  4.067654  0  0  -0.121997  0  4.089478  0  0  -0.103497  -0.114968  0  4.052635  0
C  C30  1  0.50191534  0.74481093  0.86747607  1  0  -0.067562  0  3.741046  0  0  -0.091389  0  3.99358  0  0  -0.088488  0  4.009505  0  0  -0.083587  -0.092925  0  3.982584  0
C  C31  1  0.49809128  0.25518745  0.13252625  1  0  -0.067653  0  3.741126  0  0  -0.091477  0  3.993688  0  0  -0.088594  0  4.009605  0  0  -0.083617  -0.093013  0  3.982691  0
C  C32  1  0.33619860  0.56414180  0.82328150  1  0  -0.127024  0  3.75795  0  0  -0.111031  0  3.997237  0  0  -0.120493  0  4.019273  0  0  -0.026764  -0.104956  0  3.982455  0
C  C33  1  0.66380929  0.43585942  0.17671686  1  0  -0.126923  0  3.757847  0  0  -0.110912  0  3.997132  0  0  -0.120375  0  4.019179  0  0  -0.026757  -0.104837  0  3.982352  0
C  C34  1  0.26756143  0.45687193  0.68837718  1  0  0.450705  0  3.852335  0  0  0.420771  0  4.13146  0  0  0.449618  0  4.132679  0  0  0.122157  0.401319  0  4.13021  0
C  C35  1  0.73243683  0.54313083  0.31162418  1  0  0.450626  0  3.852529  0  0  0.420653  0  4.131703  0  0  0.449489  0  4.13293  0  0  0.122162  0.401197  0  4.130458  0
C  C36  1  0.06651073  0.30539700  0.63236148  1  0  -0.523158  0  3.647479  0  0  -0.513545  0  3.93835  0  0  -0.539692  0  3.951328  0  0  -0.082628  -0.495986  0  3.929303  0
C  C37  1  0.93349160  0.69460854  0.36764083  1  0  -0.523198  0  3.647546  0  0  -0.513534  0  3.938401  0  0  -0.539667  0  3.951372  0  0  -0.082627  -0.495967  0  3.929338  0
C  C38  1  0.95527564  0.21559222  0.49773458  1  0  0.637503  0  3.855325  0  0  0.5884  0  4.144823  0  0  0.624589  0  4.137154  0  0  0.215834  0.563852  0  4.149482  0
C  C39  1  0.04471840  0.78440493  0.50226466  1  0  0.637544  0  3.855216  0  0  0.588436  0  4.144756  0  0  0.62462  0  4.137085  0  0  0.215802  0.563888  0  4.149417  0
C  C40  1  0.96298109  0.17226819  0.28759197  1  0  -0.058872  0  3.598553  0  0  -0.16062  0  3.869496  0  0  -0.151769  0  3.870636  0  0  -0.142382  -0.166598  0  3.869387  0
C  C41  1  0.03702179  0.82773307  0.71241179  1  0  -0.058957  0  3.598695  0  0  -0.160711  0  3.869641  0  0  -0.151844  0  3.870793  0  0  -0.142489  -0.166701  0  3.869559  0
C  C42  1  0.00113623  0.21691602  0.96052022  1  0  -0.152087  0  3.662781  0  0  -0.25559  0  3.917238  0  0  -0.250938  0  3.925198  0  0  -0.141206  -0.259014  0  3.91272  0
C  C43  1  0.99886283  0.78308108  0.03947362  1  0  -0.15218  0  3.66277  0  0  -0.255711  0  3.917177  0  0  -0.251059  0  3.925141  0  0  -0.141263  -0.259139  0  3.912663  0
S  S44  1  0.91019787  0.25234255  0.72250780  1  0  1.236293  0  5.383147  0  0  1.148937  0  5.885379  0  0  1.194892  0  5.870883  0  0  0.550652  1.117085  0  5.89463  0
S  S45  1  0.08980190  0.74766588  0.27749258  1  0  1.236257  0  5.383231  0  0  1.148892  0  5.885477  0  0  1.194846  0  5.870973  0  0  0.550636  1.117037  0  5.894735  0
N  N46  1  0.07797039  0.30841486  0.86821551  1  0  -0.320809  0  3.357988  0  0  -0.232756  0  3.610208  0  0  -0.253696  0  3.627366  0  0  -0.2986  -0.217762  0  3.597478  0
N  N47  1  0.92203127  0.69157935  0.13178114  1  0  -0.320663  0  3.357719  0  0  -0.232607  0  3.609925  0  0  -0.25354  0  3.627071  0  0  -0.298535  -0.217618  0  3.597207  0
O  O48  1  0.38854638  0.50633257  0.62807957  1  0  -0.6351  0  1.957742  0  0  -0.600431  0  2.195075  0  0  -0.620649  0  2.186238  0  0  -0.448491  -0.586194  0  2.200793  0
O  O49  1  0.61145894  0.49367154  0.37191686  1  0  -0.635009  0  1.957962  0  0  -0.600324  0  2.195305  0  0  -0.620537  0  2.186473  0  0  -0.448452  -0.58609  0  2.201027  0
O  O50  1  0.76897257  0.12247665  0.45098037  1  0  -0.63591  0  1.931533  0  0  -0.594189  0  2.154943  0  0  -0.615595  0  2.145893  0  0  -0.356722  -0.579115  0  2.160723  0
O  O51  1  0.23102912  0.87752748  0.54902347  1  0  -0.635978  0  1.931315  0  0  -0.594252  0  2.154752  0  0  -0.615659  0  2.145702  0  0  -0.356753  -0.579174  0  2.160528  0
O  O52  1  0.07148378  0.24300799  0.42343284  1  0  -0.303569  0  2.306395  0  0  -0.224546  0  2.547264  0  0  -0.24445  0  2.544021  0  0  -0.191942  -0.210544  0  2.548989  0
O  O53  1  0.92851591  0.75699474  0.57657142  1  0  -0.303521  0  2.30641  0  0  -0.22457  0  2.547363  0  0  -0.244475  0  2.544118  0  0  -0.191884  -0.210567  0  2.549088  0
O  O54  1  0.77748848  0.05166370  0.69587380  1  0  -0.650841  0  1.995392  0  0  -0.610581  0  2.255783  0  0  -0.630504  0  2.242882  0  0  -0.382758  -0.596343  0  2.264141  0
O  O55  1  0.22250574  0.94833913  0.30412424  1  0  -0.650845  0  1.995578  0  0  -0.610569  0  2.255957  0  0  -0.630503  0  2.243076  0  0  -0.382745  -0.596325  0  2.264306  0
O  O56  1  0.81198800  0.37166770  0.71948032  1  0  -0.64418  0  1.937881  0  0  -0.598158  0  2.183383  0  0  -0.620077  0  2.172618  0  0  -0.370056  -0.582651  0  2.190381  0
O  O57  1  0.18801863  0.62834344  0.28052589  1  0  -0.644178  0  1.937807  0  0  -0.59818  0  2.183341  0  0  -0.6201  0  2.172576  0  0  -0.370075  -0.582675  0  2.19034  0
