# generated using pymatgen
data_CdH22C32N4O7
_symmetry_space_group_name_H-M   'P 1'
_cell_length_a   10.40841998
_cell_length_b   11.80691242
_cell_length_c   13.73000000
_cell_angle_alpha   76.29050586
_cell_angle_beta   73.00579932
_cell_angle_gamma   64.78431068
_symmetry_Int_Tables_number   1
_chemical_formula_structural   CdH22C32N4O7
_chemical_formula_sum   'Cd2 H44 C64 N8 O14'
_cell_volume   1447.46984892
_cell_formula_units_Z   2
loop_
 _symmetry_equiv_pos_site_id
 _symmetry_equiv_pos_as_xyz
  1  'x, y, z'
loop_
 _atom_site_type_symbol
 _atom_site_label
 _atom_site_symmetry_multiplicity
 _atom_site_fract_x
 _atom_site_fract_y
 _atom_site_fract_z
 _atom_site_occupancy
 _atom_site_hle17_bader_spin_density
 _atom_site_hle17_ddec_charge
 _atom_site_hle17_ddec_spin_density
 _atom_site_hle17_ddec_sum_bond_order
 _atom_site_hle17_magmom
 _atom_site_hse06_10hf_bader_spin_density
 _atom_site_hse06_10hf_ddec_charge
 _atom_site_hse06_10hf_ddec_spin_density
 _atom_site_hse06_10hf_ddec_sum_bond_order
 _atom_site_hse06_10hf_magmom
 _atom_site_hse06_bader_spin_density
 _atom_site_hse06_ddec_charge
 _atom_site_hse06_ddec_spin_density
 _atom_site_hse06_ddec_sum_bond_order
 _atom_site_hse06_magmom
 _atom_site_pbe_bader_charge
 _atom_site_pbe_bader_spin_density
 _atom_site_pbe_cm5_charge
 _atom_site_pbe_ddec_charge
 _atom_site_pbe_ddec_spin_density
 _atom_site_pbe_ddec_sum_bond_order
 _atom_site_pbe_magmom
Cd  Cd0  1  0.98761235  0.98595700  0.21367096  1  0  1.103331  0  1.680908  0  0  0.904706  0  2.129012  0  0  0.96311  0  2.078494  0  1.251933  0  0.770398  0.859055  0  2.166821  0
Cd  Cd1  1  0.01238685  0.01404281  0.78632940  1  0  1.103362  0  1.680895  0  0  0.904759  0  2.128988  0  0  0.963159  0  2.078471  0  1.251938  0  0.770419  0.85911  0  2.166795  0
H  H2  1  0.72122630  0.29484906  0.90381268  1  0  0.305413  0  0.913283  0  0  0.283896  0  0.983881  0  0  0.29192  0  0.977642  0  0.495485  0  0.30945  0.278119  0  0.988409  0
H  H3  1  0.27877030  0.70514982  0.09618917  1  0  0.305328  0  0.913429  0  0  0.283835  0  0.983982  0  0  0.291858  0  0.977744  0  0.495578  0  0.30943  0.278058  0  0.988508  0
H  H4  1  0.07979922  0.24930740  0.43773651  1  0  0.291871  0  0.880276  0  0  0.2856  0  0.924944  0  0  0.291797  0  0.920935  0  0.468125  0  0.32715  0.281043  0  0.928154  0
H  H5  1  0.92020927  0.75068959  0.56225946  1  0  0.29185  0  0.880328  0  0  0.285599  0  0.924953  0  0  0.291792  0  0.920945  0  0.468241  0  0.327144  0.281041  0  0.928164  0
H  H6  1  0.46274371  0.99754400  0.22339640  1  0  0.104589  0  0.946953  0  0  0.111381  0  1.013193  0  0  0.116383  0  1.00801  0  0.098597  0  0.101867  0.10786  0  1.017091  0
H  H7  1  0.53726160  0.00245110  0.77660867  1  0  0.104577  0  0.947025  0  0  0.111364  0  1.01327  0  0  0.116367  0  1.008086  0  0.098461  0  0.101847  0.107839  0  1.017173  0
H  H8  1  0.46319276  0.79414933  0.00074080  1  0  0.095688  0  0.942581  0  0  0.105545  0  1.004371  0  0  0.109086  0  1.00175  0  0.094634  0  0.103182  0.103044  0  1.006156  0
H  H9  1  0.53680543  0.20585049  0.99926343  1  0  0.095712  0  0.94259  0  0  0.105548  0  1.004403  0  0  0.109089  0  1.001783  0  0.094541  0  0.103176  0.103048  0  1.006187  0
H  H10  1  0.72966467  0.73007621  0.94089824  1  0  0.098051  0  0.967012  0  0  0.109375  0  1.025507  0  0  0.112605  0  1.023831  0  0.065248  0  0.100285  0.107109  0  1.026851  0
H  H11  1  0.27033110  0.26992455  0.05910342  1  0  0.098071  0  0.967002  0  0  0.109357  0  1.025551  0  0  0.112586  0  1.023875  0  0.065235  0  0.100291  0.107094  0  1.026889  0
H  H12  1  0.86475736  0.79501986  0.02792334  1  0  0.089181  0  0.997421  0  0  0.095919  0  1.066672  0  0  0.098242  0  1.066606  0  0.124831  0  0.096566  0.094344  0  1.066567  0
H  H13  1  0.13524000  0.20498184  0.97207558  1  0  0.089189  0  0.997412  0  0  0.095942  0  1.066645  0  0  0.098265  0  1.066577  0  0.124809  0  0.096576  0.094367  0  1.06654  0
H  H14  1  0.02215122  0.24152545  0.20635834  1  0  0.075713  0  0.958149  0  0  0.084668  0  1.022968  0  0  0.087312  0  1.020493  0  0.102614  0  0.111121  0.082559  0  1.025147  0
H  H15  1  0.97785350  0.75846870  0.79364122  1  0  0.075681  0  0.958243  0  0  0.084659  0  1.023045  0  0  0.087284  0  1.020589  0  0.102591  0  0.111123  0.08255  0  1.025224  0
H  H16  1  0.95001740  0.46495755  0.12019999  1  0  0.099238  0  0.953546  0  0  0.112439  0  1.007929  0  0  0.115007  0  1.007689  0  0.066835  0  0.107102  0.110501  0  1.008438  0
H  H17  1  0.04998448  0.53503849  0.87980055  1  0  0.09924  0  0.953515  0  0  0.112419  0  1.007923  0  0  0.114988  0  1.007684  0  0.066794  0  0.107086  0.110482  0  1.008432  0
H  H18  1  0.80844698  0.53185943  0.98282908  1  0  0.114055  0  1.004587  0  0  0.119433  0  1.071716  0  0  0.123148  0  1.068826  0  0.141461  0  0.107293  0.116728  0  1.073815  0
H  H19  1  0.19155347  0.46813755  0.01717158  1  0  0.114032  0  1.004613  0  0  0.119451  0  1.071703  0  0  0.123167  0  1.068812  0  0.141436  0  0.10729  0.116739  0  1.073803  0
H  H20  1  0.82463099  0.15186407  0.02991867  1  0  0.108475  0  0.938801  0  0  0.11461  0  1.00321  0  0  0.117985  0  1.000217  0  0.143527  0  0.124144  0.111871  0  1.005919  0
H  H21  1  0.17536704  0.84813386  0.97008234  1  0  0.108507  0  0.938759  0  0  0.114627  0  1.003186  0  0  0.118005  0  1.000189  0  0.143564  0  0.124133  0.111876  0  1.00591  0
H  H22  1  0.49232947  0.69948001  0.77827605  1  0  0.112131  0  0.935329  0  0  0.121308  0  0.993385  0  0  0.125269  0  0.990084  0  0.115406  0  0.110147  0.11836  0  0.995849  0
H  H23  1  0.50766747  0.30052264  0.22172132  1  0  0.112138  0  0.935266  0  0  0.121288  0  0.993357  0  0  0.12525  0  0.990058  0  0.115407  0  0.110128  0.118364  0  0.995796  0
H  H24  1  0.33251895  0.72656858  0.66304246  1  0  0.11237  0  0.975325  0  0  0.121635  0  1.037324  0  0  0.123882  0  1.038267  0  0.090956  0  0.103382  0.120041  0  1.036883  0
H  H25  1  0.66748310  0.27342935  0.33695256  1  0  0.11234  0  0.97527  0  0  0.121587  0  1.037294  0  0  0.123831  0  1.038239  0  0.090922  0  0.10334  0.119993  0  1.036853  0
H  H26  1  0.49227714  0.32299134  0.67464679  1  0  0.112419  0  0.950233  0  0  0.124324  0  1.00767  0  0  0.126839  0  1.007845  0  0.076416  0  0.107341  0.122643  0  1.007403  0
H  H27  1  0.50771427  0.67700565  0.32536024  1  0  0.112439  0  0.950286  0  0  0.124317  0  1.00775  0  0  0.126855  0  1.007897  0  0.07653  0  0.107361  0.122636  0  1.007481  0
H  H28  1  0.65152297  0.29578946  0.78790405  1  0  0.095301  0  1.000719  0  0  0.103755  0  1.065579  0  0  0.106461  0  1.063839  0  0.126678  0  0.105188  0.101833  0  1.066866  0
H  H29  1  0.34846836  0.70421224  0.21209913  1  0  0.09524  0  1.000627  0  0  0.103726  0  1.06545  0  0  0.106434  0  1.063714  0  0.126655  0  0.105151  0.101803  0  1.066738  0
H  H30  1  0.29155859  0.50300524  0.42716609  1  0  0.118378  0  0.962367  0  0  0.126297  0  1.026848  0  0  0.128673  0  1.027984  0  0.116736  0  0.105746  0.124511  0  1.026307  0
H  H31  1  0.70844119  0.49699552  0.57283322  1  0  0.118338  0  0.962427  0  0  0.126266  0  1.026888  0  0  0.128638  0  1.028033  0  0.116755  0  0.105729  0.124479  0  1.02635  0
H  H32  1  0.15247587  0.38268156  0.42004442  1  0  0.089643  0  0.94412  0  0  0.10426  0  0.997603  0  0  0.107082  0  0.995843  0  0.059522  0  0.107107  0.10226  0  0.998844  0
H  H33  1  0.84752291  0.61731920  0.57995293  1  0  0.089669  0  0.944113  0  0  0.104298  0  0.997582  0  0  0.107112  0  0.995839  0  0.059568  0  0.107132  0.1023  0  0.998815  0
H  H34  1  0.06566324  0.29956430  0.75156485  1  0  0.115772  0  0.952088  0  0  0.122425  0  1.014376  0  0  0.126181  0  1.011631  0  0.146374  0  0.109804  0.119678  0  1.016487  0
H  H35  1  0.93433738  0.70043457  0.24843321  1  0  0.115773  0  0.95204  0  0  0.12242  0  1.014334  0  0  0.126176  0  1.01159  0  0.146375  0  0.109806  0.119673  0  1.016444  0
H  H36  1  0.21011696  0.41958773  0.75723866  1  0  0.113369  0  0.964731  0  0  0.122711  0  1.026387  0  0  0.125495  0  1.026544  0  0.069788  0  0.106762  0.120676  0  1.02659  0
H  H37  1  0.78988183  0.58041303  0.24276014  1  0  0.113331  0  0.964772  0  0  0.122669  0  1.026436  0  0  0.125452  0  1.026594  0  0.069745  0  0.10676  0.120635  0  1.026637  0
H  H38  1  0.62061826  0.10483721  0.57968145  1  0  0.111833  0  0.928437  0  0  0.126491  0  0.977179  0  0  0.129328  0  0.976664  0  0.106419  0  0.115766  0.124296  0  0.97793  0
H  H39  1  0.37938388  0.89516732  0.42032166  1  0  0.111819  0  0.928433  0  0  0.126526  0  0.977134  0  0  0.129362  0  0.976619  0  0.106294  0  0.115761  0.124329  0  0.977888  0
H  H40  1  0.75501145  0.21075740  0.62487453  1  0  0.119604  0  0.966155  0  0  0.128317  0  1.028002  0  0  0.13119  0  1.025931  0  0.137527  0  0.113855  0.126126  0  1.029666  0
H  H41  1  0.24499237  0.78925469  0.37512158  1  0  0.119626  0  0.966229  0  0  0.128279  0  1.02814  0  0  0.131151  0  1.02607  0  0.137436  0  0.113821  0.126086  0  1.029805  0
H  H42  1  0.07340909  0.11343776  0.34323933  1  0  0.104314  0  0.968409  0  0  0.113133  0  1.032338  0  0  0.11678  0  1.0285  0  0.159235  0  0.120003  0.110337  0  1.035315  0
H  H43  1  0.92659438  0.88655922  0.65675993  1  0  0.104318  0  0.968322  0  0  0.113146  0  1.032251  0  0  0.116793  0  1.028408  0  0.159314  0  0.120002  0.11035  0  1.035229  0
H  H44  1  0.71566894  0.01792057  0.40927993  1  0  0.101303  0  0.944897  0  0  0.109753  0  1.005748  0  0  0.11293  0  1.002627  0  0.137756  0  0.118505  0.107296  0  1.008122  0
H  H45  1  0.28432893  0.98208680  0.59072138  1  0  0.101271  0  0.944927  0  0  0.10972  0  1.005768  0  0  0.112896  0  1.002651  0  0.138467  0  0.118497  0.107263  0  1.00814  0
C  C46  1  0.75643247  0.93964300  0.17868436  1  0  0.624828  0  3.961242  0  0  0.57829  0  4.251648  0  0  0.61212  0  4.246857  0  1.543468  0  0.187253  0.555136  0  4.25386  0
C  C47  1  0.24357242  0.06035304  0.82131478  1  0  0.624883  0  3.961236  0  0  0.578356  0  4.251619  0  0  0.612187  0  4.246825  0  1.543475  0  0.187286  0.555202  0  4.253834  0
C  C48  1  0.67298944  0.89792150  0.13166542  1  0  -0.072145  0  3.761121  0  0  -0.044392  0  3.990509  0  0  -0.054594  0  4.014958  0  -0.100692  0  -0.022905  -0.038019  0  3.974781  0
C  C49  1  0.32701160  0.10207643  0.86833564  1  0  -0.072187  0  3.761019  0  0  -0.044435  0  3.990415  0  0  -0.054637  0  4.014865  0  -0.100541  0  -0.022922  -0.038061  0  3.974685  0
C  C50  1  0.52198521  0.93630815  0.16340238  1  0  -0.069589  0  3.70293  0  0  -0.102894  0  3.944903  0  0  -0.100177  0  3.964001  0  0.047255  0  -0.078154  -0.105144  0  3.933308  0
C  C51  1  0.47801826  0.06368883  0.83660053  1  0  -0.069516  0  3.702864  0  0  -0.102833  0  3.944811  0  0  -0.10012  0  3.963909  0  0.047323  0  -0.078122  -0.105073  0  3.933224  0
C  C52  1  0.44636924  0.89794227  0.11700320  1  0  -0.081216  0  3.782735  0  0  -0.053482  0  4.013326  0  0  -0.064356  0  4.039448  0  -0.047255  0  -0.023058  -0.046495  0  3.996311  0
C  C53  1  0.55363138  0.10205660  0.88299995  1  0  -0.081287  0  3.782719  0  0  -0.053489  0  4.013202  0  0  -0.064361  0  4.039321  0  -0.046358  0  -0.023052  -0.046526  0  3.996218  0
C  C54  1  0.28564061  0.93572182  0.15294130  1  0  0.627904  0  3.92591  0  0  0.57949  0  4.213986  0  0  0.613357  0  4.209383  0  1.536662  0  0.193109  0.556131  0  4.216432  0
C  C55  1  0.71435959  0.06427800  0.84706103  1  0  0.627853  0  3.925947  0  0  0.579443  0  4.213992  0  0  0.613311  0  4.209389  0  1.53735  0  0.193109  0.556092  0  4.216436  0
C  C56  1  0.52251261  0.82250971  0.03751233  1  0  -0.046448  0  3.716144  0  0  -0.074497  0  3.967884  0  0  -0.071908  0  3.987359  0  -0.04347  0  -0.078317  -0.074967  0  3.953661  0
C  C57  1  0.47748517  0.17749105  0.96249107  1  0  -0.046529  0  3.716114  0  0  -0.074577  0  3.967838  0  0  -0.071988  0  3.987313  0  -0.044263  0  -0.078354  -0.075038  0  3.953619  0
C  C58  1  0.67279801  0.78547513  0.00474503  1  0  -0.082325  0  3.765132  0  0  -0.093495  0  4.018746  0  0  -0.09871  0  4.040262  0  -0.008834  0  -0.093564  -0.090071  0  4.003274  0
C  C59  1  0.32720019  0.21452469  0.99525556  1  0  -0.082206  0  3.765061  0  0  -0.093352  0  4.018672  0  0  -0.098568  0  4.040188  0  -0.009006  0  -0.093524  -0.089932  0  4.003199  0
C  C60  1  0.74764876  0.82203762  0.05231858  1  0  -0.055429  0  3.715139  0  0  -0.082474  0  3.962938  0  0  -0.079763  0  3.982437  0  -0.100222  0  -0.085357  -0.082993  0  3.948744  0
C  C61  1  0.25235044  0.17796220  0.94768251  1  0  -0.055494  0  3.715118  0  0  -0.08255  0  3.962913  0  0  -0.079836  0  3.98241  0  -0.10009  0  -0.085362  -0.083067  0  3.948719  0
C  C62  1  0.95750053  0.27556509  0.14823777  1  0  0.097331  0  3.74704  0  0  0.060386  0  4.009664  0  0  0.066206  0  4.028398  0  0.43366  0  0.030823  0.056483  0  3.997016  0
C  C63  1  0.04250194  0.72443189  0.85175953  1  0  0.097413  0  3.74708  0  0  0.060426  0  4.009712  0  0  0.066261  0  4.028454  0  0.433703  0  0.030836  0.056522  0  3.997065  0
C  C64  1  0.91825531  0.39869582  0.09932741  1  0  -0.107588  0  3.786565  0  0  -0.117625  0  4.040017  0  0  -0.123253  0  4.062413  0  -0.034605  0  -0.087175  -0.114127  0  4.025227  0
C  C65  1  0.08174958  0.60130022  0.90067173  1  0  -0.107584  0  3.786701  0  0  -0.117606  0  4.040164  0  0  -0.123233  0  4.062555  0  -0.034657  0  -0.087164  -0.114108  0  4.02537  0
C  C66  1  0.84136041  0.43619494  0.02201440  1  0  -0.117731  0  3.687865  0  0  -0.142415  0  3.933785  0  0  -0.14295  0  3.952292  0  -0.002251  0  -0.078541  -0.14179  0  3.921361  0
C  C67  1  0.15864163  0.56380299  0.97798353  1  0  -0.117666  0  3.687977  0  0  -0.14236  0  3.933834  0  0  -0.142895  0  3.952342  0  -0.001958  0  -0.078502  -0.141727  0  3.921405  0
C  C68  1  0.80673770  0.34712368  0.99428521  1  0  0.223538  0  3.762241  0  0  0.221613  0  4.0069  0  0  0.226253  0  4.02869  0  0.406055  0  0.110685  0.218091  0  3.992493  0
C  C69  1  0.19326234  0.65287425  0.00571389  1  0  0.223519  0  3.76232  0  0  0.221571  0  4.00702  0  0  0.226211  0  4.028812  0  0.405944  0  0.110682  0.218051  0  3.99261  0
C  C70  1  0.84882404  0.22443104  0.04878414  1  0  0.052615  0  3.631445  0  0  0.016855  0  3.883985  0  0  0.022572  0  3.898376  0  0.511814  0  0.054646  0.012844  0  3.874752  0
C  C71  1  0.15117558  0.77556783  0.95121560  1  0  0.052638  0  3.631433  0  0  0.016886  0  3.883975  0  0  0.022601  0  3.898367  0  0.511827  0  0.054679  0.012882  0  3.87475  0
C  C72  1  0.67568535  0.48721002  0.85951343  1  0  0.544259  0  3.822503  0  0  0.501817  0  4.103915  0  0  0.531119  0  4.103688  0  1.36002  0  0.240254  0.482023  0  4.103829  0
C  C73  1  0.32430958  0.51279263  0.14048803  1  0  0.54429  0  3.822305  0  0  0.501871  0  4.103737  0  0  0.531173  0  4.103506  0  1.360031  0  0.240263  0.482065  0  4.103668  0
C  C74  1  0.58206329  0.49579830  0.79178273  1  0  -0.082468  0  3.784014  0  0  -0.064549  0  4.023027  0  0  -0.07347  0  4.047362  0  -0.062428  0  -0.025117  -0.059516  0  4.007226  0
C  C75  1  0.41793165  0.50420435  0.20821872  1  0  -0.082377  0  3.783995  0  0  -0.064553  0  4.023135  0  0  -0.073473  0  4.047468  0  -0.062589  0  -0.025144  -0.059517  0  4.007342  0
C  C76  1  0.49195368  0.61728993  0.75539329  1  0  -0.044153  0  3.730888  0  0  -0.067207  0  3.977918  0  0  -0.065308  0  3.997302  0  -0.014651  0  -0.077065  -0.06794  0  3.964969  0
C  C77  1  0.50804326  0.38271272  0.24460772  1  0  -0.044229  0  3.730977  0  0  -0.067223  0  3.978012  0  0  -0.065322  0  3.997396  0  -0.014636  0  -0.077038  -0.067977  0  3.965055  0
C  C78  1  0.40290754  0.63288498  0.69107286  1  0  -0.174009  0  3.740294  0  0  -0.195715  0  3.995879  0  0  -0.20203  0  4.016703  0  0.023395  0  -0.100243  -0.192186  0  3.982332  0
C  C79  1  0.59708982  0.36711672  0.30892533  1  0  -0.173973  0  3.740463  0  0  -0.195652  0  3.996022  0  0  -0.201969  0  4.01685  0  0.02345  0  -0.100222  -0.192125  0  3.982485  0
C  C80  1  0.40454303  0.52676274  0.66161903  1  0  0.280505  0  3.785464  0  0  0.268355  0  4.050379  0  0  0.281097  0  4.0635  0  0.403155  0  0.086864  0.259641  0  4.041367  0
C  C81  1  0.59545499  0.47323519  0.33838052  1  0  0.280533  0  3.785426  0  0  0.268367  0  4.050351  0  0  0.281108  0  4.063481  0  0.403137  0  0.086873  0.259653  0  4.041341  0
C  C82  1  0.49215914  0.40515308  0.69770591  1  0  -0.194104  0  3.758976  0  0  -0.214439  0  4.014768  0  0  -0.220824  0  4.034019  0  -0.033928  0  -0.102819  -0.209492  0  4.001162  0
C  C83  1  0.50783605  0.59484674  0.30229680  1  0  -0.194136  0  3.759035  0  0  -0.214439  0  4.014839  0  0  -0.220843  0  4.034078  0  -0.033974  0  -0.102818  -0.209491  0  4.001231  0
C  C84  1  0.58026782  0.39057775  0.76262200  1  0  -0.056479  0  3.756663  0  0  -0.082231  0  4.011499  0  0  -0.079915  0  4.031431  0  -0.060659  0  -0.085533  -0.083479  0  3.99782  0
C  C85  1  0.41972719  0.60942018  0.23737967  1  0  -0.056427  0  3.756658  0  0  -0.082179  0  4.011545  0  0  -0.079869  0  4.031489  0  -0.060594  0  -0.085509  -0.083425  0  3.997859  0
C  C86  1  0.25700934  0.46958310  0.59224517  1  0  0.294558  0  3.775406  0  0  0.280767  0  4.040344  0  0  0.294352  0  4.053373  0  0.448188  0  0.091816  0.271609  0  4.031181  0
C  C87  1  0.74298886  0.53041672  0.40775468  1  0  0.294536  0  3.775448  0  0  0.280794  0  4.040313  0  0  0.294377  0  4.053345  0  0.435169  0  0.091858  0.271637  0  4.03115  0
C  C88  1  0.24281835  0.45693389  0.49753112  1  0  -0.173467  0  3.725912  0  0  -0.196636  0  3.985299  0  0  -0.20303  0  4.00502  0  -0.04563  0  -0.10127  -0.19218  0  3.971633  0
C  C89  1  0.75718085  0.54306592  0.50246706  1  0  -0.173415  0  3.725966  0  0  -0.196606  0  3.985339  0  0  -0.203002  0  4.005064  0  -0.045738  0  -0.101284  -0.192151  0  3.971672  0
C  C90  1  0.16459145  0.38762246  0.49509957  1  0  -0.056045  0  3.764743  0  0  -0.080285  0  4.016432  0  0  -0.077795  0  4.036597  0  -0.037937  0  -0.082627  -0.08122  0  4.001922  0
C  C91  1  0.83541018  0.61237641  0.50489899  1  0  -0.056083  0  3.764655  0  0  -0.080336  0  4.016355  0  0  -0.077845  0  4.036519  0  -0.0382  0  -0.082638  -0.081266  0  4.001848  0
C  C92  1  0.09911492  0.33108958  0.58660789  1  0  -0.102473  0  3.807304  0  0  -0.08377  0  4.049761  0  0  -0.094295  0  4.075527  0  -0.049062  0  -0.029506  -0.076859  0  4.03226  0
C  C93  1  0.90088671  0.66890929  0.41338921  1  0  -0.102628  0  3.807278  0  0  -0.083931  0  4.049808  0  0  -0.094454  0  4.075569  0  -0.049038  0  -0.02963  -0.077028  0  4.032318  0
C  C94  1  0.11620041  0.34383603  0.68081448  1  0  -0.024439  0  3.7123  0  0  -0.047835  0  3.957712  0  0  -0.044651  0  3.976461  0  -0.046269  0  -0.075363  -0.050109  0  3.945628  0
C  C95  1  0.88380063  0.65616189  0.31918513  1  0  -0.024369  0  3.712311  0  0  -0.047749  0  3.957714  0  0  -0.044565  0  3.976464  0  -0.046326  0  -0.075303  -0.050018  0  3.94563  0
C  C96  1  0.19580317  0.41139129  0.68413814  1  0  -0.198675  0  3.753121  0  0  -0.216619  0  4.00367  0  0  -0.224231  0  4.023903  0  0.021444  0  -0.101866  -0.211963  0  3.990797  0
C  C97  1  0.80419645  0.58860758  0.31586014  1  0  -0.198617  0  3.753166  0  0  -0.216576  0  4.003693  0  0  -0.224187  0  4.023927  0  0.034636  0  -0.101877  -0.21192  0  3.990818  0
C  C98  1  0.00569987  0.26295460  0.59160258  1  0  0.549435  0  3.824448  0  0  0.499404  0  4.116676  0  0  0.529693  0  4.116021  0  1.356956  0  0.243468  0.478858  0  4.116636  0
C  C99  1  0.99430494  0.73704616  0.40839125  1  0  0.549622  0  3.824607  0  0  0.499502  0  4.116937  0  0  0.529792  0  4.116279  0  1.357647  0  0.243523  0.478959  0  4.116899  0
C  C100  1  0.71974555  0.11127464  0.52784602  1  0  -0.096846  0  3.734018  0  0  -0.108541  0  3.988489  0  0  -0.114169  0  4.008345  0  -0.086446  0  -0.07762  -0.105122  0  3.975465  0
C  C101  1  0.28025776  0.88873178  0.47215718  1  0  -0.096888  0  3.733908  0  0  -0.108654  0  3.988394  0  0  -0.114281  0  4.008246  0  -0.086352  0  -0.077661  -0.105233  0  3.97537  0
C  C102  1  0.79359431  0.17046917  0.55361247  1  0  -0.078314  0  3.649267  0  0  -0.110272  0  3.907494  0  0  -0.107673  0  3.922468  0  0.020997  0  -0.066909  -0.111934  0  3.897519  0
C  C103  1  0.20641025  0.82953442  0.44638156  1  0  -0.078311  0  3.648809  0  0  -0.110154  0  3.907068  0  0  -0.107551  0  3.922037  0  0.021132  0  -0.066821  -0.111817  0  3.897089  0
C  C104  1  0.92147426  0.17584817  0.48550994  1  0  0.215907  0  3.782487  0  0  0.213749  0  4.034748  0  0  0.217838  0  4.055386  0  0.384244  0  0.10418  0.210568  0  4.021187  0
C  C105  1  0.07852729  0.82415542  0.51448840  1  0  0.21614  0  3.782185  0  0  0.213819  0  4.034649  0  0  0.217906  0  4.055286  0  0.384297  0  0.10419  0.210648  0  4.021071  0
C  C106  1  0.97015125  0.11874407  0.39599712  1  0  0.003503  0  3.698446  0  0  -0.038468  0  3.959234  0  0  -0.034315  0  3.977043  0  0.469115  0  0.037013  -0.040986  0  3.946981  0
C  C107  1  0.02985398  0.88125575  0.60400117  1  0  0.003432  0  3.698346  0  0  -0.038523  0  3.95922  0  0  -0.034364  0  3.977023  0  0.469049  0  0.037018  -0.041047  0  3.946968  0
C  C108  1  0.77223283  0.06046917  0.43551264  1  0  0.094435  0  3.714261  0  0  0.058529  0  3.972614  0  0  0.065474  0  3.989624  0  0.472709  0  0.035537  0.054012  0  3.961127  0
C  C109  1  0.22776612  0.93953348  0.56448647  1  0  0.0944  0  3.714461  0  0  0.058522  0  3.972794  0  0  0.065463  0  3.989809  0  0.471812  0  0.035515  0.054008  0  3.961302  0
N  N110  1  0.92144183  0.19079929  0.12349843  1  0  -0.320637  0  3.305033  0  0  -0.244518  0  3.578046  0  0  -0.263454  0  3.597697  0  -1.23952  0  -0.330052  -0.231118  0  3.564183  0
N  N111  1  0.07855779  0.80919958  0.87650130  1  0  -0.320731  0  3.30501  0  0  -0.244594  0  3.578037  0  0  -0.26353  0  3.59768  0  -1.239483  0  -0.330083  -0.231194  0  3.564171  0
N  N112  1  0.73136633  0.37221625  0.91771740  1  0  -0.436768  0  3.321888  0  0  -0.379825  0  3.554201  0  0  -0.402685  0  3.563748  0  -1.252784  0  -0.389904  -0.363974  0  3.54749  0
N  N113  1  0.26862885  0.62778357  0.08228385  1  0  -0.436723  0  3.32211  0  0  -0.379793  0  3.554401  0  0  -0.40265  0  3.563946  0  -1.253043  0  -0.38991  -0.363937  0  3.547692  0
N  N114  1  0.00451675  0.23494639  0.50028375  1  0  -0.437643  0  3.364085  0  0  -0.388337  0  3.605781  0  0  -0.409831  0  3.616402  0  -1.254231  0  -0.394949  -0.373869  0  3.598651  0
N  N115  1  0.99548781  0.76505720  0.49971028  1  0  -0.437832  0  3.364048  0  0  -0.388434  0  3.605801  0  0  -0.409927  0  3.616426  0  -1.254558  0  -0.394988  -0.373965  0  3.598659  0
N  N116  1  0.89667879  0.06397775  0.37137154  1  0  -0.316761  0  3.323377  0  0  -0.236361  0  3.595556  0  0  -0.256248  0  3.616576  0  -1.231354  0  -0.330338  -0.222225  0  3.580237  0
N  N117  1  0.10332099  0.93602301  0.62862923  1  0  -0.316738  0  3.323362  0  0  -0.236335  0  3.595522  0  0  -0.256222  0  3.616544  0  -1.23135  0  -0.330345  -0.2222  0  3.580204  0
O  O118  1  0.89438951  0.90380848  0.13766042  1  0  -0.648728  0  2.001365  0  0  -0.577784  0  2.254814  0  0  -0.609029  0  2.24554  0  -1.152753  0  -0.342217  -0.554435  0  2.261705  0
O  O119  1  0.10561354  0.09618945  0.86233801  1  0  -0.648736  0  2.001406  0  0  -0.57783  0  2.254903  0  0  -0.609072  0  2.245619  0  -1.152673  0  -0.342234  -0.554479  0  2.261794  0
O  O120  1  0.69401303  0.00454151  0.25204012  1  0  -0.645428  0  1.88391  0  0  -0.598114  0  2.098582  0  0  -0.622182  0  2.089331  0  -1.17917  0  -0.346519  -0.580058  0  2.103703  0
O  O121  1  0.30599145  0.99545547  0.74795965  1  0  -0.645456  0  1.883853  0  0  -0.598143  0  2.098517  0  0  -0.622211  0  2.089264  0  -1.17928  0  -0.346543  -0.580089  0  2.10364  0
O  O122  1  0.22362452  0.88381260  0.11858909  1  0  -0.654198  0  1.985139  0  0  -0.583352  0  2.225037  0  0  -0.611676  0  2.214249  0  -1.179728  0  -0.330972  -0.562095  0  2.233351  0
O  O123  1  0.77637711  0.11618628  0.88141165  1  0  -0.654157  0  1.985201  0  0  -0.583314  0  2.225087  0  0  -0.611634  0  2.214295  0  -1.179774  0  -0.33098  -0.562059  0  2.2334  0
O  O124  1  0.21480546  0.01361132  0.21785786  1  0  -0.641555  0  1.954074  0  0  -0.58481  0  2.191644  0  0  -0.612595  0  2.184035  0  -1.174489  0  -0.331341  -0.564079  0  2.195694  0
O  O125  1  0.78519374  0.98638849  0.78214396  1  0  -0.641556  0  1.95401  0  0  -0.584827  0  2.1916  0  0  -0.612612  0  2.183985  0  -1.175148  0  -0.331364  -0.564096  0  2.195644  0
O  O126  1  0.93076118  0.23318644  0.67452979  1  0  -0.555574  0  2.000265  0  0  -0.500844  0  2.243739  0  0  -0.52342  0  2.235964  0  -1.15429  0  -0.285554  -0.485012  0  2.249186  0
O  O127  1  0.06923726  0.76681055  0.32546840  1  0  -0.555577  0  2.000662  0  0  -0.500798  0  2.244153  0  0  -0.523376  0  2.236391  0  -1.154458  0  -0.285522  -0.484967  0  2.249598  0
O  O128  1  0.32435387  0.54877350  0.58965136  1  0  -0.290395  0  2.36483  0  0  -0.220984  0  2.590693  0  0  -0.239876  0  2.593258  0  -1.103234  0  -0.146728  -0.207132  0  2.588044  0
O  O129  1  0.67564533  0.45122632  0.41034900  1  0  -0.290353  0  2.364754  0  0  -0.220952  0  2.590603  0  0  -0.239839  0  2.593166  0  -1.103239  0  -0.146696  -0.207098  0  2.587955  0
O  O130  1  0.69732042  0.58132794  0.86392713  1  0  -0.539235  0  1.910609  0  0  -0.498473  0  2.118549  0  0  -0.518377  0  2.112005  0  -1.139305  0  -0.296218  -0.485107  0  2.123086  0
O  O131  1  0.30267518  0.41867093  0.13607349  1  0  -0.539323  0  1.910455  0  0  -0.498559  0  2.118399  0  0  -0.518466  0  2.111853  0  -1.139352  0  -0.296233  -0.485188  0  2.122944  0
