# generated using pymatgen
data_Mg3H36C42N2(O4F3)4
_symmetry_space_group_name_H-M   'P 1'
_cell_length_a   8.38242758
_cell_length_b   16.31650256
_cell_length_c   21.69806500
_cell_angle_alpha   107.61430516
_cell_angle_beta   89.99999690
_cell_angle_gamma   90.00001883
_symmetry_Int_Tables_number   1
_chemical_formula_structural   Mg3H36C42N2(O4F3)4
_chemical_formula_sum   'Mg6 H72 C84 N4 O32 F24'
_cell_volume   2828.54608920
_cell_formula_units_Z   2
loop_
 _symmetry_equiv_pos_site_id
 _symmetry_equiv_pos_as_xyz
  1  'x, y, z'
loop_
 _atom_site_type_symbol
 _atom_site_label
 _atom_site_symmetry_multiplicity
 _atom_site_fract_x
 _atom_site_fract_y
 _atom_site_fract_z
 _atom_site_occupancy
 _atom_site_pbe_bader_charge
 _atom_site_pbe_bader_spin_density
 _atom_site_pbe_cm5_charge
 _atom_site_pbe_ddec_charge
 _atom_site_pbe_ddec_spin_density
 _atom_site_pbe_ddec_sum_bond_order
 _atom_site_pbe_magmom
Mg  Mg0  1  0.49999971  0.50000002  0.99999992  1  1.696137  0  0.817951  1.38003  0  1.426016  0
Mg  Mg1  1  0.99999997  0.00000011  0.50000006  1  1.696121  0  0.817946  1.380012  0  1.426042  0
Mg  Mg2  1  0.85333884  0.59817570  0.96099834  1  1.692653  0  0.813761  1.361615  0  1.438239  0
Mg  Mg3  1  0.35333823  0.90182403  0.53900191  1  1.692652  0  0.813757  1.361591  0  1.438263  0
Mg  Mg4  1  0.14666170  0.40182392  0.03900147  1  1.692653  0  0.81376  1.361617  0  1.43824  0
Mg  Mg5  1  0.64666112  0.09817559  0.46099836  1  1.69265  0  0.813729  1.361536  0  1.438343  0
H  H6  1  0.76221369  0.38484581  0.01534613  1  0.105108  0  0.126849  0.029884  0  1.000073  0
H  H7  1  0.26221402  0.11515308  0.48465310  1  0.105109  0  0.126838  0.029869  0  1.000066  0
H  H8  1  0.23778685  0.61515317  0.98465307  1  0.105106  0  0.126834  0.029877  0  1.00008  0
H  H9  1  0.73778652  0.88484589  0.51534657  1  0.105102  0  0.126837  0.029878  0  1.000082  0
H  H10  1  0.38128333  0.00087921  0.23884633  1  0.089611  0  0.100858  0.106983  0  1.002201  0
H  H11  1  0.88128303  0.49912099  0.26115366  1  0.089616  0  0.100863  0.106999  0  1.002185  0
H  H12  1  0.61871602  0.99912106  0.76115409  1  0.089619  0  0.100864  0.107005  0  1.002174  0
H  H13  1  0.11871631  0.50087863  0.73884615  1  0.089614  0  0.10086  0.106997  0  1.002187  0
H  H14  1  0.56432370  0.98074271  0.07086351  1  0.078548  0  0.088824  0.097181  0  1.043938  0
H  H15  1  0.06432398  0.51925739  0.42913538  1  0.078579  0  0.088841  0.097182  0  1.043929  0
H  H16  1  0.43567564  0.01925691  0.92913630  1  0.078548  0  0.088817  0.097162  0  1.043922  0
H  H17  1  0.93567536  0.48074287  0.57086320  1  0.078542  0  0.088853  0.097201  0  1.043914  0
H  H18  1  0.25157746  0.01858151  0.34433684  1  0.159583  0  0.10705  0.122399  0  1.023959  0
H  H19  1  0.75157717  0.48141802  0.15566299  1  0.159591  0  0.107042  0.12236  0  1.023959  0
H  H20  1  0.74842308  0.98141810  0.65566297  1  0.159645  0  0.107041  0.122366  0  1.023967  0
H  H21  1  0.24842218  0.51858096  0.84433667  1  0.15959  0  0.107058  0.122435  0  1.023913  0
H  H22  1  0.95225533  0.68042341  0.84252198  1  0.081293  0  0.12383  0.047207  0  0.976636  0
H  H23  1  0.45225584  0.81957697  0.65747842  1  0.081286  0  0.123823  0.047201  0  0.976652  0
H  H24  1  0.04774402  0.31957749  0.15747859  1  0.081282  0  0.123822  0.047197  0  0.976638  0
H  H25  1  0.54774351  0.18042265  0.34252139  1  0.081284  0  0.12382  0.047188  0  0.976649  0
H  H26  1  0.30287669  0.72982768  0.11301529  1  0.086653  0  0.108838  0.116059  0  0.994334  0
H  H27  1  0.80287623  0.77017311  0.38698513  1  0.086619  0  0.10882  0.116008  0  0.994345  0
H  H28  1  0.69712385  0.27017322  0.88698527  1  0.086643  0  0.108833  0.116024  0  0.994329  0
H  H29  1  0.19712312  0.22982780  0.61301544  1  0.086457  0  0.108849  0.116075  0  0.994323  0
H  H30  1  0.81333003  0.08862558  0.27082887  1  0.059067  0  0.099899  0.103556  0  1.011162  0
H  H31  1  0.31332940  0.41137461  0.22917157  1  0.059067  0  0.099908  0.103559  0  1.011131  0
H  H32  1  0.18667051  0.91137468  0.72917155  1  0.059062  0  0.09992  0.103581  0  1.011106  0
H  H33  1  0.68667114  0.58862501  0.77082870  1  0.059071  0  0.099874  0.103495  0  1.011131  0
H  H34  1  0.69828963  0.83925417  0.04040911  1  0.113823  0  0.107452  0.117985  0  0.995266  0
H  H35  1  0.19828999  0.66074531  0.45959055  1  0.113793  0  0.107462  0.117969  0  0.995279  0
H  H36  1  0.30170972  0.16074545  0.95959070  1  0.113785  0  0.107458  0.117968  0  0.995286  0
H  H37  1  0.80170935  0.33925430  0.54040926  1  0.113815  0  0.107466  0.117996  0  0.995214  0
H  H38  1  0.16620033  0.87144144  0.14543898  1  0.087235  0  0.105591  0.115172  0  0.991103  0
H  H39  1  0.66620098  0.62855933  0.35456098  1  0.087237  0  0.105592  0.11516  0  0.991129  0
H  H40  1  0.83379901  0.12855883  0.85456144  1  0.087247  0  0.1056  0.115167  0  0.991117  0
H  H41  1  0.33379836  0.37144093  0.64543898  1  0.087228  0  0.105598  0.11517  0  0.991109  0
H  H42  1  0.94137528  0.07182968  0.16518887  1  0.085791  0  0.091887  0.097082  0  1.048275  0
H  H43  1  0.44137464  0.42817117  0.33481127  1  0.085797  0  0.09189  0.097092  0  1.048235  0
H  H44  1  0.05862407  0.92817123  0.83481124  1  0.085793  0  0.091894  0.097099  0  1.04827  0
H  H45  1  0.55862471  0.57182909  0.66518915  1  0.085798  0  0.091895  0.097099  0  1.048253  0
H  H46  1  0.31058323  0.71224625  0.79621002  1  0.049956  0  0.097275  0.113568  0  1.019914  0
H  H47  1  0.81058400  0.78775346  0.70379023  1  0.049951  0  0.097274  0.113553  0  1.019946  0
H  H48  1  0.68941731  0.28775336  0.20378979  1  0.049953  0  0.097288  0.113556  0  1.019988  0
H  H49  1  0.18941654  0.21224680  0.29621019  1  0.049951  0  0.097278  0.113569  0  1.019994  0
H  H50  1  0.23160256  0.81885810  0.82140239  1  0.059387  0  0.097243  0.115146  0  1.00921  0
H  H51  1  0.73160208  0.68114225  0.67859754  1  0.059388  0  0.097255  0.115173  0  1.0093  0
H  H52  1  0.76839798  0.18114217  0.17859757  1  0.059391  0  0.097252  0.115158  0  1.009271  0
H  H53  1  0.26839846  0.31885737  0.32140227  1  0.059405  0  0.097257  0.115169  0  1.009294  0
H  H54  1  0.10524177  0.73031466  0.78248443  1  0.068529  0  0.100335  0.111447  0  1.026699  0
H  H55  1  0.60524133  0.76968502  0.71751582  1  0.068526  0  0.100338  0.111447  0  1.026692  0
H  H56  1  0.89475996  0.26968496  0.21751538  1  0.068516  0  0.10034  0.111439  0  1.026688  0
H  H57  1  0.39475801  0.23031395  0.28248431  1  0.068522  0  0.100335  0.111441  0  1.026701  0
H  H58  1  0.22502329  0.76214474  0.97487196  1  0.131345  0  0.112546  0.134717  0  1.013061  0
H  H59  1  0.72502167  0.73785561  0.52512797  1  0.131303  0  0.112554  0.134723  0  1.013054  0
H  H60  1  0.77497724  0.23785617  0.02512860  1  0.131347  0  0.112546  0.134722  0  1.013094  0
H  H61  1  0.27497648  0.26214465  0.47487199  1  0.131341  0  0.112549  0.134726  0  1.013064  0
H  H62  1  0.29998967  0.84022618  0.93969378  1  0.066262  0  0.095003  0.115867  0  1.018464  0
H  H63  1  0.79998800  0.65977353  0.56030555  1  0.066261  0  0.095013  0.115861  0  1.018475  0
H  H64  1  0.70001087  0.15977472  0.06030587  1  0.066284  0  0.095003  0.115885  0  1.018468  0
H  H65  1  0.20001016  0.34022608  0.43969380  1  0.066219  0  0.095001  0.115863  0  1.018458  0
H  H66  1  0.38889109  0.73595233  0.91922358  1  0.067329  0  0.105373  0.125544  0  0.982267  0
H  H67  1  0.88889067  0.76404740  0.58077621  1  0.067338  0  0.105384  0.125559  0  0.982265  0
H  H68  1  0.61110825  0.26404793  0.08077684  1  0.067323  0  0.105378  0.125549  0  0.98226  0
H  H69  1  0.11110867  0.23595222  0.41922360  1  0.067327  0  0.10537  0.125547  0  0.982262  0
H  H70  1  0.00047846  0.45506765  0.91443579  1  0.625263  0  0.301144  0.387935  0  0.948675  0
H  H71  1  0.50047910  0.04493205  0.58556416  1  0.625261  0  0.301123  0.387902  0  0.948721  0
H  H72  1  0.99952088  0.54493261  0.08556463  1  0.625258  0  0.301136  0.387927  0  0.948683  0
H  H73  1  0.49952144  0.95506757  0.41443565  1  0.625257  0  0.301124  0.38792  0  0.948695  0
H  H74  1  0.91794659  0.47868545  0.85634711  1  0.609469  0  0.327313  0.405839  0  0.876411  0
H  H75  1  0.41794691  0.02131497  0.64365300  1  0.609472  0  0.327312  0.405831  0  0.876416  0
H  H76  1  0.08205395  0.52131481  0.14365285  1  0.609473  0  0.327301  0.405858  0  0.876373  0
H  H77  1  0.58205363  0.97868465  0.35634681  1  0.609466  0  0.327308  0.405861  0  0.87636  0
C  C78  1  0.94147786  0.06019380  0.37735657  1  1.613047  0  0.225228  0.621845  0  4.198475  0
C  C79  1  0.44147725  0.43980577  0.12264374  1  1.613046  0  0.225269  0.621884  0  4.198427  0
C  C80  1  0.05852268  0.93980582  0.62264325  1  1.613055  0  0.225259  0.62182  0  4.198494  0
C  C81  1  0.55852209  0.56019385  0.87735654  1  1.613052  0  0.225299  0.621991  0  4.198405  0
C  C82  1  0.25927692  0.02132533  0.12925220  1  0.06028  0  -0.011823  -0.268581  0  3.855913  0
C  C83  1  0.75927659  0.47867549  0.37074747  1  0.060277  0  -0.011779  -0.2686  0  3.855973  0
C  C84  1  0.74072362  0.97867493  0.87074776  1  0.060273  0  -0.011786  -0.26853  0  3.855938  0
C  C85  1  0.24072275  0.52132477  0.62925202  1  0.060278  0  -0.011812  -0.268549  0  3.855904  0
C  C86  1  0.35553453  0.93691522  0.11143680  1  -0.036681  0  -0.023327  0.069838  0  3.965338  0
C  C87  1  0.85553394  0.56308558  0.38856270  1  -0.036749  0  -0.023322  0.069837  0  3.965343  0
C  C88  1  0.64446601  0.06308505  0.88856316  1  -0.036676  0  -0.023319  0.069847  0  3.965248  0
C  C89  1  0.14446660  0.43691468  0.61143680  1  -0.036685  0  -0.023324  0.069825  0  3.965312  0
C  C90  1  0.82460844  0.42535244  0.99046570  1  1.571768  0  0.179422  0.543921  0  4.145873  0
C  C91  1  0.32460762  0.07464732  0.50953425  1  1.571834  0  0.179357  0.543831  0  4.145801  0
C  C92  1  0.17539090  0.57464782  0.00953425  1  1.571778  0  0.179361  0.543798  0  4.145837  0
C  C93  1  0.67539172  0.92535230  0.49046556  1  1.571777  0  0.179357  0.543819  0  4.145861  0
C  C94  1  0.25711524  0.02145231  0.24573398  1  -0.015366  0  -0.092162  -0.133582  0  3.97829  0
C  C95  1  0.75711494  0.47854723  0.25426586  1  -0.015309  0  -0.092159  -0.133631  0  3.978249  0
C  C96  1  0.74288649  0.97854731  0.75426583  1  -0.015304  0  -0.092165  -0.133632  0  3.978292  0
C  C97  1  0.24288560  0.52145239  0.74573441  1  -0.015366  0  -0.09217  -0.133606  0  3.978334  0
C  C98  1  0.50577144  0.92722261  0.08166757  1  -0.083204  0  -0.104616  -0.148556  0  3.999841  0
C  C99  1  0.00577175  0.57277813  0.41833147  1  -0.083199  0  -0.104641  -0.148554  0  3.999929  0
C  C100  1  0.49422791  0.07277765  0.91833239  1  -0.083196  0  -0.10462  -0.148548  0  3.999856  0
C  C101  1  0.99422759  0.42722213  0.58166711  1  -0.083188  0  -0.104664  -0.148603  0  3.99988  0
C  C102  1  0.36596322  0.10195158  0.13698687  1  1.695462  0  0.305703  0.677977  0  3.954203  0
C  C103  1  0.86596285  0.39804926  0.36301326  1  1.695423  0  0.305747  0.678118  0  3.953988  0
C  C104  1  0.63403732  0.89804804  0.86301294  1  1.69563  0  0.305774  0.678085  0  3.954148  0
C  C105  1  0.13403650  0.60195165  0.63698684  1  1.695478  0  0.305719  0.67798  0  3.954194  0
C  C106  1  0.58677773  0.68889233  0.05135662  1  1.618362  0  0.227076  0.62878  0  4.203576  0
C  C107  1  0.08677819  0.81110714  0.44864350  1  1.618337  0  0.227037  0.628699  0  4.203771  0
C  C108  1  0.41322162  0.31110729  0.94864319  1  1.618353  0  0.227097  0.628838  0  4.203628  0
C  C109  1  0.91322235  0.18889248  0.55135677  1  1.618355  0  0.227071  0.628806  0  4.203595  0
C  C110  1  0.18419484  0.03099313  0.30513207  1  -0.103522  0  -0.079841  -0.076975  0  3.938399  0
C  C111  1  0.68419334  0.46900639  0.19486777  1  -0.103524  0  -0.079899  -0.076993  0  3.938357  0
C  C112  1  0.81580689  0.96900649  0.69486774  1  -0.10358  0  -0.079915  -0.077033  0  3.938432  0
C  C113  1  0.31580481  0.53099323  0.80513158  1  -0.103539  0  -0.079857  -0.077011  0  3.938426  0
C  C114  1  0.02798490  0.70175470  0.88620015  1  1.410077  0  0.190541  0.331737  0  4.095901  0
C  C115  1  0.52798569  0.79824497  0.61380009  1  1.410083  0  0.190497  0.331669  0  4.095936  0
C  C116  1  0.97201564  0.29824556  0.11379981  1  1.410085  0  0.190511  0.331725  0  4.095904  0
C  C117  1  0.47201485  0.20175465  0.38619972  1  1.410081  0  0.190541  0.331752  0  4.095896  0
C  C118  1  0.35956315  0.78573944  0.10489662  1  0.000949  0  -0.079888  -0.081853  0  3.967025  0
C  C119  1  0.85956385  0.71426136  0.39510287  1  0.000943  0  -0.079826  -0.081685  0  3.966964  0
C  C120  1  0.64043739  0.21426082  0.89510333  1  0.000964  0  -0.079816  -0.081664  0  3.966946  0
C  C121  1  0.14043550  0.28574019  0.60489691  1  0.001189  0  -0.07991  -0.081898  0  3.967074  0
C  C122  1  0.93850856  0.07017102  0.26344237  1  0.014607  0  -0.087614  -0.087078  0  3.986093  0
C  C123  1  0.43850913  0.42982919  0.23655761  1  0.014614  0  -0.087617  -0.087107  0  3.986041  0
C  C124  1  0.06149198  0.92982924  0.73655804  1  0.014603  0  -0.087612  -0.087083  0  3.985983  0
C  C125  1  0.56149022  0.57017108  0.76344234  1  0.014616  0  -0.087569  -0.086925  0  3.985972  0
C  C126  1  0.58218722  0.84758143  0.06413504  1  -0.038914  0  -0.082443  -0.076453  0  3.950617  0
C  C127  1  0.08218759  0.65241868  0.43586430  1  -0.03887  0  -0.082411  -0.076372  0  3.950653  0
C  C128  1  0.41781212  0.15241819  0.93586477  1  -0.038886  0  -0.082407  -0.076369  0  3.950737  0
C  C129  1  0.91781176  0.34758159  0.56413519  1  -0.038933  0  -0.082412  -0.076405  0  3.950754  0
C  C130  1  0.28332989  0.86515064  0.12276474  1  -0.050555  0  -0.091219  -0.126754  0  3.973819  0
C  C131  1  0.78333054  0.63484950  0.37723461  1  -0.050469  0  -0.091258  -0.126799  0  3.973823  0
C  C132  1  0.71666946  0.13484962  0.87723568  1  -0.050564  0  -0.091284  -0.126828  0  3.973836  0
C  C133  1  0.21667000  0.36515140  0.62276503  1  -0.050553  0  -0.091219  -0.126722  0  3.973815  0
C  C134  1  0.01156467  0.06062507  0.20394588  1  -0.060579  0  -0.104704  -0.153546  0  4.012146  0
C  C135  1  0.51156553  0.43937506  0.29605410  1  -0.060578  0  -0.1047  -0.153559  0  4.012175  0
C  C136  1  0.98843586  0.93937519  0.79605408  1  -0.060586  0  -0.104718  -0.153614  0  4.012198  0
C  C137  1  0.48843501  0.56062520  0.70394586  1  -0.0606  0  -0.104712  -0.153604  0  4.012174  0
C  C138  1  0.02323193  0.05473845  0.31435362  1  -0.042088  0  -0.016696  -0.035458  0  3.95206  0
C  C139  1  0.52323161  0.44526169  0.18564636  1  -0.042117  0  -0.016659  -0.035332  0  3.951963  0
C  C140  1  0.97676861  0.94526117  0.68564619  1  -0.042092  0  -0.016643  -0.035322  0  3.951948  0
C  C141  1  0.47676774  0.55473857  0.81435360  1  -0.04209  0  -0.016706  -0.035534  0  3.952134  0
C  C142  1  0.50960918  0.77614828  0.07529110  1  -0.020626  0  -0.014056  -0.032841  0  3.947353  0
C  C143  1  0.00961078  0.72385246  0.42470839  1  -0.020655  0  -0.014088  -0.032929  0  3.947478  0
C  C144  1  0.49038897  0.22385198  0.92470840  1  -0.020618  0  -0.014083  -0.032972  0  3.94753  0
C  C145  1  0.99038856  0.27614845  0.57529125  1  -0.020637  0  -0.014079  -0.032865  0  3.947439  0
C  C146  1  0.14237522  0.01365857  0.07178128  1  1.704555  0  0.302567  0.675688  0  3.965174  0
C  C147  1  0.64237490  0.48634223  0.42821931  1  1.704576  0  0.302551  0.675683  0  3.965029  0
C  C148  1  0.85762651  0.98634170  0.92821822  1  1.704564  0  0.302556  0.675642  0  3.965113  0
C  C149  1  0.35762445  0.51365867  0.57178125  1  1.704557  0  0.302517  0.675622  0  3.965014  0
C  C150  1  0.17156008  0.03514711  0.19404566  1  -0.082929  0  -0.020137  0.075213  0  3.963873  0
C  C151  1  0.67155976  0.46485305  0.30595479  1  -0.082984  0  -0.020168  0.075212  0  3.963959  0
C  C152  1  0.82843926  0.96485315  0.80595476  1  -0.082973  0  -0.020159  0.075228  0  3.963914  0
C  C153  1  0.32844078  0.53514721  0.69404563  1  -0.08292  0  -0.020127  0.075219  0  3.963925  0
C  C154  1  0.20492650  0.75121624  0.81622497  1  0.299413  0  -0.136608  -0.284091  0  3.940398  0
C  C155  1  0.70492725  0.74878346  0.68377527  1  0.299412  0  -0.136603  -0.284083  0  3.94042  0
C  C156  1  0.79507285  0.24878402  0.18377591  1  0.299411  0  -0.136605  -0.284035  0  3.940377  0
C  C157  1  0.29507329  0.25121552  0.31622439  1  0.299399  0  -0.136605  -0.284069  0  3.940481  0
C  C158  1  0.27601330  0.77163864  0.93114321  1  0.232907  0  -0.137374  -0.274241  0  3.878206  0
C  C159  1  0.77601167  0.72836171  0.56885672  1  0.232911  0  -0.13738  -0.274252  0  3.878262  0
C  C160  1  0.72398724  0.22836226  0.06885689  1  0.23289  0  -0.137368  -0.274273  0  3.878299  0
C  C161  1  0.22398768  0.27163791  0.43114309  1  0.232962  0  -0.137366  -0.27423  0  3.878202  0
N  N162  1  0.16271199  0.74135631  0.87836359  1  -1.224458  0  -0.282835  0.028129  0  3.72816  0
N  N163  1  0.66271275  0.75864402  0.62163634  1  -1.224473  0  -0.282844  0.028154  0  3.728177  0
N  N164  1  0.83728736  0.25864395  0.12163591  1  -1.224437  0  -0.282844  0.028111  0  3.728118  0
N  N165  1  0.33728778  0.24135624  0.37836362  1  -1.224464  0  -0.282865  0.028058  0  3.728127  0
O  O166  1  0.98837016  0.68944644  0.93810566  1  -1.205273  0  -0.328239  -0.520721  0  2.348991  0
O  O167  1  0.48836949  0.81055395  0.56189428  1  -1.205238  0  -0.328228  -0.520712  0  2.348966  0
O  O168  1  0.01162918  0.31055382  0.06189430  1  -1.205284  0  -0.328231  -0.520735  0  2.348992  0
O  O169  1  0.51162986  0.18944567  0.43810553  1  -1.20527  0  -0.328231  -0.520707  0  2.348982  0
O  O170  1  0.96650289  0.40565682  0.97096970  1  -1.235255  0  -0.334656  -0.584079  0  2.292121  0
O  O171  1  0.46650447  0.09434361  0.52903041  1  -1.235265  0  -0.33461  -0.584032  0  2.292054  0
O  O172  1  0.03349645  0.59434408  0.02903040  1  -1.235221  0  -0.334605  -0.584023  0  2.292111  0
O  O173  1  0.53349607  0.90565666  0.47097001  1  -1.235258  0  -0.334617  -0.584035  0  2.292149  0
O  O174  1  0.99570211  0.49957197  0.89093222  1  -1.25431  0  -0.584961  -0.795438  0  2.029778  0
O  O175  1  0.49570242  0.00042847  0.60906789  1  -1.254316  0  -0.584951  -0.795404  0  2.029813  0
O  O176  1  0.00429843  0.50042894  0.10906788  1  -1.254311  0  -0.584948  -0.795456  0  2.029759  0
O  O177  1  0.50429931  0.99957115  0.39093238  1  -1.254301  0  -0.58493  -0.795432  0  2.029754  0
O  O178  1  0.79301967  0.07879718  0.38155045  1  -1.248962  0  -0.365081  -0.67837  0  2.248105  0
O  O179  1  0.29301906  0.42120236  0.11844938  1  -1.24898  0  -0.365104  -0.67844  0  2.24815  0
O  O180  1  0.20698086  0.92120180  0.61844967  1  -1.248979  0  -0.365098  -0.678401  0  2.248124  0
O  O181  1  0.70698028  0.57879790  0.88155057  1  -1.248966  0  -0.365129  -0.678464  0  2.248111  0
O  O182  1  0.72039296  0.68552825  0.02313055  1  -1.247664  0  -0.368213  -0.656387  0  2.248436  0
O  O183  1  0.22039462  0.81447123  0.47686957  1  -1.247666  0  -0.368173  -0.656305  0  2.248478  0
O  O184  1  0.27960400  0.31447072  0.97686819  1  -1.247685  0  -0.368234  -0.656406  0  2.248418  0
O  O185  1  0.77960473  0.18552903  0.52313084  1  -1.24768  0  -0.368212  -0.656386  0  2.248397  0
O  O186  1  0.74929854  0.49003728  0.98406162  1  -1.265761  0  -0.350854  -0.650438  0  2.403344  0
O  O187  1  0.24929887  0.00996246  0.51593833  1  -1.26577  0  -0.35083  -0.650382  0  2.403355  0
O  O188  1  0.25070081  0.50996234  0.01593865  1  -1.265753  0  -0.350844  -0.650375  0  2.40328  0
O  O189  1  0.75070167  0.99003715  0.48406148  1  -1.265762  0  -0.350822  -0.65038  0  2.403302  0
O  O190  1  0.02560593  0.04537091  0.42120486  1  -1.226696  0  -0.340076  -0.631385  0  2.273431  0
O  O191  1  0.52560564  0.45462858  0.07879497  1  -1.226693  0  -0.340112  -0.631434  0  2.273378  0
O  O192  1  0.97439580  0.95462871  0.57879541  1  -1.226689  0  -0.340107  -0.631377  0  2.273421  0
O  O193  1  0.47439371  0.54537104  0.92120484  1  -1.226695  0  -0.340116  -0.631456  0  2.273386  0
O  O194  1  0.51081165  0.62552838  0.05912017  1  -1.231491  0  -0.355937  -0.651203  0  2.245998  0
O  O195  1  0.01081335  0.87447236  0.44088070  1  -1.231466  0  -0.355945  -0.651232  0  2.246045  0
O  O196  1  0.48918770  0.37447188  0.94088071  1  -1.231468  0  -0.35594  -0.651244  0  2.246004  0
O  O197  1  0.98918719  0.12552855  0.55911940  1  -1.231469  0  -0.355917  -0.651222  0  2.246049  0
F  F198  1  0.22012151  0.98972422  0.01386555  1  -0.621469  0  -0.097309  -0.208642  0  1.363447  0
F  F199  1  0.72012207  0.51027655  0.48613487  1  -0.621487  0  -0.097297  -0.208634  0  1.363353  0
F  F200  1  0.77987903  0.01027668  0.98613502  1  -0.621465  0  -0.097314  -0.20864  0  1.363306  0
F  F201  1  0.27987847  0.48972307  0.51386494  1  -0.621483  0  -0.097282  -0.208601  0  1.363335  0
F  F202  1  0.02873780  0.95323395  0.06885563  1  -0.617067  0  -0.087517  -0.189942  0  1.33416  0
F  F203  1  0.52873719  0.54676614  0.43114418  1  -0.617083  0  -0.08752  -0.18995  0  1.334151  0
F  F204  1  0.97126274  0.04676695  0.93114402  1  -0.617092  0  -0.087489  -0.189911  0  1.334243  0
F  F205  1  0.47126215  0.45323412  0.56885578  1  -0.617066  0  -0.087538  -0.189968  0  1.334114  0
F  F206  1  0.06563256  0.08897446  0.07556610  1  -0.611249  0  -0.098486  -0.209253  0  1.346218  0
F  F207  1  0.56563338  0.41102568  0.42443388  1  -0.611243  0  -0.09849  -0.209259  0  1.346212  0
F  F208  1  0.93436798  0.91102580  0.92443340  1  -0.611242  0  -0.098499  -0.209269  0  1.346255  0
F  F209  1  0.43436596  0.58897458  0.57556608  1  -0.611247  0  -0.098462  -0.209223  0  1.346173  0
F  F210  1  0.28386650  0.17658524  0.16312453  1  -0.618361  0  -0.096513  -0.205295  0  1.331443  0
F  F211  1  0.78386370  0.32341558  0.33687606  1  -0.618304  0  -0.096542  -0.205328  0  1.331376  0
F  F212  1  0.71613523  0.82341502  0.83687497  1  -0.618309  0  -0.096521  -0.205325  0  1.331435  0
F  F213  1  0.21613446  0.67658532  0.66312450  1  -0.618363  0  -0.096519  -0.205297  0  1.331435  0
F  F214  1  0.49173943  0.10315536  0.17753051  1  -0.625312  0  -0.093082  -0.207513  0  1.327128  0
F  F215  1  0.99173906  0.39684421  0.32246934  1  -0.625306  0  -0.093069  -0.207526  0  1.327103  0
F  F216  1  0.50826111  0.89684426  0.82246977  1  -0.62546  0  -0.09307  -0.207531  0  1.327147  0
F  F217  1  0.00826028  0.60315476  0.67753079  1  -0.62532  0  -0.093083  -0.207513  0  1.327125  0
F  F218  1  0.42845706  0.10682738  0.08027319  1  -0.618619  0  -0.084297  -0.199593  0  1.373238  0
F  F219  1  0.92845786  0.39317347  0.41972741  1  -0.618624  0  -0.084307  -0.199637  0  1.373186  0
F  F220  1  0.57154468  0.89317160  0.91972648  1  -0.618678  0  -0.084363  -0.199641  0  1.37322  0
F  F221  1  0.07154267  0.60682679  0.58027301  1  -0.618622  0  -0.084301  -0.199595  0  1.373238  0
