# generated using pymatgen
data_CdH16C23N3O5
_symmetry_space_group_name_H-M   'P 1'
_cell_length_a   9.88698235
_cell_length_b   10.42090047
_cell_length_c   10.92327499
_cell_angle_alpha   82.03565497
_cell_angle_beta   66.93478608
_cell_angle_gamma   85.29347108
_symmetry_Int_Tables_number   1
_chemical_formula_structural   CdH16C23N3O5
_chemical_formula_sum   'Cd2 H32 C46 N6 O10'
_cell_volume   1025.00670828
_cell_formula_units_Z   2
loop_
 _symmetry_equiv_pos_site_id
 _symmetry_equiv_pos_as_xyz
  1  'x, y, z'
loop_
 _atom_site_type_symbol
 _atom_site_label
 _atom_site_symmetry_multiplicity
 _atom_site_fract_x
 _atom_site_fract_y
 _atom_site_fract_z
 _atom_site_occupancy
 _atom_site_pbe_bader_spin_density
 _atom_site_pbe_cm5_charge
 _atom_site_pbe_ddec_charge
 _atom_site_pbe_ddec_spin_density
 _atom_site_pbe_ddec_sum_bond_order
 _atom_site_pbe_magmom
Cd  Cd0  1  0.34304022  0.43675410  0.54786668  1  0  0.772029  0.92047  0  2.23826  0
Cd  Cd1  1  0.65695970  0.56324579  0.45213625  1  0  0.771826  0.920344  0  2.23902  0
H  H2  1  0.60495175  0.10658080  0.74585893  1  0  0.103498  0.106075  0  1.007698  0
H  H3  1  0.39504699  0.89342102  0.25413959  1  0  0.103507  0.106104  0  1.007648  0
H  H4  1  0.67921679  0.98052496  0.92309102  1  0  0.10033  0.0947  0  1.006397  0
H  H5  1  0.32077335  0.01947198  0.07690936  1  0  0.100332  0.094699  0  1.006427  0
H  H6  1  0.66863237  0.08487642  0.11740801  1  0  0.094754  0.094061  0  1.056441  0
H  H7  1  0.33135455  0.91511857  0.88259469  1  0  0.094752  0.094049  0  1.056425  0
H  H8  1  0.58367715  0.31715780  0.13680405  1  0  0.106253  0.113697  0  1.030374  0
H  H9  1  0.41633270  0.68284115  0.86318816  1  0  0.106222  0.113698  0  1.030345  0
H  H10  1  0.92450486  0.26686212  0.16604398  1  0  0.100912  0.106764  0  1.038235  0
H  H11  1  0.07549282  0.73313873  0.83395870  1  0  0.100899  0.106766  0  1.038243  0
H  H12  1  0.04776739  0.06455517  0.06943953  1  0  0.099026  0.096633  0  1.024873  0
H  H13  1  0.95222696  0.93544663  0.93055596  1  0  0.099028  0.096598  0  1.024897  0
H  H14  1  0.92404945  0.85224451  0.16462815  1  0  0.102099  0.105651  0  1.02195  0
H  H15  1  0.07594595  0.14775826  0.83536684  1  0  0.1021  0.105656  0  1.021836  0
H  H16  1  0.68129456  0.84522755  0.35625998  1  0  0.104031  0.112686  0  1.052599  0
H  H17  1  0.31870759  0.15477138  0.64373863  1  0  0.10402  0.112647  0  1.052574  0
H  H18  1  0.35217528  0.26752858  0.34020821  1  0  0.118776  0.099216  0  1.018447  0
H  H19  1  0.64782907  0.73247035  0.65979145  1  0  0.118819  0.099267  0  1.018449  0
H  H20  1  0.19922570  0.12514411  0.28073550  1  0  0.108989  0.114027  0  1.001606  0
H  H21  1  0.80077884  0.87484998  0.71926840  1  0  0.108969  0.11401  0  1.001601  0
H  H22  1  0.93063139  0.10729435  0.42837103  1  0  0.10683  0.101819  0  1.018986  0
H  H23  1  0.06937414  0.89270265  0.57163213  1  0  0.106835  0.101804  0  1.019114  0
H  H24  1  0.82562677  0.23996775  0.62134793  1  0  0.106299  0.118629  0  1.037245  0
H  H25  1  0.17437629  0.76003603  0.37864879  1  0  0.106295  0.118626  0  1.037225  0
H  H26  1  0.97234946  0.50494267  0.65973055  1  0  0.108316  0.092393  0  0.979786  0
H  H27  1  0.02765141  0.49506109  0.34026878  1  0  0.108335  0.092434  0  0.979799  0
H  H28  1  0.85997133  0.37387047  0.76142834  1  0  0.107857  0.089405  0  0.99886  0
H  H29  1  0.14002843  0.62613329  0.23856680  1  0  0.107839  0.089411  0  0.998877  0
H  H30  1  0.22430142  0.36069528  0.90941036  1  0  0.103128  0.126205  0  1.03212  0
H  H31  1  0.77569626  0.63930557  0.09059141  1  0  0.103168  0.126253  0  1.032216  0
H  H32  1  0.82530105  0.53819972  0.88416675  1  0  0.101136  0.110348  0  1.02715  0
H  H33  1  0.17469656  0.46180307  0.11583479  1  0  0.101148  0.11033  0  1.027109  0
C  C34  1  0.52784021  0.36123009  0.72669270  1  0  0.214202  0.59622  0  4.232073  0
C  C35  1  0.47211320  0.63875024  0.27332473  1  0  0.21431  0.596294  0  4.232223  0
C  C36  1  0.55755658  0.28230161  0.84029896  1  0  -0.0022  -0.068123  0  3.915573  0
C  C37  1  0.44244766  0.71770023  0.15970035  1  0  -0.00233  -0.068433  0  3.91561  0
C  C38  1  0.60287804  0.15209335  0.83087393  1  0  -0.092186  -0.121497  0  3.999155  0
C  C39  1  0.39712294  0.84790751  0.16912300  1  0  -0.092244  -0.121552  0  3.999338  0
C  C40  1  0.64423548  0.08219693  0.92986263  1  0  -0.085368  -0.067885  0  4.008386  0
C  C41  1  0.35576228  0.91780198  0.07013662  1  0  -0.085284  -0.067751  0  4.008495  0
C  C42  1  0.63794047  0.14105388  0.03995118  1  0  -0.093903  -0.07775  0  3.999778  0
C  C43  1  0.36206169  0.85894504  0.96004468  1  0  -0.093933  -0.077739  0  3.999709  0
C  C44  1  0.59047776  0.26980901  0.05154736  1  0  -0.083523  -0.141998  0  3.944873  0
C  C45  1  0.40953091  0.73019188  0.94844776  1  0  -0.083525  -0.142072  0  3.944877  0
C  C46  1  0.55017661  0.34162419  0.95135992  1  0  0.084038  0.127056  0  4.029949  0
C  C47  1  0.44983528  0.65837865  0.04863289  1  0  0.084078  0.127172  0  4.029887  0
C  C48  1  0.66780183  0.29337388  0.37088979  1  0  0.210086  0.597762  0  4.192031  0
C  C49  1  0.33216242  0.70661037  0.62912145  1  0  0.209992  0.597745  0  4.192466  0
C  C50  1  0.73856211  0.16931071  0.31708574  1  0  -0.011771  -0.096599  0  3.922915  0
C  C51  1  0.26144333  0.83068823  0.68291536  1  0  -0.011744  -0.096531  0  3.922878  0
C  C52  1  0.87370257  0.17333026  0.20771536  1  0  -0.084582  -0.092276  0  3.978551  0
C  C53  1  0.12629636  0.82666671  0.79228556  1  0  -0.084587  -0.09233  0  3.978557  0
C  C54  1  0.94168388  0.06017531  0.15355028  1  0  -0.093852  -0.096081  0  4.012456  0
C  C55  1  0.05831604  0.93982457  0.84644441  1  0  -0.09383  -0.095985  0  4.012732  0
C  C56  1  0.87277150  0.94153430  0.20623320  1  0  -0.090718  -0.072819  0  4.00194  0
C  C57  1  0.12722634  0.05846267  0.79376262  1  0  -0.090726  -0.072865  0  4.002045  0
C  C58  1  0.73723820  0.93619618  0.31389199  1  0  -0.087157  -0.151539  0  3.948988  0
C  C59  1  0.26275955  0.06380273  0.68610726  1  0  -0.087221  -0.151576  0  3.948926  0
C  C60  1  0.67056337  0.04910451  0.37180117  1  0  0.089446  0.13576  0  4.021714  0
C  C61  1  0.32943772  0.95089344  0.62820069  1  0  0.089457  0.135725  0  4.021725  0
C  C62  1  0.23466373  0.25816258  0.39871182  1  0  0.04883  0.101193  0  3.930355  0
C  C63  1  0.76534271  0.74183927  0.60128671  1  0  0.048812  0.101178  0  3.930393  0
C  C64  1  0.14926242  0.17873721  0.36738216  1  0  -0.081847  -0.132393  0  3.96795  0
C  C65  1  0.85073977  0.82126075  0.63262022  1  0  -0.081821  -0.132352  0  3.968025  0
C  C66  1  0.00044570  0.16954959  0.44895330  1  0  -0.060298  -0.003885  0  3.956446  0
C  C67  1  0.99956073  0.83045226  0.55104615  1  0  -0.060381  -0.004022  0  3.956533  0
C  C68  1  0.94177652  0.24214891  0.55697032  1  0  -0.077906  -0.158553  0  3.915231  0
C  C69  1  0.05822874  0.75785487  0.44302746  1  0  -0.077953  -0.158574  0  3.915125  0
C  C70  1  0.03351807  0.31987603  0.58274998  1  0  0.121922  0.224333  0  3.95582  0
C  C71  1  0.96648723  0.68012678  0.41724699  1  0  0.122  0.224451  0  3.955593  0
C  C72  1  0.97351301  0.40097818  0.69765245  1  0  -0.057366  -0.052392  0  3.889531  0
C  C73  1  0.02648899  0.59902462  0.30234569  1  0  -0.057428  -0.052582  0  3.889627  0
C  C74  1  0.02908475  0.44152712  0.88427398  1  0  0.069385  0.234971  0  4.053814  0
C  C75  1  0.97091395  0.55847568  0.11572716  1  0  0.06945  0.234993  0  4.053706  0
C  C76  1  0.12539768  0.42075894  0.95105281  1  0  -0.105743  -0.175164  0  3.991822  0
C  C77  1  0.87459879  0.57924481  0.04894992  1  0  -0.105768  -0.175107  0  3.99185  0
C  C78  1  0.90284654  0.52091278  0.93349061  1  0  -0.109756  -0.199625  0  4.029394  0
C  C79  1  0.09715212  0.47909098  0.06651042  1  0  -0.109728  -0.199485  0  4.029259  0
N  N80  1  0.49658142  0.47158054  0.95364310  1  0  -0.145025  -0.119924  0  3.281028  0
N  N81  1  0.50343373  0.52842328  0.04635116  1  0  -0.144821  -0.119642  0  3.280857  0
N  N82  1  0.54584250  0.04121997  0.49446164  1  0  -0.13183  -0.096864  0  3.27426  0
N  N83  1  0.45415976  0.95877604  0.50554006  1  0  -0.131875  -0.096849  0  3.274267  0
N  N84  1  0.17814076  0.32623570  0.50479095  1  0  -0.328308  -0.276144  0  3.480859  0
N  N85  1  0.82186124  0.67376711  0.49520811  1  0  -0.328285  -0.276079  0  3.48064  0
O  O86  1  0.41054459  0.33820847  0.71303022  1  0  -0.313182  -0.535248  0  2.313182  0
O  O87  1  0.58946532  0.66178855  0.28697870  1  0  -0.313315  -0.535469  0  2.311757  0
O  O88  1  0.62716812  0.43900855  0.65300796  1  0  -0.32179  -0.562767  0  2.308805  0
O  O89  1  0.37283665  0.56100782  0.34697916  1  0  -0.321613  -0.562453  0  2.310608  0
O  O90  1  0.75528806  0.37948978  0.36492677  1  0  -0.323222  -0.540208  0  2.293778  0
O  O91  1  0.24471898  0.62052468  0.63507262  1  0  -0.322972  -0.539861  0  2.295201  0
O  O92  1  0.52845662  0.30322768  0.41513884  1  0  -0.320367  -0.574298  0  2.340019  0
O  O93  1  0.47155913  0.69676063  0.58486551  1  0  -0.320486  -0.574641  0  2.339046  0
O  O94  1  0.06741814  0.37894159  0.77093849  1  0  -0.180325  -0.206226  0  2.582839  0
O  O95  1  0.93257947  0.62106120  0.22906305  1  0  -0.180269  -0.20612  0  2.5827  0
