# generated using pymatgen
data_ZnH20C24S(N2O3)2
_symmetry_space_group_name_H-M   'P 1'
_cell_length_a   10.21245553
_cell_length_b   13.44183173
_cell_length_c   22.24622661
_cell_angle_alpha   89.99930381
_cell_angle_beta   90.00023744
_cell_angle_gamma   89.99972983
_symmetry_Int_Tables_number   1
_chemical_formula_structural   ZnH20C24S(N2O3)2
_chemical_formula_sum   'Zn4 H80 C96 S4 N16 O24'
_cell_volume   3053.83093070
_cell_formula_units_Z   4
loop_
 _symmetry_equiv_pos_site_id
 _symmetry_equiv_pos_as_xyz
  1  'x, y, z'
loop_
 _atom_site_type_symbol
 _atom_site_label
 _atom_site_symmetry_multiplicity
 _atom_site_fract_x
 _atom_site_fract_y
 _atom_site_fract_z
 _atom_site_occupancy
 _atom_site_pbe_bader_charge
 _atom_site_pbe_bader_spin_density
 _atom_site_pbe_cm5_charge
 _atom_site_pbe_ddec_charge
 _atom_site_pbe_ddec_spin_density
 _atom_site_pbe_ddec_sum_bond_order
 _atom_site_pbe_magmom
Zn  Zn0  1  0.49803768  0.75000090  0.47260859  1  1.255274  0  0.704753  0.784775  0  2.488202  0
Zn  Zn1  1  0.50196216  0.24999261  0.52738965  1  1.255192  0  0.704726  0.784622  0  2.4883  0
Zn  Zn2  1  0.49803529  0.25000347  0.02739249  1  1.255323  0  0.704775  0.784732  0  2.488168  0
Zn  Zn3  1  0.50196064  0.75000492  0.97260440  1  1.255217  0  0.704751  0.78473  0  2.488144  0
H  H4  1  0.53600587  0.74999585  0.22166854  1  0.123906  0  0.107696  0.115022  0  1.024675  0
H  H5  1  0.46399593  0.25000881  0.77833150  1  0.123927  0  0.107704  0.115037  0  1.024631  0
H  H6  1  0.53600672  0.25001061  0.27832947  1  0.123941  0  0.107665  0.114967  0  1.02467  0
H  H7  1  0.46398235  0.74998141  0.72167012  1  0.124091  0  0.107706  0.11505  0  1.024677  0
H  H8  1  0.82346205  0.74999004  0.08001603  1  0.102514  0  0.111068  0.119342  0  1.007732  0
H  H9  1  0.17653583  0.25000644  0.91998176  1  0.102635  0  0.111027  0.119267  0  1.007841  0
H  H10  1  0.82347299  0.25001095  0.41998208  1  0.102743  0  0.111026  0.119315  0  1.007757  0
H  H11  1  0.17651902  0.74998553  0.58001122  1  0.102502  0  0.11099  0.119179  0  1.007761  0
H  H12  1  0.90310626  0.75000203  0.36026048  1  0.085219  0  0.108236  0.11105  0  0.994101  0
H  H13  1  0.09689554  0.25000561  0.63973551  1  0.085048  0  0.108256  0.111039  0  0.994072  0
H  H14  1  0.90310096  0.25000240  0.13974002  1  0.085544  0  0.108257  0.110991  0  0.994112  0
H  H15  1  0.09688811  0.74998441  0.86025417  1  0.084787  0  0.1083  0.111051  0  0.994242  0
H  H16  1  0.70857490  0.75000521  0.29868941  1  0.090445  0  0.109137  0.118678  0  1.007934  0
H  H17  1  0.29142690  0.25000764  0.70131108  1  0.090438  0  0.109129  0.118721  0  1.007872  0
H  H18  1  0.70857995  0.25000586  0.20131073  1  0.090408  0  0.109123  0.118648  0  1.007891  0
H  H19  1  0.29140422  0.74999063  0.79868616  1  0.090566  0  0.109171  0.118679  0  1.007967  0
H  H20  1  0.69506083  0.86814135  0.55790909  1  0.194262  0  0.137488  0.119297  0  1.022232  0
H  H21  1  0.30494415  0.36814956  0.44208287  1  0.19427  0  0.137476  0.11921  0  1.022282  0
H  H22  1  0.69506096  0.13185847  0.94208982  1  0.194005  0  0.13751  0.119269  0  1.022263  0
H  H23  1  0.30494550  0.63185846  0.05791066  1  0.194242  0  0.13749  0.119249  0  1.022277  0
H  H24  1  0.30493999  0.13184397  0.44209320  1  0.194208  0  0.13753  0.119276  0  1.022301  0
H  H25  1  0.69504493  0.63185287  0.55791403  1  0.194373  0  0.137538  0.119238  0  1.022283  0
H  H26  1  0.30494182  0.86814992  0.05790887  1  0.19412  0  0.137525  0.119337  0  1.022162  0
H  H27  1  0.69505924  0.36815439  0.94208669  1  0.194064  0  0.137487  0.119244  0  1.02224  0
H  H28  1  0.12269476  0.75000069  0.40934537  1  0.048515  0  0.106264  0.103739  0  1.029147  0
H  H29  1  0.87730117  0.25000100  0.59065467  1  0.048564  0  0.106257  0.103716  0  1.029215  0
H  H30  1  0.12269196  0.25000277  0.09065545  1  0.048517  0  0.106265  0.103768  0  1.029073  0
H  H31  1  0.87729712  0.74999669  0.90934054  1  0.04868  0  0.106363  0.103927  0  1.029039  0
H  H32  1  0.84025202  0.00917240  0.57864317  1  0.096751  0  0.119161  0.113106  0  0.964895  0
H  H33  1  0.15974444  0.50918884  0.42135239  1  0.096624  0  0.119195  0.113152  0  0.964855  0
H  H34  1  0.84026026  0.99083435  0.92136007  1  0.096664  0  0.119188  0.113159  0  0.964817  0
H  H35  1  0.15975373  0.49082789  0.07864625  1  0.096631  0  0.119185  0.113077  0  0.964939  0
H  H36  1  0.15974489  0.99081739  0.42135957  1  0.096695  0  0.119198  0.113133  0  0.964761  0
H  H37  1  0.84026715  0.49082178  0.57864630  1  0.096909  0  0.119198  0.113114  0  0.964912  0
H  H38  1  0.15975329  0.00917478  0.07864357  1  0.096786  0  0.119195  0.113112  0  0.964887  0
H  H39  1  0.84026570  0.50917976  0.92135828  1  0.096711  0  0.119226  0.113187  0  0.964835  0
H  H40  1  0.79424493  0.12161808  0.54213179  1  0.076118  0  0.108829  0.097157  0  1.013282  0
H  H41  1  0.20576257  0.62162992  0.45786742  1  0.075869  0  0.108787  0.09712  0  1.013306  0
H  H42  1  0.79425422  0.87838511  0.95787271  1  0.076047  0  0.10882  0.097129  0  1.013141  0
H  H43  1  0.20575754  0.37838143  0.04213491  1  0.075789  0  0.108795  0.097167  0  1.013317  0
H  H44  1  0.20575393  0.87837022  0.45787275  1  0.075969  0  0.108798  0.097131  0  1.013249  0
H  H45  1  0.79425881  0.37838144  0.54213082  1  0.076012  0  0.108819  0.097127  0  1.013199  0
H  H46  1  0.20576325  0.12162699  0.04213632  1  0.075866  0  0.108819  0.097147  0  1.013272  0
H  H47  1  0.79424622  0.62162546  0.95787053  1  0.076057  0  0.1088  0.097152  0  1.013251  0
H  H48  1  0.31538221  0.74998865  0.23732851  1  0.146929  0  0.11748  0.129463  0  0.997767  0
H  H49  1  0.68462449  0.25000263  0.76267332  1  0.146954  0  0.117483  0.129417  0  0.997705  0
H  H50  1  0.31538488  0.25000149  0.26267087  1  0.146945  0  0.117466  0.12946  0  0.997611  0
H  H51  1  0.68460223  0.74998533  0.73732332  1  0.146874  0  0.11748  0.129411  0  0.997779  0
H  H52  1  0.96507430  0.09275939  0.46283951  1  0.051396  0  0.090465  0.088198  0  1.007951  0
H  H53  1  0.03493339  0.59276954  0.53715901  1  0.051398  0  0.090446  0.088215  0  1.007953  0
H  H54  1  0.96507862  0.90724408  0.03716516  1  0.051428  0  0.090452  0.08825  0  1.00803  0
H  H55  1  0.03492121  0.40723931  0.96284718  1  0.051764  0  0.090459  0.088234  0  1.007924  0
H  H56  1  0.03492359  0.90723189  0.53716367  1  0.051465  0  0.090428  0.088201  0  1.007964  0
H  H57  1  0.96508016  0.40724257  0.46284013  1  0.051678  0  0.09048  0.088267  0  1.007861  0
H  H58  1  0.03492514  0.09277473  0.96284387  1  0.051691  0  0.090481  0.088281  0  1.007881  0
H  H59  1  0.96507178  0.59276908  0.03716364  1  0.051246  0  0.09042  0.088205  0  1.007967  0
H  H60  1  0.03366004  0.09494306  0.53553634  1  0.021141  0  0.09545  0.093102  0  0.983568  0
H  H61  1  0.96634470  0.59495209  0.46446442  1  0.021078  0  0.095401  0.093023  0  0.983601  0
H  H62  1  0.03366627  0.90506281  0.96446896  1  0.02106  0  0.095447  0.093138  0  0.983391  0
H  H63  1  0.96634336  0.40506030  0.03554520  1  0.021072  0  0.095483  0.09308  0  0.983608  0
H  H64  1  0.96634078  0.90504896  0.46446954  1  0.021128  0  0.095438  0.093118  0  0.98359  0
H  H65  1  0.03366983  0.40506002  0.53553472  1  0.021105  0  0.095434  0.093063  0  0.983581  0
H  H66  1  0.96634728  0.09495376  0.03554097  1  0.021104  0  0.09546  0.093114  0  0.983551  0
H  H67  1  0.03366236  0.59495032  0.96446967  1  0.02113  0  0.095456  0.093146  0  0.983505  0
H  H68  1  0.56446343  0.92982538  0.38152466  1  0.109163  0  0.123871  0.125001  0  0.994398  0
H  H69  1  0.43553234  0.42981182  0.61846908  1  0.109337  0  0.12387  0.12501  0  0.994495  0
H  H70  1  0.56444830  0.07018024  0.11847070  1  0.109119  0  0.123919  0.125124  0  0.994415  0
H  H71  1  0.43554092  0.57017850  0.88152889  1  0.109178  0  0.123909  0.125077  0  0.994467  0
H  H72  1  0.43553935  0.07016515  0.61847717  1  0.109031  0  0.123902  0.125082  0  0.994533  0
H  H73  1  0.56447729  0.57017946  0.38152692  1  0.109285  0  0.123925  0.125122  0  0.994417  0
H  H74  1  0.43554468  0.92983484  0.88152664  1  0.10912  0  0.123921  0.125183  0  0.994395  0
H  H75  1  0.56445990  0.42981873  0.11847160  1  0.109176  0  0.123922  0.125088  0  0.994472  0
H  H76  1  0.73319748  0.08132280  0.41843450  1  0.129881  0  0.119892  0.120784  0  1.046462  0
H  H77  1  0.26679657  0.58131192  0.58156411  1  0.129979  0  0.119916  0.120749  0  1.046447  0
H  H78  1  0.73319626  0.91868520  0.08157108  1  0.129925  0  0.119941  0.120792  0  1.046521  0
H  H79  1  0.26680644  0.41868048  0.91843668  1  0.129834  0  0.119902  0.120774  0  1.046496  0
H  H80  1  0.26680236  0.91867442  0.58156914  1  0.129683  0  0.119942  0.120878  0  1.046597  0
H  H81  1  0.73322579  0.41869052  0.41843548  1  0.129963  0  0.119943  0.120812  0  1.046387  0
H  H82  1  0.26680946  0.08133063  0.91843436  1  0.129703  0  0.119943  0.120886  0  1.046448  0
H  H83  1  0.73320712  0.58131302  0.08156875  1  0.129901  0  0.119945  0.120815  0  1.046465  0
C  C84  1  0.86747468  0.74999739  0.23325239  1  0.063832  0  -0.002289  0.052425  0  4.034259  0
C  C85  1  0.13252614  0.25000207  0.76674540  1  0.063803  0  -0.002272  0.052505  0  4.034441  0
C  C86  1  0.86747641  0.25000568  0.26674490  1  0.063753  0  -0.002275  0.052493  0  4.034326  0
C  C87  1  0.13250581  0.74998709  0.73324975  1  0.064151  0  -0.002269  0.052514  0  4.033848  0
C  C88  1  0.63813306  0.74999507  0.20771032  1  0.033803  0  -0.0676  -0.060831  0  3.913744  0
C  C89  1  0.36186679  0.25000142  0.79228972  1  0.033873  0  -0.067558  -0.060769  0  3.913565  0
C  C90  1  0.63813893  0.25000360  0.29228564  1  0.033923  0  -0.067545  -0.060787  0  3.913521  0
C  C91  1  0.36185308  0.74998544  0.70771350  1  0.033859  0  -0.06745  -0.060844  0  3.913518  0
C  C92  1  0.56323383  0.74999403  0.09887426  1  1.590826  0  0.194908  0.552774  0  4.271386  0
C  C93  1  0.43676112  0.25001212  0.90112848  1  1.592347  0  0.194906  0.552708  0  4.271417  0
C  C94  1  0.56324068  0.25000267  0.40112875  1  1.592467  0  0.194919  0.552741  0  4.27098  0
C  C95  1  0.43675622  0.74999084  0.59887084  1  1.592464  0  0.194882  0.552544  0  4.271347  0
C  C96  1  0.89646939  0.74999497  0.17156331  1  -0.219433  0  -0.022523  -0.126595  0  3.996762  0
C  C97  1  0.10353339  0.25000673  0.82843448  1  -0.21944  0  -0.022525  -0.126618  0  3.996737  0
C  C98  1  0.89646971  0.25000800  0.32843494  1  -0.219379  0  -0.022515  -0.1266  0  3.996563  0
C  C99  1  0.10351642  0.74998253  0.67156106  1  -0.219656  0  -0.022569  -0.126867  0  3.99669  0
C  C100  1  0.23142827  0.74999610  0.32703848  1  -0.002862  0  -0.01096  -0.023397  0  3.934782  0
C  C101  1  0.76857255  0.24999964  0.67295886  1  -0.002736  0  -0.010991  -0.023571  0  3.934781  0
C  C102  1  0.23143013  0.25000028  0.17295850  1  -0.002761  0  -0.010915  -0.023385  0  3.934709  0
C  C103  1  0.76855404  0.74999099  0.82703615  1  -0.002859  0  -0.011079  -0.023323  0  3.934309  0
C  C104  1  0.80052361  0.74999631  0.12787221  1  -0.018683  0  -0.083055  -0.117022  0  4.005238  0
C  C105  1  0.19947232  0.25000166  0.87212738  1  -0.018557  0  -0.082976  -0.116843  0  4.005367  0
C  C106  1  0.80052629  0.25000328  0.37212585  1  -0.018205  0  -0.082964  -0.116914  0  4.005243  0
C  C107  1  0.19946474  0.74998874  0.62787059  1  -0.018465  0  -0.082893  -0.116721  0  4.004944  0
C  C108  1  0.99235108  0.75000065  0.33329015  1  -0.052183  0  -0.082495  -0.117276  0  3.97412  0
C  C109  1  0.00764779  0.25000327  0.66670539  1  -0.052006  0  -0.082692  -0.117289  0  3.974185  0
C  C110  1  0.99235288  0.25000123  0.16670738  1  -0.052562  0  -0.082596  -0.117171  0  3.974298  0
C  C111  1  0.00763815  0.74998856  0.83328502  1  -0.051231  0  -0.082632  -0.117314  0  3.974352  0
C  C112  1  0.98557378  0.74999756  0.27064716  1  0.031278  0  0.000688  0.056131  0  4.035332  0
C  C113  1  0.01442509  0.24999967  0.72935018  1  0.031623  0  0.000788  0.05613  0  4.035509  0
C  C114  1  0.98557125  0.25000509  0.22934990  1  0.031397  0  0.000674  0.056035  0  4.035392  0
C  C115  1  0.01441097  0.74998544  0.77064429  1  0.031145  0  0.000597  0.055943  0  4.035752  0
C  C116  1  0.73632315  0.75000265  0.25136455  1  -0.090791  0  -0.075171  -0.104335  0  3.920756  0
C  C117  1  0.26367473  0.25000499  0.74863459  1  -0.090847  0  -0.075239  -0.1045  0  3.92091  0
C  C118  1  0.73633157  0.25000460  0.24863204  1  -0.090973  0  -0.075247  -0.10433  0  3.920906  0
C  C119  1  0.26365652  0.74998742  0.75136575  1  -0.091037  0  -0.075268  -0.104241  0  3.920639  0
C  C120  1  0.68202545  0.90468964  0.51472499  1  0.971745  0  0.146715  0.090984  0  3.889353  0
C  C121  1  0.31798516  0.40469176  0.48526849  1  0.971958  0  0.14654  0.09089  0  3.889423  0
C  C122  1  0.68201544  0.09531320  0.98527525  1  0.971944  0  0.146759  0.091141  0  3.88928  0
C  C123  1  0.31798244  0.59531399  0.01472550  1  0.971901  0  0.14678  0.091227  0  3.889113  0
C  C124  1  0.31797831  0.09530014  0.48527775  1  0.971476  0  0.146636  0.090949  0  3.88953  0
C  C125  1  0.68201468  0.59530696  0.51472795  1  0.97163  0  0.146554  0.091024  0  3.88933  0
C  C126  1  0.31798147  0.90469742  0.01472389  1  0.971719  0  0.146683  0.090966  0  3.889213  0
C  C127  1  0.68202034  0.40469514  0.98527364  1  0.971626  0  0.146625  0.090982  0  3.889359  0
C  C128  1  0.11487076  0.74999821  0.36061305  1  -0.009046  0  -0.077094  -0.085025  0  3.977196  0
C  C129  1  0.88512811  0.24999827  0.63938474  1  -0.009341  0  -0.077012  -0.084993  0  3.9775  0
C  C130  1  0.11486840  0.25000230  0.13938640  1  -0.009113  0  -0.077047  -0.085045  0  3.977422  0
C  C131  1  0.88512165  0.74999195  0.86060779  1  -0.009343  0  -0.077028  -0.085135  0  3.976975  0
C  C132  1  0.83476135  0.04682470  0.53491381  1  0.292371  0  -0.051364  -0.074958  0  3.862618  0
C  C133  1  0.16524467  0.54683357  0.46508506  1  0.292751  0  -0.051445  -0.075223  0  3.862752  0
C  C134  1  0.83476729  0.95318133  0.96509032  1  0.292611  0  -0.051412  -0.075038  0  3.86259  0
C  C135  1  0.16524204  0.45317570  0.03491494  1  0.292756  0  -0.05138  -0.075064  0  3.862845  0
C  C136  1  0.16523458  0.95316360  0.46509073  1  0.292373  0  -0.051486  -0.075095  0  3.862662  0
C  C137  1  0.83477084  0.45317631  0.53491318  1  0.292227  0  -0.05146  -0.075077  0  3.862723  0
C  C138  1  0.16524332  0.04683450  0.03491422  1  0.292668  0  -0.05151  -0.075148  0  3.862757  0
C  C139  1  0.83476661  0.54683120  0.96508870  1  0.292282  0  -0.051492  -0.075184  0  3.862711  0
C  C140  1  0.22575159  0.74999301  0.26398374  1  0.010454  0  -0.061764  -0.074379  0  3.914062  0
C  C141  1  0.77425315  0.24999827  0.73601495  1  0.010536  0  -0.061776  -0.074203  0  3.913768  0
C  C142  1  0.22574814  0.25000190  0.23601413  1  0.010528  0  -0.061816  -0.074394  0  3.913814  0
C  C143  1  0.77423701  0.74998863  0.76397872  1  0.010154  0  -0.061662  -0.074299  0  3.914009  0
C  C144  1  0.96994808  0.05132785  0.50549859  1  -0.034215  0  -0.163082  -0.166403  0  3.942393  0
C  C145  1  0.03005987  0.55133885  0.49450204  1  -0.006024  0  -0.162984  -0.166275  0  3.942306  0
C  C146  1  0.96995432  0.94867620  0.99450714  1  -0.034331  0  -0.163066  -0.16652  0  3.942461  0
C  C147  1  0.03005309  0.44867089  0.00550444  1  -0.00629  0  -0.163087  -0.166326  0  3.942491  0
C  C148  1  0.03005078  0.94866119  0.49450639  1  -0.005933  0  -0.163012  -0.166404  0  3.942487  0
C  C149  1  0.96995564  0.44867400  0.50549755  1  -0.034409  0  -0.163076  -0.166431  0  3.942411  0
C  C150  1  0.03005728  0.05134185  0.00550144  1  -0.006081  0  -0.163067  -0.166394  0  3.942349  0
C  C151  1  0.96994969  0.55133750  0.99450728  1  -0.033915  0  -0.163043  -0.16648  0  3.942451  0
C  C152  1  0.36130218  0.75000523  0.35931554  1  1.559265  0  0.200177  0.557724  0  4.25771  0
C  C153  1  0.63869668  0.25000167  0.64068315  1  1.559417  0  0.200239  0.557878  0  4.257829  0
C  C154  1  0.36129885  0.24998698  0.14067854  1  1.559554  0  0.200107  0.55769  0  4.257737  0
C  C155  1  0.63868924  0.75000058  0.85932015  1  1.559885  0  0.200095  0.557615  0  4.257842  0
C  C156  1  0.66874638  0.74999859  0.14631072  1  -0.031326  0  -0.014639  -0.031283  0  3.948222  0
C  C157  1  0.33124563  0.25000533  0.85369022  1  -0.03163  0  -0.014632  -0.031292  0  3.948321  0
C  C158  1  0.66874889  0.25000666  0.35368664  1  -0.03196  0  -0.014627  -0.031312  0  3.947942  0
C  C159  1  0.33124606  0.74998387  0.64631115  1  -0.03142  0  -0.01471  -0.031213  0  3.948011  0
C  C160  1  0.10300234  0.74999572  0.23743485  1  -0.249522  0  -0.015157  -0.11581  0  3.940797  0
C  C161  1  0.89699946  0.25000225  0.76256609  1  -0.249857  0  -0.015082  -0.115813  0  3.940968  0
C  C162  1  0.10300011  0.24999963  0.26256369  1  -0.249693  0  -0.015102  -0.115813  0  3.940717  0
C  C163  1  0.89698700  0.74999016  0.73743006  1  -0.249431  0  -0.015149  -0.115732  0  3.941003  0
C  C164  1  0.61694558  0.94005860  0.42342616  1  0.424286  0  -0.002912  -0.039779  0  4.009559  0
C  C165  1  0.38305601  0.44004902  0.57656885  1  0.423933  0  -0.002889  -0.039795  0  4.009834  0
C  C166  1  0.61693308  0.05994312  0.07657425  1  0.423697  0  -0.00292  -0.039842  0  4.009682  0
C  C167  1  0.38306209  0.55994595  0.92342767  1  0.423879  0  -0.002892  -0.039787  0  4.00971  0
C  C168  1  0.38306014  0.05993342  0.57657972  1  0.424172  0  -0.003064  -0.040034  0  4.009743  0
C  C169  1  0.61694873  0.55994449  0.42342849  1  0.423959  0  -0.002963  -0.039976  0  4.009733  0
C  C170  1  0.38306677  0.94006676  0.92342624  1  0.424254  0  -0.003073  -0.040225  0  4.009772  0
C  C171  1  0.61694167  0.44005203  0.07657282  1  0.424004  0  -0.003021  -0.04003  0  4.009734  0
C  C172  1  0.70089802  0.01431392  0.44086504  1  0.318789  0  0.000951  -0.097779  0  3.914984  0
C  C173  1  0.29910429  0.51430931  0.55912868  1  0.318771  0  0.000997  -0.097749  0  3.91484  0
C  C174  1  0.70089030  0.98568825  0.05913688  1  0.31887  0  0.000876  -0.097864  0  3.915162  0
C  C175  1  0.29910708  0.48568819  0.94086678  1  0.318965  0  0.000921  -0.097816  0  3.91482  0
C  C176  1  0.29909791  0.98567587  0.55913814  1  0.318661  0  0.000938  -0.097845  0  3.915208  0
C  C177  1  0.70090633  0.48569015  0.44086821  1  0.318537  0  0.000983  -0.097724  0  3.914814  0
C  C178  1  0.29910367  0.01432237  0.94086316  1  0.318714  0  0.000913  -0.097806  0  3.914838  0
C  C179  1  0.70089962  0.51431425  0.05913505  1  0.318722  0  0.001009  -0.097657  0  3.914797  0
S  S180  1  0.06847552  0.74999581  0.15880575  1  2.469632  0  0.48027  0.99432  0  5.721754  0
S  S181  1  0.93152824  0.25000068  0.84119294  1  2.469575  0  0.480304  0.994352  0  5.721824  0
S  S182  1  0.06848281  0.25000413  0.34119362  1  2.46981  0  0.480376  0.994454  0  5.72151  0
S  S183  1  0.93151213  0.74999310  0.65880058  1  2.469728  0  0.480472  0.994589  0  5.721525  0
N  N184  1  0.60603775  0.87240965  0.46991339  1  -1.270155  0  -0.368003  -0.299046  0  3.664135  0
N  N185  1  0.39396328  0.37240466  0.53007808  1  -1.270054  0  -0.367911  -0.298841  0  3.664291  0
N  N186  1  0.60603126  0.12759211  0.03008520  1  -1.269803  0  -0.368057  -0.299057  0  3.664241  0
N  N187  1  0.39396740  0.62759473  0.96991396  1  -1.269855  0  -0.368092  -0.299198  0  3.664358  0
N  N188  1  0.39396111  0.12758014  0.53008889  1  -1.269829  0  -0.367859  -0.29873  0  3.66399  0
N  N189  1  0.60603363  0.62758736  0.46991791  1  -1.26986  0  -0.367955  -0.298921  0  3.664156  0
N  N190  1  0.39396565  0.87241702  0.96991304  1  -1.270077  0  -0.367942  -0.298764  0  3.664085  0
N  N191  1  0.60603440  0.37241068  0.03008158  1  -1.269975  0  -0.367981  -0.298887  0  3.664188  0
N  N192  1  0.74088363  0.99076279  0.49851388  1  -1.239023  0  -0.238833  0.054269  0  3.764282  0
N  N193  1  0.25911568  0.49076182  0.50148030  1  -1.239199  0  -0.238804  0.054454  0  3.763871  0
N  N194  1  0.74088937  0.00924370  0.00148901  1  -1.238872  0  -0.238834  0.054231  0  3.764288  0
N  N195  1  0.25911982  0.50923954  0.99851598  1  -1.239123  0  -0.23885  0.054247  0  3.763938  0
N  N196  1  0.25911034  0.00922923  0.50148841  1  -1.238355  0  -0.238777  0.054319  0  3.764138  0
N  N197  1  0.74089298  0.50923988  0.49851704  1  -1.238873  0  -0.23882  0.054298  0  3.764029  0
N  N198  1  0.25911830  0.99077138  0.99851372  1  -1.238711  0  -0.238779  0.054241  0  3.764005  0
N  N199  1  0.74089177  0.49076289  0.00148630  1  -1.238554  0  -0.238773  0.054287  0  3.764132  0
O  O200  1  0.44490682  0.74998443  0.11281988  1  -1.170477  0  -0.328447  -0.550245  0  2.101355  0
O  O201  1  0.55509107  0.25001056  0.88718645  1  -1.171678  0  -0.328371  -0.550213  0  2.101338  0
O  O202  1  0.44491159  0.25001119  0.38718245  1  -1.171731  0  -0.328355  -0.550177  0  2.101319  0
O  O203  1  0.55508532  0.74997859  0.61281984  1  -1.171727  0  -0.328374  -0.550118  0  2.101496  0
O  O204  1  0.10910098  0.84257417  0.13055031  1  -1.286024  0  -0.313731  -0.522335  0  2.132071  0
O  O205  1  0.89090122  0.34257714  0.86944903  1  -1.286062  0  -0.31378  -0.5224  0  2.132111  0
O  O206  1  0.10909540  0.15742190  0.36945273  1  -1.286146  0  -0.313786  -0.522405  0  2.131986  0
O  O207  1  0.89089229  0.65741753  0.63054126  1  -1.286394  0  -0.313884  -0.522527  0  2.132019  0
O  O208  1  0.89090180  0.15742380  0.86945018  1  -1.286054  0  -0.313757  -0.522374  0  2.13209  0
O  O209  1  0.10910156  0.65742009  0.13054831  1  -1.286215  0  -0.313776  -0.522411  0  2.132042  0
O  O210  1  0.89089660  0.84257607  0.63054596  1  -1.28622  0  -0.313815  -0.522439  0  2.132  0
O  O211  1  0.10910363  0.34258193  0.36945203  1  -1.286255  0  -0.313804  -0.522457  0  2.132007  0
O  O212  1  0.34919566  0.74999054  0.41753978  1  -1.140354  0  -0.338411  -0.561862  0  2.38763  0
O  O213  1  0.65081104  0.24999181  0.58245936  1  -1.140449  0  -0.338415  -0.56184  0  2.387563  0
O  O214  1  0.34917809  0.24999129  0.08245472  1  -1.140762  0  -0.338379  -0.561835  0  2.387452  0
O  O215  1  0.65082077  0.75000296  0.91754442  1  -1.140755  0  -0.338402  -0.561855  0  2.387387  0
O  O216  1  0.61121323  0.75000489  0.04484492  1  -1.185638  0  -0.344746  -0.575856  0  2.398357  0
O  O217  1  0.38877094  0.25000647  0.95515602  1  -1.185965  0  -0.344871  -0.575919  0  2.398534  0
O  O218  1  0.61123428  0.24999238  0.45515773  1  -1.185957  0  -0.34485  -0.575943  0  2.398286  0
O  O219  1  0.38876752  0.75000931  0.54484141  1  -1.1859  0  -0.344787  -0.575874  0  2.398327  0
O  O220  1  0.46661463  0.75001871  0.33101511  1  -1.182508  0  -0.326077  -0.554601  0  2.112767  0
O  O221  1  0.53338326  0.25000976  0.66898044  1  -1.182632  0  -0.326111  -0.554686  0  2.112844  0
O  O222  1  0.46661253  0.24998279  0.16897648  1  -1.182541  0  -0.326024  -0.554581  0  2.112861  0
O  O223  1  0.53337262  0.75000402  0.83102491  1  -1.182932  0  -0.32597  -0.554561  0  2.113243  0
