# generated using pymatgen
data_CdH13C16N2O7
_symmetry_space_group_name_H-M   'P 1'
_cell_length_a   10.23263213
_cell_length_b   12.28548511
_cell_length_c   14.25482739
_cell_angle_alpha   89.99914073
_cell_angle_beta   104.11854588
_cell_angle_gamma   89.99972182
_symmetry_Int_Tables_number   1
_chemical_formula_structural   CdH13C16N2O7
_chemical_formula_sum   'Cd4 H52 C64 N8 O28'
_cell_volume   1737.88377304
_cell_formula_units_Z   4
loop_
 _symmetry_equiv_pos_site_id
 _symmetry_equiv_pos_as_xyz
  1  'x, y, z'
loop_
 _atom_site_type_symbol
 _atom_site_label
 _atom_site_symmetry_multiplicity
 _atom_site_fract_x
 _atom_site_fract_y
 _atom_site_fract_z
 _atom_site_occupancy
 _atom_site_pbe_bader_charge
 _atom_site_pbe_bader_spin_density
 _atom_site_pbe_cm5_charge
 _atom_site_pbe_ddec_charge
 _atom_site_pbe_ddec_spin_density
 _atom_site_pbe_ddec_sum_bond_order
 _atom_site_pbe_magmom
Cd  Cd0  1  0.17716053  0.07920706  0.07877787  1  1.304223  0  0.773213  0.996513  0  2.10829  0
Cd  Cd1  1  0.82285778  0.57919849  0.42122443  1  1.30431  0  0.773201  0.996526  0  2.108292  0
Cd  Cd2  1  0.82284156  0.92079724  0.92122689  1  1.304196  0  0.773193  0.996501  0  2.108254  0
Cd  Cd3  1  0.17714226  0.42080499  0.57877788  1  1.304307  0  0.773147  0.996393  0  2.10849  0
H  H4  1  0.47047891  0.83824590  0.28718476  1  0.11093  0  0.106676  0.108288  0  1.026183  0
H  H5  1  0.52955381  0.33824013  0.21282146  1  0.111533  0  0.106726  0.108305  0  1.026295  0
H  H6  1  0.52951709  0.16176247  0.71281689  1  0.11126  0  0.10669  0.10832  0  1.026197  0
H  H7  1  0.47045316  0.66176173  0.78717638  1  0.111466  0  0.106746  0.108377  0  1.026294  0
H  H8  1  0.37765816  0.59407825  0.47651909  1  0.133616  0  0.111728  0.130877  0  1.001915  0
H  H9  1  0.62234777  0.09408518  0.02347466  1  0.133597  0  0.111715  0.130932  0  1.001865  0
H  H10  1  0.62235485  0.40591709  0.52347906  1  0.133582  0  0.111719  0.130894  0  1.001846  0
H  H11  1  0.37765734  0.90591260  0.97653060  1  0.133494  0  0.111699  0.130891  0  1.001868  0
H  H12  1  0.06740217  0.81321357  0.32661345  1  0.11981  0  0.109187  0.117295  0  1.010496  0
H  H13  1  0.93262179  0.31319222  0.17339305  1  0.11944  0  0.10917  0.117239  0  1.010544  0
H  H14  1  0.93259278  0.18677037  0.67338592  1  0.119797  0  0.109188  0.117284  0  1.010642  0
H  H15  1  0.06737813  0.68680964  0.82660363  1  0.119484  0  0.109185  0.117236  0  1.010489  0
H  H16  1  0.00384696  0.00877778  0.28530828  1  0.56131  0  0.313402  0.299023  0  0.986346  0
H  H17  1  0.99616004  0.50876724  0.21469377  1  0.561719  0  0.313432  0.299042  0  0.986414  0
H  H18  1  0.99613989  0.99121594  0.71468765  1  0.561288  0  0.313446  0.299117  0  0.986285  0
H  H19  1  0.00384300  0.49122241  0.78530834  1  0.561422  0  0.31343  0.299027  0  0.986358  0
H  H20  1  0.10133972  0.11708980  0.86142309  1  0.59702  0  0.288541  0.378013  0  0.949807  0
H  H21  1  0.89869887  0.61710784  0.63859888  1  0.597046  0  0.288464  0.377861  0  0.950006  0
H  H22  1  0.89866552  0.88289252  0.13858850  1  0.597275  0  0.288515  0.377989  0  0.949861  0
H  H23  1  0.10130508  0.38288343  0.36139847  1  0.597195  0  0.288541  0.377988  0  0.949868  0
H  H24  1  0.24217024  0.16386954  0.90524894  1  0.629358  0  0.279064  0.373872  0  0.96713  0
H  H25  1  0.75785334  0.66385554  0.59475030  1  0.629933  0  0.279046  0.373759  0  0.967234  0
H  H26  1  0.75782879  0.83613557  0.09475321  1  0.62936  0  0.27906  0.373879  0  0.967115  0
H  H27  1  0.24215063  0.33613573  0.40524775  1  0.629431  0  0.279055  0.373798  0  0.967177  0
H  H28  1  0.23652149  0.06706235  0.75110451  1  0.24743  0  0.15137  0.133444  0  0.99984  0
H  H29  1  0.76346911  0.56707331  0.74890177  1  0.247544  0  0.151394  0.133421  0  0.999891  0
H  H30  1  0.76346249  0.93293055  0.24889866  1  0.247471  0  0.151402  0.133424  0  0.999819  0
H  H31  1  0.23654202  0.43292529  0.25110308  1  0.247449  0  0.151375  0.133403  0  0.999851  0
H  H32  1  0.97188067  0.81888509  0.60876900  1  0.200121  0  0.129308  0.140191  0  1.013893  0
H  H33  1  0.02811295  0.31887740  0.89122048  1  0.20013  0  0.129319  0.140276  0  1.013788  0
H  H34  1  0.02811909  0.18111595  0.39121994  1  0.200075  0  0.129299  0.140168  0  1.013916  0
H  H35  1  0.97188100  0.68110817  0.10877873  1  0.200228  0  0.129298  0.140179  0  1.013872  0
H  H36  1  0.22800596  0.78322689  0.57814255  1  0.152598  0  0.130237  0.136214  0  1.011829  0
H  H37  1  0.77198610  0.28322137  0.92185064  1  0.152687  0  0.130251  0.136254  0  1.011843  0
H  H38  1  0.77199591  0.21678311  0.42185165  1  0.152495  0  0.130258  0.136261  0  1.01187  0
H  H39  1  0.22800481  0.71677723  0.07814736  1  0.152621  0  0.130227  0.136261  0  1.011785  0
H  H40  1  0.46402112  0.85581344  0.70022654  1  0.112796  0  0.120995  0.117433  0  0.98298  0
H  H41  1  0.53596722  0.35581996  0.79976930  1  0.112633  0  0.120921  0.117414  0  0.983051  0
H  H42  1  0.53597294  0.14419411  0.29977829  1  0.112758  0  0.120953  0.117372  0  0.982966  0
H  H43  1  0.46402758  0.64419003  0.20022232  1  0.112691  0  0.120969  0.117446  0  0.982905  0
H  H44  1  0.46061401  0.99353911  0.73225878  1  0.09418  0  0.123728  0.121064  0  0.969565  0
H  H45  1  0.53938000  0.49355350  0.76774183  1  0.094101  0  0.12373  0.121086  0  0.969548  0
H  H46  1  0.53938006  0.00646437  0.26774676  1  0.094334  0  0.123707  0.12106  0  0.96954  0
H  H47  1  0.46062601  0.50645812  0.23225796  1  0.094219  0  0.123687  0.121058  0  0.969513  0
H  H48  1  0.63921887  0.87034235  0.61660393  1  0.101295  0  0.109516  0.122456  0  0.979708  0
H  H49  1  0.36077138  0.37034892  0.88339485  1  0.101445  0  0.109516  0.122412  0  0.979799  0
H  H50  1  0.36078225  0.12966602  0.38340278  1  0.101357  0  0.109497  0.122388  0  0.979761  0
H  H51  1  0.63922356  0.62965374  0.11660381  1  0.101481  0  0.109535  0.122462  0  0.979676  0
H  H52  1  0.28528849  0.07170057  0.52767398  1  0.076142  0  0.103074  0.105663  0  1.002025  0
H  H53  1  0.71471208  0.57169154  0.97233107  1  0.076251  0  0.103107  0.105682  0  1.002085  0
H  H54  1  0.71471363  0.92830373  0.47233218  1  0.07573  0  0.103094  0.105656  0  1.002066  0
H  H55  1  0.28527986  0.42830706  0.02766850  1  0.076235  0  0.103123  0.105675  0  1.00212  0
C  C56  1  0.22347489  0.92651612  0.22829133  1  1.538941  0  0.200766  0.569132  0  4.222419  0
C  C57  1  0.77655086  0.42650262  0.27171400  1  1.538424  0  0.200855  0.569175  0  4.222308  0
C  C58  1  0.77651610  0.07348248  0.77171019  1  1.539159  0  0.200726  0.569246  0  4.221623  0
C  C59  1  0.22345105  0.57350330  0.72828161  1  1.538417  0  0.200763  0.569114  0  4.222277  0
C  C60  1  0.26560129  0.83889411  0.30158903  1  -0.003165  0  -0.022633  -0.047398  0  4.029216  0
C  C61  1  0.73442947  0.33888044  0.19841967  1  -0.002313  0  -0.022601  -0.047216  0  4.029343  0
C  C62  1  0.73439266  0.16110124  0.69841017  1  -0.002858  0  -0.022636  -0.047395  0  4.02909  0
C  C63  1  0.26557656  0.66112060  0.80158083  1  -0.002148  0  -0.022561  -0.046938  0  4.028952  0
C  C64  1  0.39867674  0.80216738  0.32308564  1  -0.058104  0  -0.072969  -0.100939  0  3.94818  0
C  C65  1  0.60135237  0.30216521  0.17692186  1  -0.058846  0  -0.073011  -0.100932  0  3.948496  0
C  C66  1  0.60132125  0.19783366  0.67691493  1  -0.058456  0  -0.072937  -0.100885  0  3.948323  0
C  C67  1  0.39865461  0.69784072  0.82307669  1  -0.058823  0  -0.073061  -0.101222  0  3.948597  0
C  C68  1  0.44089035  0.71815783  0.38945831  1  0.002827  0  -0.017874  -0.031609  0  3.989851  0
C  C69  1  0.55912956  0.21816105  0.11054666  1  0.002748  0  -0.017817  -0.031654  0  3.990032  0
C  C70  1  0.55911164  0.28184321  0.61054152  1  0.002881  0  -0.017931  -0.031775  0  3.989973  0
C  C71  1  0.44087254  0.78183999  0.88945810  1  0.002582  0  -0.017779  -0.03152  0  3.989948  0
C  C72  1  0.58470602  0.68234517  0.41141314  1  1.540004  0  0.191307  0.557039  0  4.239293  0
C  C73  1  0.41531228  0.18235586  0.08859272  1  1.540279  0  0.191284  0.556902  0  4.239178  0
C  C74  1  0.41529787  0.31766564  0.58858139  1  1.53909  0  0.191399  0.557256  0  4.239126  0
C  C75  1  0.58468574  0.81765495  0.91140926  1  1.539778  0  0.191184  0.556743  0  4.239452  0
C  C76  1  0.34667996  0.66395956  0.42910462  1  0.03546  0  -0.068543  -0.094744  0  3.880378  0
C  C77  1  0.65333439  0.16395822  0.07089522  1  0.035674  0  -0.068569  -0.094956  0  3.880445  0
C  C78  1  0.65332600  0.33603578  0.57089306  1  0.035285  0  -0.068475  -0.094705  0  3.88032  0
C  C79  1  0.34666873  0.83603957  0.92911041  1  0.035715  0  -0.068523  -0.094878  0  3.88035  0
C  C80  1  0.21198677  0.69814266  0.40476253  1  -0.095956  0  -0.022783  -0.046832  0  3.999658  0
C  C81  1  0.78802935  0.19812814  0.09524348  1  -0.096219  0  -0.022735  -0.046326  0  3.999418  0
C  C82  1  0.78801828  0.30185187  0.59523991  1  -0.096062  0  -0.022791  -0.04669  0  3.99961  0
C  C83  1  0.21197365  0.80187046  0.90475652  1  -0.096238  0  -0.02278  -0.046441  0  3.999332  0
C  C84  1  0.10490227  0.63435596  0.43511747  1  1.560383  0  0.207705  0.58786  0  4.205829  0
C  C85  1  0.89511436  0.13434479  0.06488033  1  1.560415  0  0.207478  0.587416  0  4.20622  0
C  C86  1  0.89510676  0.36563124  0.56488283  1  1.561003  0  0.207698  0.58779  0  4.205592  0
C  C87  1  0.10489061  0.86565625  0.93511789  1  1.560391  0  0.207579  0.587661  0  4.20613  0
C  C88  1  0.17264690  0.78814297  0.34431505  1  -0.023495  0  -0.07337  -0.101054  0  3.926885  0
C  C89  1  0.82738027  0.28812398  0.15568880  1  -0.023761  0  -0.073495  -0.101373  0  3.927228  0
C  C90  1  0.82735300  0.21184586  0.65568093  1  -0.023774  0  -0.073426  -0.101214  0  3.927193  0
C  C91  1  0.17262160  0.71187706  0.84430539  1  -0.023762  0  -0.073492  -0.101436  0  3.926992  0
C  C92  1  0.20094230  0.99541931  0.70735728  1  0.97255  0  0.178638  0.113037  0  3.794943  0
C  C93  1  0.79904768  0.49542489  0.79264334  1  0.972699  0  0.17854  0.112789  0  3.795043  0
C  C94  1  0.79904763  0.00457929  0.29264197  1  0.972864  0  0.178502  0.112827  0  3.795038  0
C  C95  1  0.20095738  0.50457127  0.20735910  1  0.972568  0  0.178515  0.112837  0  3.795024  0
C  C96  1  0.06406653  0.86626378  0.62996089  1  0.359728  0  0.024372  -0.01268  0  3.881178  0
C  C97  1  0.93592765  0.36625932  0.87003157  1  0.359792  0  0.024351  -0.012731  0  3.88098  0
C  C98  1  0.93593530  0.13374052  0.37003120  1  0.359773  0  0.024425  -0.012524  0  3.880758  0
C  C99  1  0.06407130  0.63373195  0.12996706  1  0.359846  0  0.024446  -0.012527  0  3.88095  0
C  C100  1  0.18990018  0.84718096  0.61635436  1  0.37073  0  0.018233  -0.084504  0  3.878916  0
C  C101  1  0.81009327  0.34717840  0.88364174  1  0.370633  0  0.018228  -0.084726  0  3.878748  0
C  C102  1  0.81009170  0.15282333  0.38364240  1  0.370844  0  0.018152  -0.084872  0  3.878676  0
C  C103  1  0.18990676  0.65281613  0.11636057  1  0.370867  0  0.01822  -0.084778  0  3.878736  0
C  C104  1  0.41928270  0.93483872  0.67431850  1  0.285637  0  -0.039136  -0.117172  0  3.865183  0
C  C105  1  0.58070387  0.43484461  0.82568094  1  0.285708  0  -0.039058  -0.117206  0  3.865125  0
C  C106  1  0.58070932  0.06516639  0.32568459  1  0.285477  0  -0.039048  -0.117166  0  3.864969  0
C  C107  1  0.41929605  0.56516131  0.17431575  1  0.285685  0  -0.039024  -0.117206  0  3.864816  0
C  C108  1  0.45678225  0.96652970  0.58188051  1  -0.061051  0  -0.012578  0.084151  0  3.978127  0
C  C109  1  0.54321205  0.46653086  0.91812049  1  -0.061313  0  -0.012545  0.084109  0  3.978041  0
C  C110  1  0.54321686  0.03347541  0.41812586  1  -0.06108  0  -0.012511  0.084234  0  3.97795  0
C  C111  1  0.45678585  0.53346855  0.08187586  1  -0.060972  0  -0.012565  0.084226  0  3.977874  0
C  C112  1  0.57791042  0.92743875  0.56553046  1  -0.081749  0  -0.087282  -0.124702  0  3.965864  0
C  C113  1  0.42208328  0.42744093  0.93447025  1  -0.081547  0  -0.087328  -0.124679  0  3.965794  0
C  C114  1  0.42208866  0.07256799  0.43447450  1  -0.081966  0  -0.087274  -0.124642  0  3.965726  0
C  C115  1  0.57791366  0.57256092  0.06552805  1  -0.081987  0  -0.087308  -0.124741  0  3.965576  0
C  C116  1  0.37900955  0.03915639  0.51546793  1  0.00893  0  -0.09073  -0.127715  0  3.991627  0
C  C117  1  0.62098926  0.53915404  0.98453234  1  0.008732  0  -0.090719  -0.127672  0  3.991395  0
C  C118  1  0.62099155  0.96084953  0.48453736  1  0.009324  0  -0.090743  -0.127739  0  3.991569  0
C  C119  1  0.37900464  0.46084700  0.01546475  1  0.008748  0  -0.090763  -0.127758  0  3.99156  0
N  N120  1  0.27376672  0.92803106  0.66559012  1  -1.252913  0  -0.225224  0.050669  0  3.779227  0
N  N121  1  0.72622292  0.42803376  0.83440850  1  -1.253039  0  -0.225174  0.051178  0  3.778703  0
N  N122  1  0.72622721  0.07196917  0.33440838  1  -1.252959  0  -0.22518  0.051163  0  3.778853  0
N  N123  1  0.27377710  0.57196402  0.16559311  1  -1.253093  0  -0.225244  0.050992  0  3.778702  0
N  N124  1  0.07389723  0.95874150  0.68629226  1  -1.276499  0  -0.353684  -0.179169  0  3.647839  0
N  N125  1  0.92609208  0.45874377  0.81370591  1  -1.276711  0  -0.353649  -0.179135  0  3.647764  0
N  N126  1  0.92609168  0.04125628  0.31370611  1  -1.276732  0  -0.353612  -0.179149  0  3.647761  0
N  N127  1  0.07391094  0.54124832  0.18629479  1  -1.277046  0  -0.353629  -0.179117  0  3.647852  0
O  O128  1  0.29980564  0.94518076  0.17132045  1  -1.150728  0  -0.326517  -0.544601  0  2.200038  0
O  O129  1  0.70021585  0.44516495  0.32868324  1  -1.150715  0  -0.326481  -0.544591  0  2.199886  0
O  O130  1  0.70019770  0.05484307  0.82869644  1  -1.150869  0  -0.326462  -0.544616  0  2.199542  0
O  O131  1  0.29978096  0.55485237  0.67130872  1  -1.150875  0  -0.326492  -0.544612  0  2.199969  0
O  O132  1  0.11369469  0.97875202  0.22210220  1  -1.192832  0  -0.322477  -0.571467  0  2.233426  0
O  O133  1  0.88632949  0.47873879  0.27790290  1  -1.192204  0  -0.322565  -0.571536  0  2.233542  0
O  O134  1  0.88628305  0.02122867  0.77789011  1  -1.192884  0  -0.322534  -0.57162  0  2.233237  0
O  O135  1  0.11368055  0.52125655  0.72209756  1  -1.192089  0  -0.322475  -0.571477  0  2.233523  0
O  O136  1  0.99988697  0.68700891  0.44246701  1  -1.143603  0  -0.327176  -0.549922  0  2.25229  0
O  O137  1  0.00011895  0.18700554  0.05752553  1  -1.143527  0  -0.3272  -0.549879  0  2.252365  0
O  O138  1  0.00012321  0.31297829  0.55754049  1  -1.143662  0  -0.327248  -0.54988  0  2.252101  0
O  O139  1  0.99988609  0.81299468  0.94247621  1  -1.143442  0  -0.327199  -0.549905  0  2.252384  0
O  O140  1  0.12101560  0.53232486  0.44617931  1  -1.207213  0  -0.337775  -0.608842  0  2.385976  0
O  O141  1  0.87900527  0.03231313  0.05382542  1  -1.207433  0  -0.337542  -0.608603  0  2.38605  0
O  O142  1  0.87899130  0.46766479  0.55381502  1  -1.207599  0  -0.337716  -0.608843  0  2.38571  0
O  O143  1  0.12100186  0.96768628  0.94618017  1  -1.207581  0  -0.337635  -0.608809  0  2.386036  0
O  O144  1  0.63055404  0.62438822  0.48683157  1  -1.176008  0  -0.328646  -0.569092  0  2.201555  0
O  O145  1  0.36946090  0.12439797  0.01317660  1  -1.176064  0  -0.328636  -0.569  0  2.201373  0
O  O146  1  0.36944876  0.37561527  0.51315857  1  -1.175315  0  -0.328617  -0.569106  0  2.201671  0
O  O147  1  0.63053014  0.87560958  0.98682774  1  -1.175655  0  -0.328557  -0.568943  0  2.201568  0
O  O148  1  0.65471734  0.70754520  0.35174424  1  -1.158258  0  -0.337045  -0.564586  0  2.154134  0
O  O149  1  0.34529252  0.20756246  0.14825500  1  -1.158258  0  -0.337039  -0.564494  0  2.15394  0
O  O150  1  0.34529375  0.29247130  0.64825850  1  -1.157988  0  -0.337087  -0.564662  0  2.153924  0
O  O151  1  0.65470852  0.79244916  0.85174748  1  -1.158145  0  -0.337051  -0.564482  0  2.153935  0
O  O152  1  0.15995623  0.17756925  0.85351700  1  -1.234421  0  -0.604658  -0.765244  0  1.881078  0
O  O153  1  0.84005724  0.67757681  0.64648601  1  -1.235062  0  -0.604543  -0.764964  0  1.881389  0
O  O154  1  0.84003776  0.82241714  0.14648432  1  -1.234686  0  -0.604632  -0.765251  0  1.881084  0
O  O155  1  0.15994674  0.32241446  0.35351275  1  -1.234737  0  -0.604632  -0.765131  0  1.881237  0
