# generated using pymatgen
data_Al4H32(C9O5)5
_symmetry_space_group_name_H-M   'P 1'
_cell_length_a   6.78231266
_cell_length_b   17.07502233
_cell_length_c   18.19288390
_cell_angle_alpha   74.21932654
_cell_angle_beta   89.79800644
_cell_angle_gamma   90.19579779
_symmetry_Int_Tables_number   1
_chemical_formula_structural   Al4H32(C9O5)5
_chemical_formula_sum   'Al4 H32 C45 O25'
_cell_volume   2027.44156537
_cell_formula_units_Z   1
loop_
 _symmetry_equiv_pos_site_id
 _symmetry_equiv_pos_as_xyz
  1  'x, y, z'
loop_
 _atom_site_type_symbol
 _atom_site_label
 _atom_site_symmetry_multiplicity
 _atom_site_fract_x
 _atom_site_fract_y
 _atom_site_fract_z
 _atom_site_occupancy
 _atom_site_pbe_bader_charge
 _atom_site_pbe_bader_spin_density
 _atom_site_pbe_cm5_charge
 _atom_site_pbe_ddec_charge
 _atom_site_pbe_ddec_spin_density
 _atom_site_pbe_ddec_sum_bond_order
 _atom_site_pbe_magmom
Al  Al0  1  0.11266877  0.50111595  0.50134309  1  2.503736  0  0.40942  1.634833  0  2.553238  0
Al  Al1  1  0.61213423  0.50377309  0.50057762  1  2.50359  0  0.406052  1.639266  0  2.558073  0
Al  Al2  1  0.62402351  0.00143137  0.00352463  1  2.501876  0  0.406689  1.636875  0  2.56583  0
Al  Al3  1  0.12489783  0.00210996  0.00590114  1  2.502839  0  0.407948  1.63793  0  2.567988  0
H  H4  1  0.60091488  0.72806768  0.35070241  1  0.082011  0  0.110357  0.108742  0  1.0125  0
H  H5  1  0.32962950  0.79452201  0.15810030  1  0.084095  0  0.10083  0.128463  0  0.997142  0
H  H6  1  0.18256045  0.73415012  0.11337502  1  0.04251  0  0.102815  0.122448  0  0.986198  0
H  H7  1  0.34464454  0.67956632  0.27774718  1  0.082755  0  0.111639  0.070581  0  0.976809  0
H  H8  1  0.07321989  0.33092197  0.71725528  1  0.177898  0  0.111809  0.10371  0  1.123144  0
H  H9  1  0.08163497  0.21343155  0.83407847  1  0.093099  0  0.105537  0.095874  0  1.045022  0
H  H10  1  0.80310374  0.22061665  0.81699912  1  0.056452  0  0.108137  0.062296  0  1.018933  0
H  H11  1  0.88610297  0.28902654  0.51712168  1  0.074334  0  0.108797  0.082998  0  0.954231  0
H  H12  1  0.65253810  0.31147855  0.54995998  1  0.077232  0  0.103645  0.066589  0  1.042647  0
H  H13  1  0.55211295  0.16474956  0.57880003  1  0.029303  0  0.085437  0.115193  0  1.01601  0
H  H14  1  0.63123267  0.20155450  0.48218416  1  0.071926  0  0.092745  0.126788  0  1.00121  0
H  H15  1  0.79124685  0.13933540  0.55109793  1  0.055297  0  0.091924  0.127517  0  1.000902  0
H  H16  1  0.87334942  0.34064119  0.80649803  1  0.009249  0  0.093115  0.046278  0  0.99527  0
H  H17  1  0.61981841  0.35567075  0.78104457  1  0.040156  0  0.097491  0.059239  0  0.99041  0
H  H18  1  0.69166534  0.49709622  0.70523275  1  0.046279  0  0.091721  0.13232  0  1.015528  0
H  H19  1  0.79235033  0.48175894  0.79833854  1  0.039471  0  0.093508  0.126635  0  0.992086  0
H  H20  1  0.95008738  0.48089768  0.72029962  1  0.03726  0  0.093564  0.132665  0  0.995192  0
H  H21  1  0.43313136  0.84244192  0.28988195  1  0.031322  0  0.09796  0.027995  0  0.961829  0
H  H22  1  0.09881330  0.60523766  0.12691311  1  0.022715  0  0.089134  0.038558  0  0.985108  0
H  H23  1  0.94378459  0.58122992  0.20963486  1  0.032717  0  0.093718  0.05061  0  0.982762  0
H  H24  1  0.09483697  0.44398728  0.25457504  1  0.014182  0  0.090389  0.127557  0  1.010432  0
H  H25  1  0.00682791  0.45915321  0.15959491  1  0.034471  0  0.092148  0.123636  0  0.997226  0
H  H26  1  0.26369434  0.46762081  0.17643474  1  0.016809  0  0.089456  0.122092  0  0.999301  0
H  H27  1  0.68693235  0.09826951  0.69280819  1  0.052874  0  0.094921  0.050594  0  1.027159  0
H  H28  1  0.70640525  0.02224104  0.78148016  1  0.029978  0  0.089709  0.050307  0  0.993083  0
H  H29  1  0.06644644  0.00402300  0.75137794  1  0.027923  0  0.088209  0.125216  0  1.003285  0
H  H30  1  0.90821310  0.98411724  0.68057013  1  0.025912  0  0.087601  0.118924  0  1.005145  0
H  H31  1  0.03835961  0.07899943  0.66235762  1  0.022936  0  0.089809  0.125581  0  1.003762  0
H  H32  1  0.35828369  0.60040067  0.51204679  1  0.625233  0  0.348741  0.428822  0  0.858857  0
H  H33  1  0.85973751  0.41308441  0.56800577  1  0.636227  0  0.337901  0.409684  0  0.914039  0
H  H34  1  0.37092834  0.90509300  0.99070418  1  0.625346  0  0.349285  0.428043  0  0.859219  0
H  H35  1  0.87661775  0.09714354  0.94576058  1  0.62364  0  0.346311  0.421965  0  0.873923  0
C  C36  1  0.37078593  0.41485166  0.41840081  1  1.703353  0  0.28075  0.698963  0  4.173252  0
C  C37  1  0.35561953  0.38978037  0.61536163  1  1.580913  0  0.272602  0.645874  0  4.066606  0
C  C38  1  0.85902646  0.59860122  0.57889316  1  1.670305  0  0.270537  0.687678  0  4.19957  0
C  C39  1  0.87110287  0.60874254  0.38519433  1  1.574464  0  0.274437  0.650594  0  4.095005  0
C  C40  1  0.02619983  0.70136476  0.26536856  1  0.00975  0  -0.000146  -0.013128  0  3.866905  0
C  C41  1  0.87444968  0.68242889  0.31895847  1  -0.034832  0  -0.003983  -0.059509  0  3.979165  0
C  C42  1  0.72128920  0.73980638  0.30903921  1  -0.008955  0  -0.066962  -0.123607  0  3.941979  0
C  C43  1  0.72129689  0.81249015  0.25014354  1  -0.028105  0  -0.009313  -0.000282  0  3.974932  0
C  C44  1  0.87321671  0.82915142  0.19376005  1  0.032655  0  0.010102  -0.080778  0  3.882365  0
C  C45  1  0.02239261  0.77154703  0.20380199  1  -0.056547  0  0.002471  0.076115  0  3.912761  0
C  C46  1  0.20812208  0.75024476  0.16707171  1  -0.040015  0  -0.157431  -0.28867  0  3.844825  0
C  C47  1  0.22339465  0.67328366  0.23979456  1  0.530256  0  0.015624  0.136137  0  3.873679  0
C  C48  1  0.87766771  0.86193309  0.86842200  1  0.152676  0  0.002084  -0.13623  0  3.835813  0
C  C49  1  0.87619553  0.82162621  0.82197848  1  -0.297509  0  -0.008206  0.025447  0  4.257097  0
C  C50  1  0.87401192  0.77843562  0.77054229  1  0.061039  0  0.000854  -0.003505  0  4.194777  0
C  C51  1  0.87095216  0.73863746  0.72321386  1  -0.07892  0  -2.6e-05  -0.003877  0  4.193968  0
C  C52  1  0.86706063  0.69412324  0.67289112  1  -0.232505  0  -0.008254  0.027488  0  4.250171  0
C  C53  1  0.86318156  0.65222356  0.62781050  1  0.168723  0  0.000299  -0.13634  0  3.841619  0
C  C54  1  0.37237241  0.36093656  0.36987539  1  0.126464  0  0.003327  -0.1406  0  3.828559  0
C  C55  1  0.37693773  0.31559959  0.32789676  1  -0.280927  0  -0.002963  0.032799  0  4.256016  0
C  C56  1  0.37980240  0.26735922  0.28077843  1  0.057765  0  -0.002159  -0.01515  0  4.190525  0
C  C57  1  0.38129787  0.22375875  0.23666256  1  -0.05853  0  0.006845  0.010728  0  4.18094  0
C  C58  1  0.38162901  0.17701578  0.18818637  1  -0.268407  0  -0.004762  0.022424  0  4.237618  0
C  C59  1  0.38107961  0.13448517  0.14366211  1  0.24251  0  0.015021  -0.107319  0  3.803249  0
C  C60  1  0.52684655  0.26331002  0.69890286  1  -0.03118  0  -0.019422  -0.092067  0  3.942283  0
C  C61  1  0.36245475  0.31409985  0.68024951  1  0.013764  0  -0.004275  -0.037442  0  3.929794  0
C  C62  1  0.20313702  0.29319482  0.73079947  1  -0.025115  0  -0.082496  -0.095922  0  3.947183  0
C  C63  1  0.20674466  0.22650305  0.79527247  1  -0.068733  0  -0.072714  -0.068275  0  3.953732  0
C  C64  1  0.37245867  0.17683511  0.81469582  1  0.032673  0  -0.004073  -0.055164  0  3.948323  0
C  C65  1  0.53360329  0.19902898  0.76546307  1  -0.057177  0  -0.010524  -0.004311  0  3.952671  0
C  C66  1  0.75620715  0.19677730  0.76947858  1  0.519404  0  0.005167  0.008594  0  3.920647  0
C  C67  1  0.74901010  0.26919066  0.69010804  1  0.997425  0  0.161936  0.318282  0  3.903594  0
C  C68  1  0.37647161  0.11007323  0.88685973  1  1.555895  0  0.273503  0.655144  0  4.075439  0
C  C69  1  0.37707869  0.08582181  0.09024198  1  1.687227  0  0.283116  0.701334  0  4.173739  0
C  C70  1  0.87045724  0.89747884  0.12230409  1  1.608568  0  0.278976  0.66122  0  4.088914  0
C  C71  1  0.87604941  0.91144956  0.92114841  1  1.698027  0  0.272986  0.696355  0  4.183626  0
C  C72  1  0.76482274  0.26416554  0.55690047  1  0.369819  0  -0.071521  0.084066  0  3.875174  0
C  C73  1  0.68018260  0.18765725  0.54194123  1  -0.123815  0  -0.24717  -0.400028  0  3.975056  0
C  C74  1  0.77161244  0.37282121  0.76106221  1  0.416576  0  -0.071699  0.092591  0  3.908396  0
C  C75  1  0.80289447  0.46364780  0.74493876  1  -0.050659  0  -0.247805  -0.398867  0  3.957948  0
C  C76  1  0.56583134  0.87161195  0.25647539  1  0.96677  0  0.101732  0.271427  0  3.987453  0
C  C77  1  0.08947276  0.56962725  0.18746062  1  0.405577  0  -0.07261  0.091638  0  3.948634  0
C  C78  1  0.11537640  0.47976069  0.19505907  1  0.009438  0  -0.245676  -0.397381  0  3.983553  0
C  C79  1  0.78966554  0.06863108  0.73830328  1  0.420321  0  -0.075274  0.084709  0  3.91954  0
C  C80  1  0.96102296  0.03168735  0.70614416  1  -0.033413  0  -0.249639  -0.401869  0  3.98947  0
O  O81  1  0.51990482  0.41574334  0.58344134  1  -1.269311  0  -0.232474  -0.602651  0  2.433222  0
O  O82  1  0.20408250  0.42774134  0.44538607  1  -1.225449  0  -0.2186  -0.567541  0  2.281367  0
O  O83  1  0.03518189  0.57438580  0.40657352  1  -1.249268  0  -0.224333  -0.567192  0  2.318077  0
O  O84  1  0.18863883  0.42314439  0.59621125  1  -1.257549  0  -0.233583  -0.58587  0  2.342838  0
O  O85  1  0.02611724  0.58150578  0.55504372  1  -1.223819  0  -0.228896  -0.583086  0  2.28179  0
O  O86  1  0.53774236  0.44312578  0.43067435  1  -1.222675  0  -0.218109  -0.560099  0  2.280004  0
O  O87  1  0.36120265  0.55217234  0.49359926  1  -1.430125  0  -0.449393  -0.987089  0  2.157467  0
O  O88  1  0.68858852  0.57368887  0.56572671  1  -1.223836  0  -0.228602  -0.581856  0  2.29017  0
O  O89  1  0.70372061  0.58782075  0.41633142  1  -1.256112  0  -0.228874  -0.583012  0  2.354428  0
O  O90  1  0.86143537  0.45396677  0.51845183  1  -1.443418  0  -0.450019  -0.986386  0  2.160602  0
O  O91  1  0.20709517  0.06629593  0.07148870  1  -1.220655  0  -0.21789  -0.562181  0  2.281772  0
O  O92  1  0.54553658  0.08279399  0.91185845  1  -1.250032  0  -0.232143  -0.593008  0  2.337265  0
O  O93  1  0.70583814  0.93071869  0.94027700  1  -1.212216  0  -0.22729  -0.582295  0  2.288896  0
O  O94  1  0.54294474  0.06870255  0.06592721  1  -1.22114  0  -0.216114  -0.56162  0  2.29541  0
O  O95  1  0.70479262  0.91981988  0.09172179  1  -1.250953  0  -0.226349  -0.582637  0  2.368789  0
O  O96  1  0.21017940  0.08634877  0.91809069  1  -1.259952  0  -0.232894  -0.599196  0  2.360401  0
O  O97  1  0.37329088  0.95213390  0.01093755  1  -1.428135  0  -0.448427  -0.985291  0  2.158414  0
O  O98  1  0.03901541  0.92318026  0.09508364  1  -1.252651  0  -0.223454  -0.573663  0  2.338638  0
O  O99  1  0.04415726  0.93027625  0.94256691  1  -1.220823  0  -0.228045  -0.581305  0  2.274834  0
O  O100  1  0.87488733  0.05053383  0.99053675  1  -1.427229  0  -0.446546  -0.975607  0  2.141389  0
O  O101  1  0.85094730  0.24805547  0.63267307  1  -1.061332  0  -0.204089  -0.261759  0  2.485649  0
O  O102  1  0.81219785  0.34939285  0.69211181  1  -1.012899  0  -0.207668  -0.2776  0  2.493546  0
O  O103  1  0.57895352  0.94547602  0.23258705  1  -1.044986  0  -0.245044  -0.327213  0  2.146301  0
O  O104  1  0.24304002  0.59469007  0.23047426  1  -1.045096  0  -0.225639  -0.242322  0  2.450307  0
O  O105  1  0.86791170  0.12709349  0.77471898  1  -1.060999  0  -0.217268  -0.215634  0  2.532952  0
