# generated using pymatgen
data_AgH12C14(NO2)3
_symmetry_space_group_name_H-M   'P 1'
_cell_length_a   8.11376898
_cell_length_b   11.49341018
_cell_length_c   15.64307326
_cell_angle_alpha   95.20826567
_cell_angle_beta   102.11240748
_cell_angle_gamma   91.35409753
_symmetry_Int_Tables_number   1
_chemical_formula_structural   AgH12C14(NO2)3
_chemical_formula_sum   'Ag4 H48 C56 N12 O24'
_cell_volume   1419.06299365
_cell_formula_units_Z   4
loop_
 _symmetry_equiv_pos_site_id
 _symmetry_equiv_pos_as_xyz
  1  'x, y, z'
loop_
 _atom_site_type_symbol
 _atom_site_label
 _atom_site_symmetry_multiplicity
 _atom_site_fract_x
 _atom_site_fract_y
 _atom_site_fract_z
 _atom_site_occupancy
 _atom_site_hle17_bader_spin_density
 _atom_site_hle17_ddec_charge
 _atom_site_hle17_ddec_spin_density
 _atom_site_hle17_ddec_sum_bond_order
 _atom_site_hle17_magmom
 _atom_site_hse06_10hf_bader_spin_density
 _atom_site_hse06_10hf_ddec_charge
 _atom_site_hse06_10hf_ddec_spin_density
 _atom_site_hse06_10hf_ddec_sum_bond_order
 _atom_site_hse06_10hf_magmom
 _atom_site_hse06_bader_spin_density
 _atom_site_hse06_ddec_charge
 _atom_site_hse06_ddec_spin_density
 _atom_site_hse06_ddec_sum_bond_order
 _atom_site_hse06_magmom
 _atom_site_pbe_bader_spin_density
 _atom_site_pbe_cm5_charge
 _atom_site_pbe_ddec_charge
 _atom_site_pbe_ddec_spin_density
 _atom_site_pbe_ddec_sum_bond_order
 _atom_site_pbe_magmom
Ag  Ag0  1  0.86127231  0.22668475  0.02185889  1  0  0.597574  0  1.31664  0  0  0.46037  0  1.746268  0  0  0.492526  0  1.698382  0  0  0.462156  0.437981  0  1.779605  0
Ag  Ag1  1  0.13872728  0.77331532  0.97814072  1  0  0.597568  0  1.316644  0  0  0.460368  0  1.746285  0  0  0.492523  0  1.698402  0  0  0.462159  0.43798  0  1.779624  0
Ag  Ag2  1  0.50282194  0.04906299  0.10273589  1  0  0.593515  0  1.320018  0  0  0.46556  0  1.745688  0  0  0.497723  0  1.696503  0  0  0.44737  0.443126  0  1.779877  0
Ag  Ag3  1  0.49718021  0.95093795  0.89726471  1  0  0.593517  0  1.320039  0  0  0.465557  0  1.745707  0  0  0.497718  0  1.696521  0  0  0.447371  0.443128  0  1.779896  0
H  H4  1  0.12582946  0.23343523  0.14784940  1  0  0.278406  0  0.930117  0  0  0.257522  0  1.01165  0  0  0.266022  0  1.002587  0  0  0.301301  0.251336  0  1.018328  0
H  H5  1  0.87417014  0.76656484  0.85214893  1  0  0.278442  0  0.930066  0  0  0.257553  0  1.011602  0  0  0.266052  0  1.00254  0  0  0.301325  0.251371  0  1.01827  0
H  H6  1  0.79636948  0.08195182  0.21089365  1  0  0.284247  0  0.942092  0  0  0.265109  0  1.01772  0  0  0.273027  0  1.009905  0  0  0.301326  0.259428  0  1.023377  0
H  H7  1  0.20363141  0.91804913  0.78910744  1  0  0.284232  0  0.942116  0  0  0.265095  0  1.017743  0  0  0.273013  0  1.009926  0  0  0.301309  0.259418  0  1.023391  0
H  H8  1  0.76579185  0.47018831  0.01475349  1  0  0.084428  0  0.944285  0  0  0.098177  0  1.001116  0  0  0.099941  0  0.999663  0  0  0.116543  0.096815  0  1.002229  0
H  H9  1  0.23421031  0.52981264  0.98524710  1  0  0.08444  0  0.944296  0  0  0.098187  0  1.001122  0  0  0.099954  0  0.999668  0  0  0.116559  0.096825  0  1.002231  0
H  H10  1  0.85785577  0.67515474  0.07887158  1  0  0.110545  0  0.961878  0  0  0.115528  0  1.030931  0  0  0.118973  0  1.029285  0  0  0.102219  0.113018  0  1.032292  0
H  H11  1  0.14214382  0.32484533  0.92112867  1  0  0.110527  0  0.961899  0  0  0.115509  0  1.030947  0  0  0.118954  0  1.0293  0  0  0.102214  0.112999  0  1.032308  0
H  H12  1  0.12475579  0.70385104  0.19766542  1  0  0.095688  0  0.955283  0  0  0.105637  0  1.018471  0  0  0.107753  0  1.01675  0  0  0.107021  0.104002  0  1.019832  0
H  H13  1  0.87524385  0.29614991  0.80233490  1  0  0.095691  0  0.955309  0  0  0.105617  0  1.01851  0  0  0.107752  0  1.016766  0  0  0.107021  0.103957  0  1.019892  0
H  H14  1  0.27063912  0.53024087  0.25313892  1  0  0.14146  0  0.959376  0  0  0.148857  0  1.017898  0  0  0.153131  0  1.015365  0  0  0.115843  0.145794  0  1.019902  0
H  H15  1  0.72936051  0.46976008  0.74686203  1  0  0.141435  0  0.959422  0  0  0.148841  0  1.017938  0  0  0.153114  0  1.015404  0  0  0.115846  0.14578  0  1.01994  0
H  H16  1  0.51911816  0.22852534  0.39462959  1  0  0.110197  0  0.950123  0  0  0.116495  0  1.015221  0  0  0.120795  0  1.012269  0  0  0.109881  0.113378  0  1.017478  0
H  H17  1  0.48088017  0.77147473  0.60536989  1  0  0.110198  0  0.950124  0  0  0.116492  0  1.015225  0  0  0.120792  0  1.012274  0  0  0.109875  0.113376  0  1.017481  0
H  H18  1  0.60809709  0.02723413  0.42704782  1  0  0.097562  0  0.984268  0  0  0.106775  0  1.048039  0  0  0.109804  0  1.046258  0  0  0.105703  0.104545  0  1.049489  0
H  H19  1  0.39190250  0.97276594  0.57295179  1  0  0.097556  0  0.984266  0  0  0.106772  0  1.048037  0  0  0.1098  0  1.046257  0  0  0.105701  0.104542  0  1.049485  0
H  H20  1  0.24181924  0.88105259  0.20167461  1  0  0.111276  0  0.957604  0  0  0.117955  0  1.02366  0  0  0.121648  0  1.020834  0  0  0.106979  0.115281  0  1.025809  0
H  H21  1  0.75818288  0.11894749  0.79832401  1  0  0.111234  0  0.957645  0  0  0.117922  0  1.02369  0  0  0.121612  0  1.02087  0  0  0.106982  0.11525  0  1.025832  0
H  H22  1  0.14789036  0.07387983  0.16994560  1  0  0.096925  0  0.984401  0  0  0.101755  0  1.05771  0  0  0.105649  0  1.054232  0  0  0.09906  0.098958  0  1.060273  0
H  H23  1  0.85210924  0.92612025  0.83005273  1  0  0.096905  0  0.984439  0  0  0.101768  0  1.057707  0  0  0.105662  0  1.054228  0  0  0.099066  0.09897  0  1.060271  0
H  H24  1  0.72221108  0.72311547  0.50531983  1  0  0.10889  0  0.939589  0  0  0.12389  0  1.00557  0  0  0.125008  0  1.004625  0  0  0.106863  0.12296  0  1.006404  0
H  H25  1  0.27778850  0.27688460  0.49467978  1  0  0.108883  0  0.939585  0  0  0.123882  0  1.005573  0  0  0.124999  0  1.004628  0  0  0.106859  0.12295  0  1.006408  0
H  H26  1  0.70499146  0.66418452  0.39341703  1  0  0.089886  0  0.966978  0  0  0.103706  0  1.038819  0  0  0.104048  0  1.038634  0  0  0.100416  0.103366  0  1.039056  0
H  H27  1  0.29500928  0.33581380  0.60658323  1  0  0.089876  0  0.966975  0  0  0.103697  0  1.038815  0  0  0.104039  0  1.038631  0  0  0.100404  0.103356  0  1.039053  0
H  H28  1  0.52616745  0.65309848  0.44327503  1  0  0.093865  0  0.959927  0  0  0.109444  0  1.027511  0  0  0.11012  0  1.027061  0  0  0.103035  0.10889  0  1.027893  0
H  H29  1  0.47383213  0.34690159  0.55672522  1  0  0.09388  0  0.959906  0  0  0.109459  0  1.027489  0  0  0.110136  0  1.027039  0  0  0.103039  0.108903  0  1.027871  0
H  H30  1  0.41598934  0.29644068  0.06851585  1  0  0.081936  0  0.944393  0  0  0.094622  0  1.003229  0  0  0.096107  0  1.002003  0  0  0.113087  0.093508  0  1.00414  0
H  H31  1  0.58401156  0.70356027  0.93148460  1  0  0.081951  0  0.944385  0  0  0.094646  0  1.003208  0  0  0.096133  0  1.001975  0  0  0.113086  0.093511  0  1.004147  0
H  H32  1  0.48162736  0.50517365  0.13273061  1  0  0.116053  0  0.970795  0  0  0.125237  0  1.031396  0  0  0.128592  0  1.03043  0  0  0.106072  0.12285  0  1.032136  0
H  H33  1  0.51837475  0.49482643  0.86726992  1  0  0.116045  0  0.970777  0  0  0.125227  0  1.031388  0  0  0.128584  0  1.03042  0  0  0.106075  0.122839  0  1.03213  0
H  H34  1  0.71875790  0.54554693  0.26496418  1  0  0.096953  0  0.946215  0  0  0.108336  0  1.005873  0  0  0.11099  0  1.003078  0  0  0.11101  0.106348  0  1.007976  0
H  H35  1  0.28124178  0.45445489  0.73503684  1  0  0.096953  0  0.946256  0  0  0.108336  0  1.005909  0  0  0.110989  0  1.003115  0  0  0.111004  0.106342  0  1.008015  0
H  H36  1  0.88556365  0.38059862  0.32411224  1  0  0.142961  0  0.961954  0  0  0.149734  0  1.021531  0  0  0.154177  0  1.018792  0  0  0.115378  0.146513  0  1.023721  0
H  H37  1  0.11443599  0.61940233  0.67588808  1  0  0.142973  0  0.961979  0  0  0.149735  0  1.021554  0  0  0.154177  0  1.018816  0  0  0.115374  0.146518  0  1.023733  0
H  H38  1  0.17543848  0.07535743  0.45940998  1  0  0.105677  0  0.956197  0  0  0.112111  0  1.022786  0  0  0.115987  0  1.020377  0  0  0.106984  0.109235  0  1.02469  0
H  H39  1  0.82456104  0.92464177  0.54059084  1  0  0.105669  0  0.956226  0  0  0.112117  0  1.022788  0  0  0.115993  0  1.02038  0  0  0.10699  0.109244  0  1.024691  0
H  H40  1  0.24740622  0.87107484  0.49292147  1  0  0.094474  0  0.983805  0  0  0.102613  0  1.049519  0  0  0.10582  0  1.047287  0  0  0.104808  0.100315  0  1.051228  0
H  H41  1  0.75259199  0.12892348  0.50707914  1  0  0.094475  0  0.98381  0  0  0.102625  0  1.049508  0  0  0.105832  0  1.047277  0  0  0.104827  0.100328  0  1.051216  0
H  H42  1  0.84735079  0.73392003  0.28004280  1  0  0.103464  0  0.95296  0  0  0.110846  0  1.018776  0  0  0.114543  0  1.016258  0  0  0.107895  0.108165  0  1.020721  0
H  H43  1  0.15264886  0.26608091  0.71995624  1  0  0.103456  0  0.95296  0  0  0.110841  0  1.01878  0  0  0.114539  0  1.01626  0  0  0.107896  0.108164  0  1.020721  0
H  H44  1  0.77526446  0.93072735  0.24529850  1  0  0.088335  0  0.999521  0  0  0.094396  0  1.073946  0  0  0.09813  0  1.070463  0  0  0.098841  0.091629  0  1.076642  0
H  H45  1  0.22473513  0.06927272  0.75470048  1  0  0.088352  0  0.999542  0  0  0.09442  0  1.073953  0  0  0.098156  0  1.070469  0  0  0.098846  0.09165  0  1.076651  0
H  H46  1  0.38416071  0.56280641  0.55227521  1  0  0.098751  0  0.944599  0  0  0.11579  0  1.010724  0  0  0.11648  0  1.01035  0  0  0.104118  0.115179  0  1.011124  0
H  H47  1  0.61584019  0.43719454  0.44772461  1  0  0.098726  0  0.944652  0  0  0.115786  0  1.010751  0  0  0.116475  0  1.010376  0  0  0.10411  0.115173  0  1.011154  0
H  H48  1  0.16330381  0.52056309  0.53243935  1  0  0.106305  0  0.955156  0  0  0.121553  0  1.020524  0  0  0.122557  0  1.01977  0  0  0.104817  0.120771  0  1.021145  0
H  H49  1  0.83669693  0.47943523  0.46756027  1  0  0.106268  0  0.955163  0  0  0.121509  0  1.020554  0  0  0.122515  0  1.019796  0  0  0.104801  0.120725  0  1.02118  0
H  H50  1  0.27902299  0.48677672  0.44779990  1  0  0.104531  0  0.956939  0  0  0.119773  0  1.02378  0  0  0.120804  0  1.02268  0  0  0.103175  0.118987  0  1.024604  0
H  H51  1  0.72098044  0.51322424  0.55219956  1  0  0.104512  0  0.956886  0  0  0.119765  0  1.023722  0  0  0.120798  0  1.022619  0  0  0.103165  0.11898  0  1.024544  0
C  C52  1  0.87614474  0.48819224  0.06801326  1  0  0.133109  0  3.737924  0  0  0.100665  0  3.986124  0  0  0.108869  0  4.006857  0  0  0.037664  0.095362  0  3.971905  0
C  C53  1  0.12385358  0.51180783  0.93198621  1  0  0.133055  0  3.737962  0  0  0.100621  0  3.986155  0  0  0.10882  0  4.006892  0  0  0.037632  0.095315  0  3.971937  0
C  C54  1  0.92903602  0.60148039  0.10309511  1  0  -0.142881  0  3.751046  0  0  -0.158554  0  4.012855  0  0  -0.167168  0  4.03401  0  0  -0.094826  -0.153104  0  3.998817  0
C  C55  1  0.07096230  0.39851968  0.89690500  1  0  -0.142822  0  3.751115  0  0  -0.158486  0  4.012904  0  0  -0.1671  0  4.034067  0  0  -0.094814  -0.153037  0  3.998854  0
C  C56  1  0.07437832  0.61694185  0.16959907  1  0  0.02124  0  3.72049  0  0  -2.5e-05  0  3.976364  0  0  0.00541  0  3.994307  0  0  -0.064267  -0.003355  0  3.964274  0
C  C57  1  0.92562125  0.38305821  0.83040181  1  0  0.021243  0  3.720566  0  0  -1.6e-05  0  3.976461  0  0  0.005404  0  3.994397  0  0  -0.064263  -0.00332  0  3.964371  0
C  C58  1  0.15802755  0.52033234  0.20117748  1  0  -0.185102  0  3.650173  0  0  -0.203757  0  3.897354  0  0  -0.213514  0  3.9174  0  0  -0.081816  -0.197576  0  3.884123  0
C  C59  1  0.84197081  0.47966860  0.79882333  1  0  -0.185051  0  3.650217  0  0  -0.203724  0  3.897386  0  0  -0.213479  0  3.917437  0  0  -0.081806  -0.197543  0  3.884149  0
C  C60  1  0.09352544  0.40854811  0.16416996  1  0  0.411773  0  3.75936  0  0  0.389243  0  4.008657  0  0  0.40529  0  4.027149  0  0  0.224989  0.378459  0  3.995893  0
C  C61  1  0.90647298  0.59145371  0.83583092  1  0  0.411713  0  3.759503  0  0  0.389224  0  4.00874  0  0  0.405271  0  4.027232  0  0  0.224996  0.378437  0  3.995984  0
C  C62  1  0.27877250  0.29051947  0.26839796  1  0  0.552107  0  3.798118  0  0  0.50785  0  4.080764  0  0  0.536294  0  4.081083  0  0  0.246183  0.488647  0  4.080025  0
C  C63  1  0.72122450  0.70947972  0.73160258  1  0  0.552188  0  3.797983  0  0  0.507912  0  4.080649  0  0  0.53637  0  4.080944  0  0  0.246207  0.488694  0  4.079932  0
C  C64  1  0.32813881  0.16722398  0.28076128  1  0  -0.049381  0  3.743884  0  0  -0.03242  0  3.978239  0  0  -0.037069  0  4.000889  0  0  -0.012826  -0.029407  0  3.96298  0
C  C65  1  0.67186202  0.83277609  0.71923975  1  0  -0.049358  0  3.743767  0  0  -0.032388  0  3.978125  0  0  -0.03704  0  4.000771  0  0  -0.012786  -0.029368  0  3.962866  0
C  C66  1  0.45874587  0.15168733  0.35295048  1  0  -0.057677  0  3.689181  0  0  -0.081148  0  3.943439  0  0  -0.081873  0  3.961453  0  0  -0.079105  -0.08062  0  3.931349  0
C  C67  1  0.54125377  0.84831362  0.64704920  1  0  -0.057735  0  3.689172  0  0  -0.081191  0  3.94341  0  0  -0.081917  0  3.961427  0  0  -0.079129  -0.080665  0  3.931323  0
C  C68  1  0.50906853  0.04027597  0.37076882  1  0  -0.063855  0  3.717909  0  0  -0.093541  0  3.975471  0  0  -0.09344  0  3.994368  0  0  -0.082047  -0.093538  0  3.962744  0
C  C69  1  0.49093227  0.95972323  0.62923087  1  0  -0.063879  0  3.717877  0  0  -0.093534  0  3.975464  0  0  -0.093433  0  3.994363  0  0  -0.08205  -0.093528  0  3.962733  0
C  C70  1  0.43141841  0.94166999  0.31682683  1  0  -0.063431  0  3.78454  0  0  -0.04342  0  4.021507  0  0  -0.050574  0  4.044551  0  0  -0.014354  -0.038692  0  4.005972  0
C  C71  1  0.56858244  0.05833008  0.68317356  1  0  -0.063329  0  3.784388  0  0  -0.043421  0  4.021502  0  0  -0.050574  0  4.044545  0  0  -0.014354  -0.038689  0  4.005964  0
C  C72  1  0.30387973  0.95671950  0.24380300  1  0  -0.063835  0  3.730563  0  0  -0.089686  0  3.983185  0  0  -0.090078  0  4.003195  0  0  -0.082552  -0.089352  0  3.969703  0
C  C73  1  0.69612234  0.04327970  0.75619619  1  0  -0.063787  0  3.730504  0  0  -0.089605  0  3.983157  0  0  -0.089996  0  4.003166  0  0  -0.082552  -0.089271  0  3.969672  0
C  C74  1  0.25198923  0.06841473  0.22600995  1  0  -0.104444  0  3.752611  0  0  -0.122835  0  4.006679  0  0  -0.125142  0  4.026133  0  0  -0.094013  -0.121169  0  3.993519  0
C  C75  1  0.74801289  0.93158535  0.77398994  1  0  -0.104447  0  3.752674  0  0  -0.122876  0  4.006758  0  0  -0.125179  0  4.026202  0  0  -0.094022  -0.121209  0  3.993596  0
C  C76  1  0.47803397  0.82105425  0.33693522  1  0  0.572651  0  3.814332  0  0  0.52269  0  4.109604  0  0  0.554921  0  4.102825  0  0  0.231759  0.500813  0  4.113812  0
C  C77  1  0.52196561  0.17894582  0.66306439  1  0  0.572613  0  3.814337  0  0  0.522638  0  4.10966  0  0  0.55487  0  4.102882  0  0  0.231722  0.500755  0  4.113877  0
C  C78  1  0.63771899  0.70696689  0.44064511  1  0  -0.077317  0  3.582145  0  0  -0.178199  0  3.849751  0  0  -0.170283  0  3.852159  0  0  -0.14421  -0.183305  0  3.848081  0
C  C79  1  0.36228054  0.29303231  0.55935508  1  0  -0.077283  0  3.582133  0  0  -0.178182  0  3.849734  0  0  -0.170263  0  3.852143  0  0  -0.144193  -0.183287  0  3.848064  0
C  C80  1  0.51838488  0.31939866  0.12523943  1  0  0.128381  0  3.731178  0  0  0.094358  0  3.98824  0  0  0.102492  0  4.007852  0  0  0.031904  0.08904  0  3.974899  0
C  C81  1  0.48161480  0.68060316  0.87476095  1  0  0.128299  0  3.731216  0  0  0.094276  0  3.988268  0  0  0.102411  0  4.007882  0  0  0.031864  0.088971  0  3.974936  0
C  C82  1  0.55360597  0.43433583  0.16134803  1  0  -0.132455  0  3.727936  0  0  -0.148089  0  3.982244  0  0  -0.156747  0  4.004029  0  0  -0.091768  -0.142509  0  3.967548  0
C  C83  1  0.44639366  0.56566511  0.83865292  1  0  -0.132381  0  3.727873  0  0  -0.148021  0  3.982189  0  0  -0.15668  0  4.003975  0  0  -0.091731  -0.142439  0  3.967486  0
C  C84  1  0.68559862  0.45672534  0.23471726  1  0  0.04059  0  3.69412  0  0  0.022125  0  3.941145  0  0  0.02822  0  3.958408  0  0  -0.057296  0.018452  0  3.929241  0
C  C85  1  0.31440096  0.54327473  0.76528299  1  0  0.040593  0  3.694113  0  0  0.022123  0  3.941117  0  0  0.028218  0  3.958379  0  0  -0.057293  0.018452  0  3.929199  0
C  C86  1  0.77933455  0.36552601  0.26866264  1  0  -0.194284  0  3.649058  0  0  -0.212622  0  3.896994  0  0  -0.222596  0  3.916858  0  0  -0.086061  -0.206206  0  3.883817  0
C  C87  1  0.22066634  0.63447493  0.73133846  1  0  -0.194354  0  3.649109  0  0  -0.212682  0  3.897061  0  0  -0.222654  0  3.916922  0  0  -0.086075  -0.20626  0  3.883878  0
C  C88  1  0.73563977  0.25175862  0.22833189  1  0  0.408164  0  3.775246  0  0  0.383509  0  4.031198  0  0  0.399673  0  4.048931  0  0  0.219473  0.372654  0  4.018996  0
C  C89  1  0.26436106  0.74824145  0.77166914  1  0  0.408234  0  3.775208  0  0  0.383574  0  4.031147  0  0  0.399741  0  4.048877  0  0  0.219488  0.372716  0  4.018949  0
C  C90  1  0.92968452  0.14165294  0.33501936  1  0  0.548343  0  3.807792  0  0  0.504414  0  4.091545  0  0  0.532537  0  4.092017  0  0  0.243018  0.48551  0  4.090571  0
C  C91  1  0.07031384  0.85834800  0.66498146  1  0  0.548316  0  3.807831  0  0  0.504391  0  4.091575  0  0  0.53251  0  4.092052  0  0  0.243029  0.485489  0  4.090596  0
C  C92  1  0.97260949  0.01821902  0.34985129  1  0  -0.055836  0  3.755881  0  0  -0.032375  0  3.981899  0  0  -0.038776  0  4.006817  0  0  -0.012427  -0.028178  0  3.964992  0
C  C93  1  0.02739004  0.98178018  0.65014825  1  0  -0.0558  0  3.755828  0  0  -0.032349  0  3.981847  0  0  -0.038747  0  4.006767  0  0  -0.012426  -0.028155  0  3.964943  0
C  C94  1  0.10550059  0.00004395  0.41995532  1  0  -0.063485  0  3.719222  0  0  -0.084167  0  3.966481  0  0  -0.085751  0  3.987924  0  0  -0.077158  -0.0829  0  3.951962  0
C  C95  1  0.89449894  0.99995524  0.58004486  1  0  -0.063529  0  3.719282  0  0  -0.08421  0  3.966546  0  0  -0.085796  0  3.987989  0  0  -0.077192  -0.082944  0  3.952032  0
C  C96  1  0.14570461  0.88707699  0.43870789  1  0  -0.064691  0  3.726547  0  0  -0.093965  0  3.985618  0  0  -0.09446  0  4.005083  0  0  -0.080449  -0.0936  0  3.972432  0
C  C97  1  0.85429219  0.11291870  0.56129175  1  0  -0.064685  0  3.726496  0  0  -0.093975  0  3.985571  0  0  -0.094469  0  4.005032  0  0  -0.080452  -0.093612  0  3.972385  0
C  C98  1  0.05298700  0.79048298  0.38921053  1  0  -0.052609  0  3.762847  0  0  -0.035824  0  4.00186  0  0  -0.041846  0  4.023087  0  0  -0.008889  -0.031787  0  3.987467  0
C  C99  1  0.94701386  0.20951709  0.61078858  1  0  -0.052625  0  3.762741  0  0  -0.035844  0  4.001758  0  0  -0.041866  0  4.022983  0  0  -0.008883  -0.031799  0  3.987363  0
C  C100  1  0.92070165  0.80829581  0.31892693  1  0  -0.055315  0  3.708332  0  0  -0.07825  0  3.956828  0  0  -0.078811  0  3.976589  0  0  -0.076894  -0.077794  0  3.943368  0
C  C101  1  0.07929921  0.19170427  0.68107155  1  0  -0.055286  0  3.708277  0  0  -0.07823  0  3.956769  0  0  -0.078791  0  3.976537  0  0  -0.0769  -0.077777  0  3.943304  0
C  C102  1  0.88132986  0.92120537  0.29940418  1  0  -0.074378  0  3.710987  0  0  -0.097324  0  3.957869  0  0  -0.099102  0  3.979276  0  0  -0.086424  -0.095976  0  3.943297  0
C  C103  1  0.11866969  0.07879383  0.70059473  1  0  -0.074373  0  3.710923  0  0  -0.097331  0  3.957821  0  0  -0.099102  0  3.979201  0  0  -0.086408  -0.095987  0  3.943271  0
C  C104  1  0.08622233  0.66960417  0.41279713  1  0  0.58678  0  3.798335  0  0  0.537529  0  4.088594  0  0  0.570681  0  4.08003  0  0  0.240507  0.515021  0  4.093942  0
C  C105  1  0.91378099  0.33039504  0.58720220  1  0  0.586813  0  3.798331  0  0  0.537586  0  4.088559  0  0  0.570753  0  4.079988  0  0  0.240505  0.515066  0  4.093919  0
C  C106  1  0.26615818  0.54978764  0.50280080  1  0  -0.088715  0  3.573151  0  0  -0.188358  0  3.836439  0  0  -0.181034  0  3.839129  0  0  -0.145221  -0.193132  0  3.834589  0
C  C107  1  0.73384267  0.45021244  0.49719832  1  0  -0.088653  0  3.57312  0  0  -0.188304  0  3.836376  0  0  -0.18097  0  3.839071  0  0  -0.145201  -0.193077  0  3.834527  0
N  N108  1  0.95645144  0.39326505  0.09703972  1  0  -0.422139  0  3.33147  0  0  -0.337021  0  3.610738  0  0  -0.361373  0  3.628878  0  0  -0.351413  -0.320404  0  3.597977  0
N  N109  1  0.04354693  0.60673590  0.90296045  1  0  -0.422102  0  3.331511  0  0  -0.337005  0  3.610766  0  0  -0.361356  0  3.628908  0  0  -0.351412  -0.320386  0  3.598006  0
N  N110  1  0.16489275  0.30537389  0.19141700  1  0  -0.467064  0  3.340906  0  0  -0.415456  0  3.583737  0  0  -0.438591  0  3.59115  0  0  -0.395748  -0.399386  0  3.578195  0
N  N111  1  0.83510689  0.69462705  0.80858332  1  0  -0.46714  0  3.340935  0  0  -0.41552  0  3.583737  0  0  -0.43866  0  3.591147  0  0  -0.395797  -0.399449  0  3.578199  0
N  N112  1  0.60527680  0.22875689  0.15811305  1  0  -0.429197  0  3.292841  0  0  -0.344792  0  3.57282  0  0  -0.369066  0  3.589399  0  0  -0.351286  -0.328126  0  3.561018  0
N  N113  1  0.39472410  0.77124405  0.84188740  1  0  -0.429208  0  3.292836  0  0  -0.344823  0  3.572849  0  0  -0.369097  0  3.589425  0  0  -0.351291  -0.328153  0  3.561043  0
N  N114  1  0.82125876  0.15386126  0.25579882  1  0  -0.484005  0  3.360752  0  0  -0.431468  0  3.605416  0  0  -0.454861  0  3.612969  0  0  -0.403294  -0.415186  0  3.599551  0
N  N115  1  0.17874339  0.84613968  0.74420178  1  0  -0.483993  0  3.360742  0  0  -0.431459  0  3.605403  0  0  -0.45486  0  3.612974  0  0  -0.40328  -0.415177  0  3.599535  0
N  N116  1  0.12951950  0.07071536  0.95529403  1  0  0.704639  0  4.11655  0  0  0.730062  0  4.405115  0  0  0.759337  0  4.4133  0  0  0.096173  0.712279  0  4.39853  0
N  N117  1  0.87048013  0.92928559  0.04470629  1  0  0.70477  0  4.116561  0  0  0.730146  0  4.405184  0  0  0.759422  0  4.413371  0  0  0.096166  0.712373  0  4.398591  0
N  N118  1  0.51063677  0.22317561  0.90721739  1  0  0.689537  0  4.119237  0  0  0.71631  0  4.409913  0  0  0.746014  0  4.417149  0  0  0.098264  0.708706  0  4.386423  0
N  N119  1  0.48936408  0.77682446  0.09278237  1  0  0.689478  0  4.119223  0  0  0.716244  0  4.409908  0  0  0.745947  0  4.417151  0  0  0.098298  0.708654  0  4.386399  0
O  O120  1  0.33780611  0.37227726  0.32413612  1  0  -0.51299  0  1.930587  0  0  -0.471354  0  2.146047  0  0  -0.49011  0  2.141203  0  0  -0.272113  -0.458452  0  2.149168  0
O  O121  1  0.66218841  0.62772279  0.67586549  1  0  -0.513012  0  1.930529  0  0  -0.471367  0  2.145989  0  0  -0.490133  0  2.141143  0  0  -0.272136  -0.458459  0  2.149115  0
O  O122  1  0.42346991  0.73208743  0.28906783  1  0  -0.506677  0  1.933483  0  0  -0.465118  0  2.149033  0  0  -0.484003  0  2.143052  0  0  -0.272886  -0.452135  0  2.15282  0
O  O123  1  0.57652966  0.26791264  0.71093305  1  0  -0.506674  0  1.933492  0  0  -0.465096  0  2.149027  0  0  -0.483984  0  2.143052  0  0  -0.272869  -0.452107  0  2.152807  0
O  O124  1  0.58660827  0.82094844  0.41540815  1  0  -0.293083  0  2.319346  0  0  -0.214223  0  2.563613  0  0  -0.236651  0  2.564712  0  0  -0.172114  -0.198789  0  2.562425  0
O  O125  1  0.41339252  0.17905076  0.58459217  1  0  -0.293139  0  2.319429  0  0  -0.214223  0  2.563664  0  0  -0.236655  0  2.564765  0  0  -0.172106  -0.19879  0  2.562479  0
O  O126  1  0.98508713  0.22466736  0.39038251  1  0  -0.508394  0  1.907473  0  0  -0.465553  0  2.116581  0  0  -0.483991  0  2.112125  0  0  -0.276276  -0.452778  0  2.119251  0
O  O127  1  0.01491117  0.77533271  0.60961887  1  0  -0.508379  0  1.907465  0  0  -0.465529  0  2.116554  0  0  -0.483964  0  2.112099  0  0  -0.276271  -0.452764  0  2.119243  0
O  O128  1  0.99024847  0.58456735  0.38291632  1  0  -0.527166  0  1.96948  0  0  -0.482551  0  2.190188  0  0  -0.502706  0  2.184317  0  0  -0.26836  -0.468644  0  2.19393  0
O  O129  1  0.00975349  0.41542925  0.61707757  1  0  -0.527173  0  1.969578  0  0  -0.482557  0  2.190273  0  0  -0.50271  0  2.184392  0  0  -0.268346  -0.468651  0  2.194025  0
O  O130  1  0.23228180  0.66383825  0.47186779  1  0  -0.286825  0  2.316214  0  0  -0.210294  0  2.560391  0  0  -0.232027  0  2.559542  0  0  -0.170073  -0.195277  0  2.560518  0
O  O131  1  0.76771527  0.33616182  0.52813154  1  0  -0.28684  0  2.316133  0  0  -0.210346  0  2.560337  0  0  -0.232108  0  2.5595  0  0  -0.170089  -0.195322  0  2.560463  0
O  O132  1  0.98007958  0.10010392  0.92479674  1  0  -0.446289  0  1.854788  0  0  -0.408693  0  2.092973  0  0  -0.428908  0  2.086703  0  0  -0.18394  -0.3955  0  2.097109  0
O  O133  1  0.01991996  0.89989528  0.07520280  1  0  -0.446318  0  1.854769  0  0  -0.408698  0  2.092955  0  0  -0.42891  0  2.08668  0  0  -0.183919  -0.395508  0  2.097086  0
O  O134  1  0.22067353  0.12995825  0.02112301  1  0  -0.475851  0  1.83083  0  0  -0.461646  0  2.089146  0  0  -0.477352  0  2.078152  0  0  -0.188257  -0.45152  0  2.096331  0
O  O135  1  0.77932606  0.87004182  0.97887660  1  0  -0.47589  0  1.830791  0  0  -0.46167  0  2.089122  0  0  -0.477378  0  2.078129  0  0  -0.188258  -0.451545  0  2.096297  0
O  O136  1  0.18397145  0.98056169  0.91881135  1  0  -0.502711  0  1.906121  0  0  -0.482582  0  2.184578  0  0  -0.498537  0  2.169435  0  0  -0.200182  -0.472308  0  2.194877  0
O  O137  1  0.81603065  0.01943838  0.08118918  1  0  -0.502781  0  1.906226  0  0  -0.482629  0  2.184684  0  0  -0.498585  0  2.169543  0  0  -0.200182  -0.472343  0  2.194944  0
O  O138  1  0.60049132  0.13542386  0.93755280  1  0  -0.529233  0  1.982462  0  0  -0.473049  0  2.26889  0  0  -0.500558  0  2.256483  0  0  -0.230258  -0.457631  0  2.272412  0
O  O139  1  0.39950827  0.86457621  0.06244681  1  0  -0.529209  0  1.982376  0  0  -0.473063  0  2.268846  0  0  -0.500574  0  2.256426  0  0  -0.230286  -0.457646  0  2.27236  0
O  O140  1  0.57668853  0.32389907  0.92922802  1  0  -0.435423  0  1.794966  0  0  -0.42043  0  2.016192  0  0  -0.435611  0  2.009388  0  0  -0.164984  -0.413948  0  2.015354  0
O  O141  1  0.42331111  0.67610188  0.07077166  1  0  -0.435456  0  1.795025  0  0  -0.420433  0  2.016233  0  0  -0.435614  0  2.009429  0  0  -0.165001  -0.413953  0  2.015385  0
O  O142  1  0.36770252  0.20220592  0.86014552  1  0  -0.414484  0  1.79624  0  0  -0.401761  0  2.013498  0  0  -0.417492  0  2.009689  0  0  -0.15805  -0.395051  0  2.010475  0
O  O143  1  0.63229581  0.79779415  0.13985331  1  0  -0.414381  0  1.79619  0  0  -0.401671  0  2.013456  0  0  -0.417395  0  2.009645  0  0  -0.158037  -0.394968  0  2.010429  0
