# generated using pymatgen
data_CdH7C7N5O2
_symmetry_space_group_name_H-M   'P 1'
_cell_length_a   7.01191370
_cell_length_b   8.40560563
_cell_length_c   16.04527019
_cell_angle_alpha   90.00023667
_cell_angle_beta   90.00062527
_cell_angle_gamma   113.87035696
_symmetry_Int_Tables_number   1
_chemical_formula_structural   CdH7C7N5O2
_chemical_formula_sum   'Cd4 H28 C28 N20 O8'
_cell_volume   864.80651891
_cell_formula_units_Z   4
loop_
 _symmetry_equiv_pos_site_id
 _symmetry_equiv_pos_as_xyz
  1  'x, y, z'
loop_
 _atom_site_type_symbol
 _atom_site_label
 _atom_site_symmetry_multiplicity
 _atom_site_fract_x
 _atom_site_fract_y
 _atom_site_fract_z
 _atom_site_occupancy
 _atom_site_pbe_bader_charge
 _atom_site_pbe_bader_spin_density
 _atom_site_pbe_cm5_charge
 _atom_site_pbe_ddec_charge
 _atom_site_pbe_ddec_spin_density
 _atom_site_pbe_ddec_sum_bond_order
 _atom_site_pbe_magmom
Cd  Cd0  1  0.38079229  0.65143415  0.69314513  1  1.239236  0  0.774654  0.90381  0  2.135661  0
Cd  Cd1  1  0.11920494  0.34856588  0.19315025  1  1.239351  0  0.774685  0.903813  0  2.135717  0
Cd  Cd2  1  0.61921009  0.34856658  0.30685474  1  1.239283  0  0.774669  0.903823  0  2.135639  0
Cd  Cd3  1  0.88079477  0.65143225  0.80684900  1  1.239338  0  0.774682  0.903854  0  2.135694  0
H  H4  1  0.75807140  0.87982314  0.98939422  1  0.088437  0  0.10391  0.122058  0  1.02278  0
H  H5  1  0.74192124  0.12017349  0.48939093  1  0.088519  0  0.10393  0.122107  0  1.022727  0
H  H6  1  0.24192322  0.12017628  0.01060939  1  0.088494  0  0.103916  0.122059  0  1.022768  0
H  H7  1  0.25807720  0.87982203  0.51060333  1  0.088399  0  0.103914  0.122083  0  1.022773  0
H  H8  1  0.83450293  0.39349929  0.06354557  1  0.062104  0  0.104555  0.11283  0  1.064826  0
H  H9  1  0.66549750  0.60650289  0.56354560  1  0.06211  0  0.104556  0.112843  0  1.064795  0
H  H10  1  0.16549597  0.60650013  0.93645617  1  0.062106  0  0.104553  0.112828  0  1.064834  0
H  H11  1  0.33450917  0.39349784  0.43645427  1  0.062113  0  0.104539  0.112798  0  1.064797  0
H  H12  1  0.58430766  0.19895026  0.82145793  1  0.11563  0  0.104844  0.123786  0  1.013165  0
H  H13  1  0.91569282  0.80104760  0.32146002  1  0.11567  0  0.104871  0.123826  0  1.013139  0
H  H14  1  0.41569313  0.80105306  0.17854444  1  0.115652  0  0.104868  0.123821  0  1.013107  0
H  H15  1  0.08430436  0.19894532  0.67853798  1  0.115728  0  0.104858  0.123835  0  1.013119  0
H  H16  1  0.91417999  0.00809928  0.11879920  1  0.448253  0  0.296235  0.293916  0  0.954262  0
H  H17  1  0.58581976  0.99190160  0.61879744  1  0.44824  0  0.296224  0.293947  0  0.954243  0
H  H18  1  0.08581606  0.99190014  0.88120317  1  0.448251  0  0.296225  0.293926  0  0.954287  0
H  H19  1  0.41418343  0.00809783  0.38119994  1  0.448226  0  0.296235  0.293961  0  0.954198  0
H  H20  1  0.75334852  0.08836640  0.15820424  1  0.487255  0  0.286668  0.289466  0  1.004067  0
H  H21  1  0.74665409  0.91163542  0.65820316  1  0.487295  0  0.286669  0.289504  0  1.004027  0
H  H22  1  0.24665022  0.91163563  0.84179812  1  0.487315  0  0.286666  0.289474  0  1.004089  0
H  H23  1  0.25334910  0.08836401  0.34179422  1  0.487248  0  0.286681  0.289475  0  1.004072  0
H  H24  1  0.72545361  0.55391443  0.97326147  1  0.453649  0  0.295564  0.287366  0  0.962299  0
H  H25  1  0.77455856  0.44609093  0.47326496  1  0.453694  0  0.295544  0.287355  0  0.962314  0
H  H26  1  0.27454925  0.44609020  0.02673965  1  0.453719  0  0.295569  0.287403  0  0.962327  0
H  H27  1  0.22544605  0.55390850  0.52673554  1  0.453687  0  0.29553  0.287338  0  0.962361  0
H  H28  1  0.54724679  0.45302225  0.90082842  1  0.479939  0  0.291818  0.289349  0  0.984708  0
H  H29  1  0.95275989  0.54698139  0.40083164  1  0.479952  0  0.291824  0.289341  0  0.984718  0
H  H30  1  0.45275464  0.54698237  0.09917457  1  0.479916  0  0.291795  0.28931  0  0.984722  0
H  H31  1  0.04724409  0.45301674  0.59916823  1  0.479979  0  0.291812  0.289338  0  0.984784  0
C  C32  1  0.57910123  0.87835986  0.83908595  1  1.534748  0  0.203999  0.576865  0  4.186377  0
C  C33  1  0.92089482  0.12163972  0.33908850  1  1.534488  0  0.204025  0.57696  0  4.186279  0
C  C34  1  0.42089751  0.12164216  0.16091454  1  1.534733  0  0.203961  0.576845  0  4.186473  0
C  C35  1  0.07910379  0.87835321  0.66090639  1  1.533897  0  0.204054  0.577084  0  4.186354  0
C  C36  1  0.66847854  0.02718192  0.89874747  1  0.005244  0  -0.020803  -0.010859  0  4.015859  0
C  C37  1  0.83151778  0.97281517  0.39874750  1  0.005776  0  -0.020835  -0.010943  0  4.015894  0
C  C38  1  0.33151735  0.97282010  0.10125427  1  0.00559  0  -0.020834  -0.011009  0  4.016022  0
C  C39  1  0.16847717  0.02717905  0.60124801  1  0.005372  0  -0.02079  -0.011028  0  4.015966  0
C  C40  1  0.75119587  0.00389351  0.97494082  1  -0.030498  0  -0.096844  -0.214952  0  3.941496  0
C  C41  1  0.74879831  0.99610407  0.47493924  1  -0.030947  0  -0.096879  -0.214985  0  3.941407  0
C  C42  1  0.24879939  0.99610721  0.02506154  1  -0.030971  0  -0.096816  -0.214834  0  3.941379  0
C  C43  1  0.25119870  0.00389145  0.52505689  1  -0.03057  0  -0.096829  -0.214923  0  3.941474  0
C  C44  1  0.80873384  0.13592887  0.03457171  1  0.343751  0  0.079166  0.284553  0  4.048148  0
C  C45  1  0.69126205  0.86407133  0.53457030  1  0.343783  0  0.079178  0.28457  0  4.048121  0
C  C46  1  0.19126347  0.86407316  0.96543003  1  0.343829  0  0.079171  0.284534  0  4.048089  0
C  C47  1  0.30873765  0.13592680  0.46542645  1  0.343739  0  0.079184  0.284608  0  4.048019  0
C  C48  1  0.79136407  0.29193360  0.01653155  1  -0.005208  0  -0.105168  -0.27505  0  3.908883  0
C  C49  1  0.70863688  0.70806617  0.51653253  1  -0.00587  0  -0.105165  -0.27501  0  3.908849  0
C  C50  1  0.20863278  0.70806452  0.98346832  1  -0.005826  0  -0.10516  -0.274997  0  3.908866  0
C  C51  1  0.29136710  0.29193196  0.48346796  1  -0.005235  0  -0.105154  -0.275006  0  3.908785  0
C  C52  1  0.71187575  0.31587690  0.94007831  1  0.294434  0  0.081664  0.289794  0  4.053795  0
C  C53  1  0.78812904  0.68412377  0.44007965  1  0.295045  0  0.081664  0.289806  0  4.053621  0
C  C54  1  0.28812567  0.68412773  0.05992406  1  0.29515  0  0.081627  0.289725  0  4.053734  0
C  C55  1  0.21187431  0.31587305  0.55991897  1  0.294395  0  0.081656  0.289778  0  4.053758  0
C  C56  1  0.64990268  0.18308450  0.88083383  1  -0.00381  0  -0.099199  -0.211761  0  3.932038  0
C  C57  1  0.85009853  0.81691477  0.38083501  1  -0.003825  0  -0.09921  -0.211807  0  3.932061  0
C  C58  1  0.35009527  0.81691882  0.11916854  1  -0.00389  0  -0.099181  -0.211739  0  3.93207  0
C  C59  1  0.14990276  0.18308076  0.61916237  1  -0.003827  0  -0.099214  -0.211773  0  3.932109  0
N  N60  1  0.87476888  0.11279201  0.11634112  1  -1.205987  0  -0.611919  -0.613758  0  3.358079  0
N  N61  1  0.62522935  0.88720881  0.61633943  1  -1.20601  0  -0.611924  -0.613897  0  3.358055  0
N  N62  1  0.12522780  0.88720871  0.88366124  1  -1.206024  0  -0.611925  -0.613851  0  3.358087  0
N  N63  1  0.37477241  0.11279062  0.38365795  1  -1.206035  0  -0.611972  -0.613869  0  3.358046  0
N  N64  1  0.69441104  0.47477409  0.92196461  1  -1.226162  0  -0.60303  -0.594469  0  3.375642  0
N  N65  1  0.80559594  0.52522615  0.42196709  1  -1.226232  0  -0.603018  -0.594442  0  3.375561  0
N  N66  1  0.30558849  0.52522663  0.07803775  1  -1.226181  0  -0.603008  -0.594446  0  3.37569  0
N  N67  1  0.19440946  0.47477198  0.57803278  1  -1.226212  0  -0.603002  -0.5944  0  3.375763  0
N  N68  1  0.60812556  0.48427257  0.71344751  1  -0.320943  0  -0.305346  -0.553716  0  2.950731  0
N  N69  1  0.89188145  0.51572665  0.21345476  1  -0.320837  0  -0.305496  -0.553899  0  2.950927  0
N  N70  1  0.39187683  0.51572816  0.28655298  1  -0.320946  0  -0.305391  -0.553778  0  2.950929  0
N  N71  1  0.10812283  0.48427797  0.78654574  1  -0.321301  0  -0.305473  -0.553954  0  2.951076  0
N  N72  1  0.66096761  0.40464689  0.66265069  1  -0.292268  0  0.081022  0.430463  0  4.508828  0
N  N73  1  0.83904040  0.59535113  0.16265778  1  -0.292549  0  0.081125  0.43057  0  4.509124  0
N  N74  1  0.33903621  0.59535383  0.33734918  1  -0.29206  0  0.081078  0.430538  0  4.508991  0
N  N75  1  0.16096165  0.40465480  0.83734271  1  -0.292093  0  0.081122  0.430656  0  4.509081  0
N  N76  1  0.71476467  0.32846187  0.61340012  1  -0.105712  0  -0.197441  -0.402102  0  2.652375  0
N  N77  1  0.78524139  0.67153759  0.11340704  1  -0.105566  0  -0.197394  -0.402032  0  2.652453  0
N  N78  1  0.28523835  0.67154016  0.38660037  1  -0.105925  0  -0.197454  -0.402114  0  2.652318  0
N  N79  1  0.21476067  0.32846834  0.88659532  1  -0.105559  0  -0.197399  -0.402072  0  2.652282  0
O  O80  1  0.46254521  0.89378866  0.78053073  1  -1.167484  0  -0.325833  -0.548869  0  2.255659  0
O  O81  1  0.03744555  0.10620822  0.28053329  1  -1.167341  0  -0.32586  -0.548923  0  2.255612  0
O  O82  1  0.53745496  0.10621337  0.21946977  1  -1.167446  0  -0.325819  -0.548848  0  2.255649  0
O  O83  1  0.96255465  0.89378210  0.71946284  1  -1.16724  0  -0.325812  -0.548942  0  2.255682  0
O  O84  1  0.61094473  0.74186591  0.84962487  1  -1.194709  0  -0.338543  -0.578698  0  2.310902  0
O  O85  1  0.88906231  0.25813522  0.34963055  1  -1.194709  0  -0.338511  -0.578726  0  2.311028  0
O  O86  1  0.38905829  0.25813612  0.15037562  1  -1.194735  0  -0.338514  -0.578683  0  2.311057  0
O  O87  1  0.11093978  0.74185900  0.65036496  1  -1.194021  0  -0.338591  -0.578832  0  2.31105  0
