# generated using pymatgen
data_Zn2H17C40N4O12F5
_symmetry_space_group_name_H-M   'P 1'
_cell_length_a   14.05429925
_cell_length_b   21.70479073
_cell_length_c   21.79390239
_cell_angle_alpha   90.20429940
_cell_angle_beta   90.16130320
_cell_angle_gamma   89.98079981
_symmetry_Int_Tables_number   1
_chemical_formula_structural   Zn2H17C40N4O12F5
_chemical_formula_sum   'Zn4 H34 C80 N8 O24 F10'
_cell_volume   6648.06559452
_cell_formula_units_Z   2
loop_
 _symmetry_equiv_pos_site_id
 _symmetry_equiv_pos_as_xyz
  1  'x, y, z'
loop_
 _atom_site_type_symbol
 _atom_site_label
 _atom_site_symmetry_multiplicity
 _atom_site_fract_x
 _atom_site_fract_y
 _atom_site_fract_z
 _atom_site_occupancy
 _atom_site_pbe_bader_charge
 _atom_site_pbe_bader_spin_density
 _atom_site_pbe_cm5_charge
 _atom_site_pbe_ddec_charge
 _atom_site_pbe_ddec_spin_density
 _atom_site_pbe_ddec_sum_bond_order
 _atom_site_pbe_magmom
Zn  Zn0  1  0.60643428  0.99619558  0.50036488  1  1.299805  0  0.674082  0.840134  0  2.436536  0
Zn  Zn1  1  0.40685103  0.00286734  0.49999739  1  1.28264  0  0.667875  0.838272  0  2.396971  0
Zn  Zn2  1  0.39362348  0.50068693  0.00451621  1  1.291184  0  0.673956  0.840361  0  2.432144  0
Zn  Zn3  1  0.59312826  0.50047817  0.99811450  1  1.289379  0  0.667903  0.837463  0  2.398576  0
H  H4  1  0.94034015  0.89625312  0.49181294  1  0.11357  0  0.125543  0.153829  0  0.982471  0
H  H5  1  0.07062119  0.10015654  0.50026256  1  0.112065  0  0.122757  0.150065  0  0.989524  0
H  H6  1  0.25875422  0.90952351  0.49736343  1  0.146193  0  0.135234  0.114274  0  0.966884  0
H  H7  1  0.08281649  0.89988529  0.49485555  1  0.061517  0  0.120229  0.130429  0  0.99066  0
H  H8  1  0.75423353  0.08775170  0.50176464  1  0.137981  0  0.13766  0.119088  0  0.961474  0
H  H9  1  0.92997777  0.09660695  0.50150966  1  0.087274  0  0.117351  0.125858  0  0.994873  0
H  H10  1  0.34307416  0.86187125  0.35869076  1  0.150566  0  0.113535  0.126485  0  1.005372  0
H  H11  1  0.64613915  0.86095720  0.36622720  1  0.163935  0  0.115151  0.128919  0  1.010812  0
H  H12  1  0.65739871  0.64241876  0.13862948  1  0.101286  0  0.113414  0.124118  0  1.008579  0
H  H13  1  0.35449866  0.63348474  0.14079314  1  0.146916  0  0.11495  0.128693  0  1.011024  0
H  H14  1  0.65939741  0.22637029  0.72238095  1  0.092714  0  0.108233  0.128368  0  1.008077  0
H  H15  1  0.34054197  0.27799544  0.77533094  1  0.073587  0  0.108282  0.128444  0  1.007698  0
H  H16  1  0.63145010  0.36760906  0.86701087  1  0.104588  0  0.106061  0.113232  0  1.000777  0
H  H17  1  0.64812782  0.28788172  0.78724337  1  0.057901  0  0.101374  0.103365  0  1.014555  0
H  H18  1  0.36898009  0.13314736  0.63373572  1  0.113996  0  0.105838  0.113106  0  1.000501  0
H  H19  1  0.35189104  0.21291369  0.71349599  1  0.058566  0  0.101266  0.103093  0  1.014918  0
H  H20  1  0.66721933  0.22224275  0.28370297  1  0.102236  0  0.108043  0.127967  0  1.0059  0
H  H21  1  0.35552717  0.28213883  0.22246023  1  0.05626  0  0.108897  0.128638  0  1.007148  0
H  H22  1  0.65572499  0.36133464  0.13544132  1  0.083796  0  0.105362  0.109431  0  0.999324  0
H  H23  1  0.66381193  0.28114845  0.21482781  1  0.026188  0  0.101279  0.103612  0  1.014049  0
H  H24  1  0.36535325  0.13516795  0.36057962  1  0.077529  0  0.107214  0.114128  0  0.995668  0
H  H25  1  0.35889866  0.21469514  0.28067273  1  0.072861  0  0.102313  0.104443  0  1.013873  0
H  H26  1  0.64413439  0.77899125  0.72006800  1  0.070451  0  0.109078  0.129285  0  1.006476  0
H  H27  1  0.33253801  0.71796650  0.77910345  1  0.072302  0  0.108596  0.128882  0  1.006108  0
H  H28  1  0.63436546  0.64054880  0.86680930  1  0.113115  0  0.107528  0.114495  0  0.995167  0
H  H29  1  0.64086147  0.72035338  0.78720299  1  0.071308  0  0.102143  0.104326  0  1.013912  0
H  H30  1  0.34369622  0.86512018  0.63900365  1  0.077305  0  0.105115  0.109441  0  0.999319  0
H  H31  1  0.33579033  0.78614223  0.71955413  1  0.029606  0  0.101453  0.103689  0  1.013937  0
H  H32  1  0.06010771  0.50846093  0.10398908  1  0.111145  0  0.125468  0.153673  0  0.98219  0
H  H33  1  0.92853635  0.50075828  0.90092097  1  0.078484  0  0.123061  0.150217  0  0.987344  0
H  H34  1  0.74188041  0.50275517  0.09104817  1  0.152692  0  0.135265  0.11468  0  0.966538  0
H  H35  1  0.91788271  0.50552557  0.10040271  1  0.052339  0  0.120062  0.129889  0  0.990781  0
H  H36  1  0.24521848  0.49887933  0.91321041  1  0.157654  0  0.137559  0.118981  0  0.963521  0
H  H37  1  0.06943370  0.49928063  0.90442677  1  0.069735  0  0.117479  0.125934  0  0.996256  0
C  C38  1  0.52367196  0.08473698  0.58445630  1  1.598882  0  0.214364  0.61105  0  4.170088  0
C  C39  1  0.51433387  0.08365583  0.41524768  1  1.579635  0  0.214572  0.613221  0  4.166837  0
C  C40  1  0.49404520  0.91397745  0.41503259  1  1.570024  0  0.217701  0.593232  0  4.170709  0
C  C41  1  0.49438222  0.91508643  0.58453734  1  1.593598  0  0.214777  0.613563  0  4.171998  0
C  C42  1  0.47731021  0.41690477  0.91570977  1  1.569049  0  0.214695  0.613476  0  4.167869  0
C  C43  1  0.48517397  0.58650865  0.91828272  1  1.572165  0  0.213669  0.611527  0  4.170748  0
C  C44  1  0.50670156  0.58517592  0.08738165  1  1.615472  0  0.217742  0.593488  0  4.171259  0
C  C45  1  0.50470787  0.41561271  0.08482405  1  1.587017  0  0.214807  0.612954  0  4.16967  0
C  C46  1  0.80604819  0.94171922  0.49511345  1  1.14589  0  0.253279  0.459644  0  4.055485  0
C  C47  1  0.90483058  0.94067217  0.49440067  1  0.045219  0  -0.078932  -0.286384  0  3.909925  0
C  C48  1  0.20540857  0.05520160  0.50088718  1  1.052764  0  0.247876  0.452783  0  4.065686  0
C  C49  1  0.10669448  0.05588330  0.49959980  1  0.053929  0  -0.081694  -0.292037  0  3.920471  0
C  C50  1  0.21285107  0.94997780  0.49795117  1  0.507785  0  0.069258  0.138291  0  3.898567  0
C  C51  1  0.11458291  0.94552021  0.49663589  1  -0.051185  0  -0.077428  -0.187716  0  3.930297  0
C  C52  1  0.79961997  0.04711138  0.49966665  1  0.526568  0  0.073778  0.145995  0  3.885686  0
C  C53  1  0.89789127  0.05109012  0.49947510  1  0.001454  0  -0.078917  -0.188337  0  3.935624  0
C  C54  1  0.95322988  0.99702923  0.49694536  1  -0.063108  0  0.02211  0.132487  0  3.974522  0
C  C55  1  0.05863128  0.99937873  0.49753467  1  0.106193  0  0.023691  0.140799  0  3.964069  0
C  C56  1  0.40946464  0.84252671  0.34165003  1  -0.021207  0  -0.0689  -0.120103  0  3.896887  0
C  C57  1  0.41033596  0.79695009  0.29585705  1  0.063893  0  0.002729  0.038653  0  4.008404  0
C  C58  1  0.32507938  0.77115714  0.27021343  1  0.219968  0  0.092462  -0.007829  0  3.911347  0
C  C59  1  0.58183813  0.84228445  0.34539957  1  -0.031715  0  -0.066702  -0.112687  0  3.889168  0
C  C60  1  0.58566746  0.79653194  0.29998425  1  0.076347  0  0.003384  0.038363  0  4.012031  0
C  C61  1  0.67350166  0.77269804  0.27630269  1  0.235718  0  0.092045  -0.006638  0  3.903814  0
C  C62  1  0.59106122  0.65920117  0.15822745  1  0.029612  0  -0.068687  -0.117596  0  3.897685  0
C  C63  1  0.59018498  0.70498543  0.20381363  1  0.038861  0  0.002577  0.037635  0  4.008709  0
C  C64  1  0.67546384  0.73069781  0.22951990  1  0.261224  0  0.092776  -0.00606  0  3.908832  0
C  C65  1  0.41872953  0.65476429  0.15905354  1  -0.026198  0  -0.0665  -0.112081  0  3.886744  0
C  C66  1  0.41484479  0.70048455  0.20449257  1  -0.020052  0  0.003241  0.038877  0  4.009524  0
C  C67  1  0.32703934  0.72426003  0.22829467  1  0.275268  0  0.091938  -0.006894  0  3.903323  0
C  C68  1  0.49460531  0.86486182  0.36596175  1  0.02144  0  -0.003465  0.000678  0  3.954177  0
C  C69  1  0.49916340  0.77298161  0.27412217  1  -0.019269  0  0.01535  0.021891  0  3.902487  0
C  C70  1  0.50598441  0.63445309  0.13629585  1  0.030676  0  -0.00382  -0.000372  0  3.953428  0
C  C71  1  0.50135002  0.72658001  0.22783504  1  -0.012839  0  0.014925  0.020911  0  3.903495  0
C  C72  1  0.52058308  0.13396992  0.63278822  1  0.019432  0  -0.025626  -0.145273  0  3.950525  0
C  C73  1  0.47985034  0.36839768  0.86666489  1  0.054437  0  -0.024423  -0.144426  0  3.951019  0
C  C74  1  0.60041825  0.16211065  0.65949014  1  0.390956  0  0.106772  0.291995  0  4.040875  0
C  C75  1  0.59326762  0.20730723  0.70448035  1  0.039111  0  -0.102122  -0.265663  0  3.973744  0
C  C76  1  0.39984383  0.34143795  0.83898146  1  0.406165  0  0.10581  0.289965  0  4.041772  0
C  C77  1  0.40675592  0.29626794  0.79390984  1  0.031028  0  -0.102054  -0.264393  0  3.972049  0
C  C78  1  0.56858859  0.34715139  0.84592234  1  0.020178  0  -0.080938  -0.061704  0  4.001823  0
C  C79  1  0.57707219  0.30223639  0.80092156  1  -0.101318  0  -0.098586  -0.153722  0  3.998274  0
C  C80  1  0.43173177  0.15443289  0.65414188  1  -0.028201  0  -0.080276  -0.061716  0  3.99863  0
C  C81  1  0.42300088  0.19947025  0.69901747  1  -0.013631  0  -0.098162  -0.153087  0  3.996195  0
C  C82  1  0.50396837  0.22721878  0.72554196  1  -0.035  0  2e-05  0.102334  0  3.991766  0
C  C83  1  0.49598172  0.27541516  0.77360716  1  0.035349  0  6.5e-05  0.101711  0  3.991414  0
C  C84  1  0.51675472  0.13282369  0.36724153  1  0.040709  0  -0.024819  -0.147448  0  3.952747  0
C  C85  1  0.50419466  0.36692557  0.13327647  1  0.093371  0  -0.024948  -0.144653  0  3.951375  0
C  C86  1  0.60002570  0.15924440  0.34366725  1  0.405796  0  0.106762  0.292113  0  4.035814  0
C  C87  1  0.59878982  0.20449771  0.29881422  1  0.063815  0  -0.101951  -0.263943  0  3.971901  0
C  C88  1  0.42131574  0.34251519  0.15946360  1  0.415068  0  0.108258  0.294934  0  4.033178  0
C  C89  1  0.42365372  0.29772703  0.20469910  1  0.027195  0  -0.101283  -0.264325  0  3.971608  0
C  C90  1  0.59061018  0.34302997  0.15533214  1  -0.050632  0  -0.08194  -0.064938  0  4.008979  0
C  C91  1  0.59437824  0.29794500  0.20025224  1  -0.037047  0  -0.098844  -0.15559  0  3.995399  0
C  C92  1  0.43080723  0.15504073  0.34277679  1  0.004347  0  -0.079963  -0.060115  0  3.998742  0
C  C93  1  0.42805103  0.20004224  0.29782408  1  -0.091553  0  -0.097427  -0.153638  0  3.993456  0
C  C94  1  0.51237893  0.22604981  0.27448656  1  0.020589  0  0.000725  0.10205  0  3.992152  0
C  C95  1  0.51044525  0.27407546  0.22632274  1  0.007188  0  0.000819  0.104703  0  3.989756  0
C  C96  1  0.49521895  0.86709790  0.63370400  1  0.061761  0  -0.025315  -0.146125  0  3.952976  0
C  C97  1  0.48290852  0.63438688  0.86903111  1  0.045957  0  -0.024443  -0.145193  0  3.95392  0
C  C98  1  0.57815666  0.84117940  0.65867656  1  0.401058  0  0.108403  0.294201  0  4.03448  0
C  C99  1  0.57593451  0.79638845  0.70392948  1  0.042191  0  -0.101528  -0.264429  0  3.97115  0
C  C100  1  0.39966684  0.65804973  0.84240775  1  0.399453  0  0.106304  0.291611  0  4.038756  0
C  C101  1  0.40094188  0.70279047  0.79706463  1  0.090443  0  -0.102451  -0.265835  0  3.974533  0
C  C102  1  0.56889838  0.65852912  0.84688817  1  -0.036855  0  -0.080077  -0.061411  0  3.999676  0
C  C103  1  0.57169279  0.70341858  0.80182751  1  -0.05714  0  -0.09772  -0.153466  0  3.991878  0
C  C104  1  0.40886210  0.84528250  0.65757337  1  -0.000737  0  -0.082042  -0.064729  0  4.007565  0
C  C105  1  0.40520260  0.80065505  0.70293895  1  -0.012667  0  -0.098508  -0.154857  0  3.994115  0
C  C106  1  0.48919584  0.77479969  0.72732049  1  -0.047874  0  7.4e-05  0.102756  0  3.990724  0
C  C107  1  0.48736059  0.72688176  0.77559881  1  -0.002821  0  0.001351  0.103619  0  3.989179  0
C  C108  1  0.19414457  0.50508395  0.05867658  1  1.135006  0  0.253815  0.460158  0  4.054934  0
C  C109  1  0.09535661  0.50593958  0.05971412  1  0.039938  0  -0.078108  -0.285438  0  3.907676  0
C  C110  1  0.79408422  0.49973302  0.94586854  1  1.027484  0  0.248649  0.452996  0  4.067201  0
C  C111  1  0.89277652  0.50125995  0.94506113  1  0.110153  0  -0.082081  -0.291425  0  3.918746  0
C  C112  1  0.78747194  0.50238603  0.05069467  1  0.397119  0  0.068945  0.135824  0  3.900786  0
C  C113  1  0.88575822  0.50382565  0.05499809  1  0.084008  0  -0.077283  -0.186283  0  3.931759  0
C  C114  1  0.20003442  0.50097832  0.95369639  1  0.503917  0  0.073753  0.145701  0  3.88703  0
C  C115  1  0.10172851  0.50119527  0.94975878  1  0.026605  0  -0.078638  -0.188724  0  3.937034  0
C  C116  1  0.04664480  0.50363226  0.00358819  1  -0.06445  0  0.020917  0.132182  0  3.974181  0
C  C117  1  0.94125268  0.50312631  0.00128714  1  0.06089  0  0.023954  0.14014  0  3.96688  0
N  N118  1  0.75370433  0.99249814  0.49768867  1  -1.272544  0  -0.314008  -0.288541  0  3.473399  0
N  N119  1  0.25850643  0.00473944  0.50013990  1  -1.22812  0  -0.314449  -0.290324  0  3.473834  0
N  N120  1  0.24626277  0.50273648  0.00808696  1  -1.251281  0  -0.313869  -0.28868  0  3.471919  0
N  N121  1  0.74139915  0.50021781  0.99620491  1  -1.20824  0  -0.314438  -0.289102  0  3.474472  0
N  N122  1  0.23635504  0.69809740  0.20557140  1  0.404262  0  0.060219  0.517616  0  4.23343  0
N  N123  1  0.23265773  0.79491669  0.29243652  1  0.442964  0  0.060105  0.517796  0  4.244041  0
N  N124  1  0.76788506  0.70840970  0.20582214  1  0.406423  0  0.060432  0.51727  0  4.244544  0
N  N125  1  0.76410667  0.79544175  0.30254236  1  0.426244  0  0.059287  0.517011  0  4.235813  0
O  O126  1  0.60404111  0.06566073  0.56597687  1  -1.157371  0  -0.315726  -0.541818  0  2.324879  0
O  O127  1  0.44267481  0.06562616  0.56567276  1  -1.170545  0  -0.322328  -0.559936  0  2.351952  0
O  O128  1  0.43207390  0.06480222  0.43118101  1  -1.163785  0  -0.32186  -0.555497  0  2.324932  0
O  O129  1  0.59327400  0.06435772  0.43626840  1  -1.154883  0  -0.317418  -0.547818  0  2.35539  0
O  O130  1  0.41349220  0.93197254  0.43449571  1  -1.147704  0  -0.313595  -0.544315  0  2.303487  0
O  O131  1  0.57522807  0.93285603  0.43235609  1  -1.16197  0  -0.310876  -0.540573  0  2.345676  0
O  O132  1  0.57464054  0.93409706  0.56573308  1  -1.148962  0  -0.316497  -0.545465  0  2.38353  0
O  O133  1  0.41330160  0.93314966  0.56523415  1  -1.162124  0  -0.322598  -0.559314  0  2.305371  0
O  O134  1  0.39754501  0.43963217  0.93103699  1  -1.151308  0  -0.315873  -0.544748  0  2.326161  0
O  O135  1  0.55805802  0.43163304  0.93842019  1  -1.172131  0  -0.322478  -0.560202  0  2.346952  0
O  O136  1  0.56727009  0.56644285  0.93339255  1  -1.159682  0  -0.3207  -0.555045  0  2.333424  0
O  O137  1  0.40647139  0.56979940  0.94141804  1  -1.156756  0  -0.318141  -0.546488  0  2.349347  0
O  O138  1  0.58709616  0.56915873  0.06604088  1  -1.160131  0  -0.314084  -0.544082  0  2.299112  0
O  O139  1  0.42578279  0.56421592  0.07206913  1  -1.158086  0  -0.310512  -0.540297  0  2.349949  0
O  O140  1  0.42483872  0.43070494  0.06191548  1  -1.152196  0  -0.317013  -0.545088  0  2.374644  0
O  O141  1  0.58532157  0.43812887  0.07014416  1  -1.161829  0  -0.322435  -0.559165  0  2.306266  0
O  O142  1  0.22528405  0.64194895  0.21169963  1  -0.417473  0  -0.11711  -0.308856  0  1.875593  0
O  O143  1  0.17935975  0.73427497  0.18174983  1  -0.42099  0  -0.119095  -0.303801  0  1.856292  0
O  O144  1  0.21517997  0.84963820  0.28202821  1  -0.430282  0  -0.113283  -0.301199  0  1.865677  0
O  O145  1  0.18171331  0.75847669  0.32087641  1  -0.440034  0  -0.123162  -0.308987  0  1.849413  0
O  O146  1  0.78492200  0.71882238  0.15129714  1  -0.421609  0  -0.113298  -0.300675  0  1.867016  0
O  O147  1  0.81925612  0.67993145  0.24211426  1  -0.411303  0  -0.123373  -0.309175  0  1.848683  0
O  O148  1  0.77526943  0.78916938  0.35846589  1  -0.42554  0  -0.1168  -0.308691  0  1.876082  0
O  O149  1  0.82093425  0.81946085  0.26666467  1  -0.42219  0  -0.11876  -0.303747  0  1.857101  0
F  F150  1  0.75857485  0.88826880  0.49318512  1  -0.608131  0  -0.063098  -0.121143  0  1.334371  0
F  F151  1  0.25229137  0.10909114  0.50321575  1  -0.615544  0  -0.069783  -0.131638  0  1.324458  0
F  F152  1  0.69015951  0.14635497  0.64218457  1  -0.627719  0  -0.111715  -0.15337  0  1.337746  0
F  F153  1  0.31018924  0.35830025  0.85550658  1  -0.624581  0  -0.111511  -0.153133  0  1.336458  0
F  F154  1  0.68753174  0.14170983  0.36405095  1  -0.629138  0  -0.111231  -0.152704  0  1.342223  0
F  F155  1  0.33349099  0.36209148  0.14217201  1  -0.624211  0  -0.10735  -0.146381  0  1.348669  0
F  F156  1  0.66596330  0.85857944  0.63954757  1  -0.624732  0  -0.10706  -0.145241  0  1.349675  0
F  F157  1  0.31220865  0.63755969  0.85953558  1  -0.629334  0  -0.110916  -0.152448  0  1.341213  0
F  F158  1  0.24176327  0.50666776  0.11194890  1  -0.611478  0  -0.063357  -0.121347  0  1.336472  0
F  F159  1  0.74682831  0.49735575  0.89226445  1  -0.610487  0  -0.069393  -0.131189  0  1.326885  0
