# generated using pymatgen
data_ZnH25C37NO4
_symmetry_space_group_name_H-M   'P 1'
_cell_length_a   9.37027856
_cell_length_b   16.08840538
_cell_length_c   19.10451522
_cell_angle_alpha   89.99997168
_cell_angle_beta   101.22014212
_cell_angle_gamma   90.00004296
_symmetry_Int_Tables_number   1
_chemical_formula_structural   ZnH25C37NO4
_chemical_formula_sum   'Zn4 H100 C148 N4 O16'
_cell_volume   2825.01280049
_cell_formula_units_Z   4
loop_
 _symmetry_equiv_pos_site_id
 _symmetry_equiv_pos_as_xyz
  1  'x, y, z'
loop_
 _atom_site_type_symbol
 _atom_site_label
 _atom_site_symmetry_multiplicity
 _atom_site_fract_x
 _atom_site_fract_y
 _atom_site_fract_z
 _atom_site_occupancy
 _atom_site_pbe_bader_charge
 _atom_site_pbe_bader_spin_density
 _atom_site_pbe_cm5_charge
 _atom_site_pbe_ddec_charge
 _atom_site_pbe_ddec_spin_density
 _atom_site_pbe_ddec_sum_bond_order
 _atom_site_pbe_magmom
Zn  Zn0  1  0.07850654  0.49712374  0.44246868  1  1.287663  0  0.671308  0.821058  0  2.417667  0
Zn  Zn1  1  0.42148997  0.99712438  0.05753153  1  1.287967  0  0.671298  0.821042  0  2.417645  0
Zn  Zn2  1  0.92148969  0.50287648  0.55753039  1  1.287911  0  0.671293  0.821014  0  2.417735  0
Zn  Zn3  1  0.57850842  0.00287521  0.94246932  1  1.287619  0  0.671306  0.821054  0  2.417696  0
H  H4  1  0.18471279  0.33934608  0.69818133  1  0.094104  0  0.103408  0.106865  0  1.020244  0
H  H5  1  0.31528733  0.83934592  0.80181945  1  0.094123  0  0.103418  0.106874  0  1.020234  0
H  H6  1  0.81528670  0.66065351  0.30181806  1  0.094069  0  0.103425  0.10691  0  1.020241  0
H  H7  1  0.68471214  0.16065492  0.19818099  1  0.094093  0  0.103409  0.106882  0  1.020203  0
H  H8  1  0.39504195  0.27422965  0.78083870  1  0.083926  0  0.100662  0.100477  0  1.024002  0
H  H9  1  0.10496028  0.77422881  0.71916178  1  0.083938  0  0.10067  0.100489  0  1.023956  0
H  H10  1  0.60496081  0.72577119  0.21916048  1  0.083916  0  0.100656  0.100487  0  1.023935  0
H  H11  1  0.89504029  0.22577016  0.28083771  1  0.08398  0  0.100679  0.100528  0  1.023913  0
H  H12  1  0.61878966  0.24754034  0.60481687  1  0.053667  0  0.10206  0.103083  0  1.009595  0
H  H13  1  0.88121090  0.74753828  0.89518350  1  0.053641  0  0.102033  0.103076  0  1.009618  0
H  H14  1  0.38121092  0.75246112  0.39518210  1  0.053773  0  0.10205  0.103089  0  1.009595  0
H  H15  1  0.11878967  0.25245945  0.10481705  1  0.053669  0  0.102058  0.10308  0  1.009601  0
H  H16  1  0.40861040  0.31253930  0.52425224  1  0.093402  0  0.102757  0.103461  0  1.033904  0
H  H17  1  0.09138752  0.81253831  0.97574833  1  0.093391  0  0.102781  0.103467  0  1.033924  0
H  H18  1  0.59138910  0.68746215  0.47574610  1  0.093458  0  0.102774  0.103489  0  1.033892  0
H  H19  1  0.90861087  0.18746128  0.02425252  1  0.093404  0  0.10277  0.103458  0  1.033933  0
H  H20  1  0.62744757  0.20673823  0.80121912  1  0.062829  0  0.104228  0.107402  0  1.001763  0
H  H21  1  0.87255403  0.70673628  0.69878137  1  0.062823  0  0.104258  0.107394  0  1.00176  0
H  H22  1  0.37255085  0.79326198  0.19877912  1  0.062796  0  0.104282  0.107454  0  1.001798  0
H  H23  1  0.12744762  0.29326082  0.30121980  1  0.062827  0  0.104252  0.107423  0  1.001741  0
H  H24  1  0.80934092  0.25379268  0.68898091  1  0.057424  0  0.102718  0.103117  0  1.003445  0
H  H25  1  0.69065965  0.75379183  0.81101893  1  0.057416  0  0.102719  0.103119  0  1.003453  0
H  H26  1  0.19066183  0.74620691  0.31101932  1  0.057408  0  0.1027  0.103112  0  1.00346  0
H  H27  1  0.30933984  0.24620651  0.18897994  1  0.057394  0  0.102726  0.103116  0  1.003405  0
H  H28  1  0.81823834  0.18902798  0.88292392  1  0.066715  0  0.103317  0.108306  0  1.004331  0
H  H29  1  0.68175998  0.68902848  0.61707573  1  0.066729  0  0.103254  0.10823  0  1.004372  0
H  H30  1  0.18175896  0.81097161  0.11707683  1  0.066621  0  0.103254  0.108253  0  1.004359  0
H  H31  1  0.31824060  0.31096987  0.38292376  1  0.066726  0  0.103264  0.108282  0  1.00445  0
H  H32  1  0.03863990  0.12915734  0.95872394  1  0.084856  0  0.102759  0.103611  0  1.027398  0
H  H33  1  0.46135890  0.62915863  0.54127575  1  0.084845  0  0.102773  0.103595  0  1.027446  0
H  H34  1  0.96135957  0.87084474  0.04127754  1  0.084883  0  0.102727  0.103576  0  1.027411  0
H  H35  1  0.53864168  0.37084096  0.45872322  1  0.084889  0  0.102747  0.103589  0  1.027469  0
H  H36  1  0.26669418  0.14225258  0.78504784  1  0.08173  0  0.100856  0.099477  0  1.030481  0
H  H37  1  0.23330572  0.64225181  0.71495248  1  0.08172  0  0.100837  0.099459  0  1.030487  0
H  H38  1  0.73330420  0.85774887  0.21495406  1  0.081655  0  0.100871  0.09949  0  1.030462  0
H  H39  1  0.76669269  0.35774840  0.28504576  1  0.081706  0  0.100853  0.099465  0  1.030519  0
H  H40  1  0.04647923  0.20206147  0.70710737  1  0.052136  0  0.100943  0.102123  0  1.012843  0
H  H41  1  0.45352074  0.70206012  0.79289293  1  0.052132  0  0.100943  0.102114  0  1.012851  0
H  H42  1  0.95352024  0.79793812  0.29289411  1  0.052097  0  0.10092  0.102093  0  1.012869  0
H  H43  1  0.54647875  0.29793822  0.20710646  1  0.05208  0  0.100916  0.102091  0  1.012875  0
H  H44  1  0.37856109  0.53903225  0.42352998  1  0.118348  0  0.120121  0.095351  0  0.989613  0
H  H45  1  0.12143595  0.03903370  0.07647152  1  0.118391  0  0.120117  0.095395  0  0.989564  0
H  H46  1  0.62143620  0.46096672  0.57647076  1  0.118388  0  0.120139  0.095385  0  0.989547  0
H  H47  1  0.87856135  0.96096526  0.92352818  1  0.118388  0  0.120129  0.095383  0  0.989619  0
H  H48  1  0.50975882  0.55169981  0.32193267  1  0.076144  0  0.105274  0.113426  0  1.021033  0
H  H49  1  0.99023986  0.05169951  0.17806955  1  0.076157  0  0.105291  0.113415  0  1.021059  0
H  H50  1  0.49024282  0.44829915  0.67806903  1  0.076181  0  0.105296  0.11344  0  1.021051  0
H  H51  1  0.00975636  0.94830008  0.82193056  1  0.076198  0  0.105288  0.113451  0  1.021027  0
H  H52  1  0.10651762  0.48337727  0.18116332  1  0.094933  0  0.103308  0.109094  0  1.049565  0
H  H53  1  0.39348214  0.98337589  0.31883617  1  0.094932  0  0.103305  0.109077  0  1.049572  0
H  H54  1  0.89348295  0.51662480  0.81883618  1  0.094894  0  0.103287  0.109084  0  1.049532  0
H  H55  1  0.60651516  0.01662433  0.68116353  1  0.094911  0  0.103291  0.109104  0  1.049517  0
H  H56  1  0.99464543  0.47294881  0.28822908  1  0.124851  0  0.117526  0.09256  0  1.008562  0
H  H57  1  0.50535377  0.97294793  0.21177040  1  0.124859  0  0.117528  0.092547  0  1.008571  0
H  H58  1  0.00535298  0.52705451  0.71176968  1  0.124827  0  0.117522  0.092555  0  1.008569  0
H  H59  1  0.49464462  0.02705166  0.78822993  1  0.124827  0  0.117513  0.092508  0  1.008578  0
H  H60  1  0.50233452  0.55441547  0.19471272  1  0.071767  0  0.102103  0.104912  0  1.014987  0
H  H61  1  0.99766851  0.05441447  0.30529045  1  0.071753  0  0.102065  0.104834  0  1.014974  0
H  H62  1  0.49766822  0.44558598  0.80528856  1  0.071753  0  0.102066  0.104824  0  1.014975  0
H  H63  1  0.00233095  0.94558574  0.69471103  1  0.071768  0  0.102073  0.104835  0  1.014948  0
H  H64  1  0.24429371  0.45834253  0.10719292  1  0.106671  0  0.103458  0.098064  0  1.022433  0
H  H65  1  0.25571144  0.95834290  0.39280973  1  0.106622  0  0.103463  0.098067  0  1.022515  0
H  H66  1  0.75571011  0.54165707  0.89280899  1  0.10664  0  0.103457  0.098062  0  1.022507  0
H  H67  1  0.74428912  0.04165731  0.60719134  1  0.106622  0  0.103444  0.098025  0  1.022548  0
H  H68  1  0.61460969  0.34767261  0.89025325  1  0.071816  0  0.093858  0.092154  0  1.044001  0
H  H69  1  0.88538880  0.84767321  0.60974740  1  0.072071  0  0.093843  0.092141  0  1.044005  0
H  H70  1  0.38539196  0.65232573  0.10974793  1  0.072065  0  0.09388  0.092195  0  1.044019  0
H  H71  1  0.11460959  0.15232700  0.39025241  1  0.072071  0  0.093867  0.092161  0  1.044016  0
H  H72  1  0.52109487  0.21565391  0.92900282  1  0.056156  0  0.096178  0.103262  0  1.036738  0
H  H73  1  0.97890129  0.71565394  0.57099766  1  0.056158  0  0.096184  0.103292  0  1.036728  0
H  H74  1  0.47890460  0.78434506  0.07099762  1  0.056186  0  0.096167  0.103239  0  1.036684  0
H  H75  1  0.02109493  0.28434565  0.42900194  1  0.056167  0  0.096178  0.103267  0  1.036733  0
H  H76  1  0.37911534  0.21427302  0.02650234  1  0.087844  0  0.098503  0.10699  0  1.021201  0
H  H77  1  0.12088626  0.71427329  0.47349954  1  0.087856  0  0.098481  0.107045  0  1.021202  0
H  H78  1  0.62088413  0.78572657  0.97349809  1  0.087876  0  0.0985  0.107006  0  1.021213  0
H  H79  1  0.87911647  0.28572693  0.52650174  1  0.087851  0  0.098512  0.107034  0  1.021198  0
H  H80  1  0.33743913  0.34457180  0.08714756  1  0.050643  0  0.093679  0.085542  0  1.053658  0
H  H81  1  0.16256915  0.84457212  0.41285544  1  0.050626  0  0.093681  0.085516  0  1.053688  0
H  H82  1  0.66256361  0.65542779  0.91285320  1  0.050627  0  0.093714  0.08561  0  1.053639  0
H  H83  1  0.83743793  0.15542809  0.58714678  1  0.050652  0  0.093686  0.085539  0  1.053654  0
H  H84  1  0.19205252  0.63225075  0.90419052  1  0.087494  0  0.098468  0.104864  0  1.017406  0
H  H85  1  0.30794957  0.13225041  0.59580792  1  0.087502  0  0.098477  0.104862  0  1.017442  0
H  H86  1  0.80794590  0.36774946  0.09580772  1  0.087507  0  0.098469  0.104884  0  1.017336  0
H  H87  1  0.69205210  0.86774918  0.40419168  1  0.087499  0  0.098464  0.10486  0  1.017367  0
H  H88  1  0.27927909  0.53925712  0.81834108  1  0.065518  0  0.097501  0.095643  0  1.013782  0
H  H89  1  0.22072289  0.03925669  0.68165687  1  0.065559  0  0.097502  0.095649  0  1.013839  0
H  H90  1  0.72071606  0.46074309  0.18165632  1  0.065523  0  0.097511  0.095654  0  1.013804  0
H  H91  1  0.77928856  0.96074290  0.31834422  1  0.065491  0  0.0975  0.095631  0  1.013796  0
H  H92  1  0.22052561  0.38760131  0.81546832  1  0.047941  0  0.095589  0.091516  0  1.025836  0
H  H93  1  0.27947241  0.88760243  0.68453066  1  0.047945  0  0.095576  0.091521  0  1.025818  0
H  H94  1  0.77946843  0.61239891  0.18453106  1  0.047923  0  0.095589  0.091506  0  1.025831  0
H  H95  1  0.72053579  0.11239778  0.31546906  1  0.047686  0  0.095606  0.091566  0  1.025838  0
H  H96  1  0.07570975  0.32856619  0.89845217  1  0.072208  0  0.095565  0.097959  0  1.03459  0
H  H97  1  0.42428820  0.82856494  0.60154735  1  0.072155  0  0.095619  0.098086  0  1.034634  0
H  H98  1  0.92428864  0.67143402  0.10154816  1  0.072217  0  0.095522  0.097898  0  1.034554  0
H  H99  1  0.57571457  0.17143403  0.39845027  1  0.072226  0  0.095522  0.097874  0  1.034543  0
H  H100  1  0.94143336  0.34838186  0.99709692  1  0.048021  0  0.099286  0.106097  0  1.018479  0
H  H101  1  0.55856624  0.84838051  0.50290227  1  0.048151  0  0.099301  0.106132  0  1.01839  0
H  H102  1  0.05856612  0.65161835  0.00290299  1  0.048022  0  0.099288  0.106109  0  1.018469  0
H  H103  1  0.44143544  0.15161846  0.49709629  1  0.048019  0  0.099314  0.10616  0  1.018442  0
C  C104  1  0.16891693  0.38068397  0.56013105  1  1.577026  0  0.209516  0.580401  0  4.194201  0
C  C105  1  0.33107997  0.88068434  0.93987044  1  1.577033  0  0.209469  0.580334  0  4.194204  0
C  C106  1  0.83108148  0.61931563  0.43986718  1  1.577014  0  0.2096  0.58047  0  4.19396  0
C  C107  1  0.66891515  0.11931587  0.06013010  1  1.577064  0  0.209478  0.58037  0  4.194205  0
C  C108  1  0.28574670  0.33160640  0.60672844  1  -0.045834  0  -0.020532  -0.040373  0  3.974761  0
C  C109  1  0.21425125  0.83160613  0.89327160  1  -0.046012  0  -0.020496  -0.040382  0  3.974644  0
C  C110  1  0.71425170  0.66839506  0.39327084  1  -0.046015  0  -0.02054  -0.040328  0  3.97472  0
C  C111  1  0.78574714  0.16839408  0.10672873  1  -0.046036  0  -0.020538  -0.040364  0  3.974744  0
C  C112  1  0.28070280  0.31860011  0.67877400  1  -0.094976  0  -0.08592  -0.096179  0  3.99267  0
C  C113  1  0.21929839  0.81859927  0.82122689  1  -0.094987  0  -0.085913  -0.096158  0  3.992745  0
C  C114  1  0.71930104  0.68139948  0.32122529  1  -0.094939  0  -0.085926  -0.096243  0  3.992623  0
C  C115  1  0.78069892  0.18139908  0.17877334  1  -0.094973  0  -0.0859  -0.096147  0  3.992722  0
C  C116  1  0.39790027  0.28235228  0.72438405  1  0.035282  0  -0.090833  -0.143637  0  3.971183  0
C  C117  1  0.10210196  0.78235079  0.77561696  1  0.035278  0  -0.090835  -0.143625  0  3.971236  0
C  C118  1  0.60209921  0.71764979  0.27561639  1  0.035229  0  -0.090807  -0.143615  0  3.971075  0
C  C119  1  0.89789863  0.21764818  0.22438097  1  0.03525  0  -0.090865  -0.143748  0  3.971255  0
C  C120  1  0.52445900  0.25920832  0.69958187  1  -0.101868  0  -0.007188  0.115233  0  4.043615  0
C  C121  1  0.97554267  0.75920574  0.80041808  1  -0.101841  0  -0.007228  0.115212  0  4.043403  0
C  C122  1  0.47554377  0.74079313  0.30041679  1  -0.101572  0  -0.007221  0.115299  0  4.043452  0
C  C123  1  0.02445790  0.24079199  0.19958247  1  -0.10157  0  -0.007214  0.115226  0  4.0437  0
C  C124  1  0.52508455  0.26837333  0.62618255  1  0.009764  0  -0.087051  -0.134216  0  3.968827  0
C  C125  1  0.97491603  0.76837008  0.87381886  1  0.009749  0  -0.087041  -0.134244  0  3.968604  0
C  C126  1  0.47491605  0.73162875  0.37381538  1  0.00937  0  -0.087085  -0.1343  0  3.96885  0
C  C127  1  0.02508452  0.23162765  0.12618326  1  0.009443  0  -0.087016  -0.134152  0  3.968766  0
C  C128  1  0.40764726  0.30403689  0.58069559  1  -0.09825  0  -0.084488  -0.09783  0  3.999241  0
C  C129  1  0.09235175  0.80403531  0.91930456  1  -0.098068  0  -0.084471  -0.097766  0  3.99915  0
C  C130  1  0.59235442  0.69596519  0.41930349  1  -0.098069  0  -0.084484  -0.097861  0  3.999254  0
C  C131  1  0.90764556  0.19596366  0.08069514  1  -0.098047  0  -0.08448  -0.097831  0  3.99918  0
C  C132  1  0.64990543  0.22928306  0.75043085  1  -0.02758  0  -0.089127  -0.130088  0  3.987919  0
C  C133  1  0.85009619  0.72928107  0.74956963  1  -0.027592  0  -0.089169  -0.130144  0  3.987963  0
C  C134  1  0.35009406  0.77071778  0.24956801  1  -0.027584  0  -0.089149  -0.1302  0  3.987868  0
C  C135  1  0.14990437  0.27071666  0.25043144  1  -0.027589  0  -0.089178  -0.130153  0  3.987878  0
C  C136  1  0.78820987  0.22962992  0.73953683  1  -0.077076  0  -0.08725  -0.124945  0  3.985643  0
C  C137  1  0.71179066  0.72962849  0.76046354  1  -0.076984  0  -0.087238  -0.124908  0  3.985607  0
C  C138  1  0.21178961  0.77037091  0.26046308  1  -0.077069  0  -0.087222  -0.12486  0  3.985694  0
C  C139  1  0.28820990  0.27037048  0.23953700  1  -0.077046  0  -0.087243  -0.124922  0  3.985632  0
C  C140  1  0.91567131  0.19914214  0.78862590  1  0.037794  0  -0.007813  0.115655  0  4.0367  0
C  C141  1  0.58432920  0.69914130  0.71137396  1  0.037731  0  -0.007815  0.115655  0  4.036738  0
C  C142  1  0.08432816  0.80085807  0.21137506  1  0.037779  0  -0.007763  0.115683  0  4.036746  0
C  C143  1  0.41567139  0.30085642  0.28862502  1  0.03776  0  -0.007761  0.115726  0  4.036806  0
C  C144  1  0.91567398  0.17939125  0.86060485  1  0.007142  0  -0.087334  -0.131411  0  3.952042  0
C  C145  1  0.58432432  0.67939108  0.63939480  1  0.007098  0  -0.087306  -0.131378  0  3.952195  0
C  C146  1  0.08432440  0.82061021  0.13939652  1  0.007319  0  -0.087293  -0.131424  0  3.95212  0
C  C147  1  0.41567408  0.32060727  0.36060448  1  0.006954  0  -0.087289  -0.131428  0  3.952126  0
C  C148  1  0.03886279  0.14616712  0.90358426  1  -0.073733  0  -0.085279  -0.097277  0  4.001097  0
C  C149  1  0.46113603  0.64616776  0.59641595  1  -0.073697  0  -0.085258  -0.097165  0  4.001207  0
C  C150  1  0.96113450  0.85383558  0.09641701  1  -0.073357  0  -0.085273  -0.097174  0  4.001119  0
C  C151  1  0.53886673  0.35383246  0.40358376  1  -0.073506  0  -0.085276  -0.097196  0  4.001239  0
C  C152  1  0.16586509  0.13175429  0.87669927  1  -0.10949  0  -0.020409  -0.039823  0  3.972417  0
C  C153  1  0.33413480  0.63175486  0.62330105  1  -0.109508  0  -0.020422  -0.039986  0  3.972486  0
C  C154  1  0.83413547  0.86824716  0.12330232  1  -0.109832  0  -0.020392  -0.039925  0  3.972471  0
C  C155  1  0.66586359  0.36824473  0.37669876  1  -0.109499  0  -0.020423  -0.039989  0  3.972639  0
C  C156  1  0.16796382  0.15305040  0.80580279  1  -0.031266  0  -0.085216  -0.09041  0  3.989831  0
C  C157  1  0.33203718  0.65304967  0.69419710  1  -0.031245  0  -0.085201  -0.09035  0  3.989839  0
C  C158  1  0.83203455  0.84695168  0.19419963  1  -0.031281  0  -0.085285  -0.090458  0  3.989818  0
C  C159  1  0.66796340  0.34694992  0.30580135  1  -0.031277  0  -0.085243  -0.090404  0  3.989833  0
C  C160  1  0.04498453  0.18667273  0.76263187  1  -0.036373  0  -0.087743  -0.131235  0  3.952226  0
C  C161  1  0.45501542  0.68667204  0.73736843  1  -0.03639  0  -0.087736  -0.131235  0  3.952231  0
C  C162  1  0.95501494  0.81332810  0.23736909  1  -0.036361  0  -0.087707  -0.131187  0  3.952261  0
C  C163  1  0.54498407  0.31332631  0.26263096  1  -0.036332  0  -0.087716  -0.131192  0  3.952254  0
C  C164  1  0.29448167  0.09099700  0.92243465  1  1.580074  0  0.213446  0.583047  0  4.182363  0
C  C165  1  0.20551490  0.59099816  0.57756536  1  1.579843  0  0.213472  0.583104  0  4.182106  0
C  C166  1  0.70551562  0.90900383  0.07756661  1  1.580094  0  0.213468  0.583118  0  4.1823  0
C  C167  1  0.79448459  0.40900205  0.42243351  1  1.580094  0  0.213463  0.583106  0  4.182239  0
C  C168  1  0.32387818  0.52696331  0.36872598  1  0.452823  0  0.048861  0.098847  0  3.940947  0
C  C169  1  0.17611886  0.02696414  0.13127501  1  0.45284  0  0.048827  0.098793  0  3.940915  0
C  C170  1  0.67612021  0.47303752  0.63127435  1  0.452732  0  0.048816  0.098833  0  3.940807  0
C  C171  1  0.82387735  0.97303483  0.86872511  1  0.452733  0  0.048871  0.098828  0  3.940902  0
C  C172  1  0.39536730  0.53408524  0.31203964  1  0.049572  0  -0.081585  -0.173966  0  3.939877  0
C  C173  1  0.10463192  0.03408476  0.18796261  1  0.049603  0  -0.081629  -0.174027  0  3.940035  0
C  C174  1  0.60463325  0.46591559  0.68796247  1  0.049621  0  -0.081598  -0.173997  0  3.939925  0
C  C175  1  0.89536539  0.96591483  0.81203762  1  0.049607  0  -0.081597  -0.173999  0  3.939925  0
C  C176  1  0.32034276  0.51769021  0.24225678  1  -0.059159  0  0.009871  0.157518  0  4.016069  0
C  C177  1  0.17965863  0.01768972  0.25774411  1  -0.059155  0  0.009902  0.157525  0  4.016128  0
C  C178  1  0.67965890  0.48231187  0.75774387  1  -0.059166  0  0.009851  0.157488  0  4.016107  0
C  C179  1  0.82033976  0.98230987  0.74225569  1  -0.059147  0  0.009893  0.157523  0  4.016194  0
C  C180  1  0.17264357  0.49531071  0.23363167  1  -0.10051  0  -0.082012  -0.171726  0  3.93442  0
C  C181  1  0.32735729  0.99531057  0.26636897  1  -0.100513  0  -0.082044  -0.171748  0  3.93435  0
C  C182  1  0.82735699  0.50469137  0.76636939  1  -0.100478  0  -0.081993  -0.171766  0  3.934244  0
C  C183  1  0.67264002  0.00468902  0.73363073  1  -0.100528  0  -0.082035  -0.171829  0  3.934358  0
C  C184  1  0.10874782  0.48976631  0.29277820  1  0.532323  0  0.044312  0.090142  0  3.948912  0
C  C185  1  0.39125087  0.98976623  0.20722118  1  0.532334  0  0.044363  0.090209  0  3.948787  0
C  C186  1  0.89125169  0.51023638  0.70722014  1  0.532381  0  0.044325  0.090202  0  3.948639  0
C  C187  1  0.60874644  0.01023336  0.79277852  1  0.532314  0  0.044361  0.090281  0  3.948724  0
C  C188  1  0.39572843  0.52443423  0.18292740  1  0.017903  0  -0.090551  -0.147489  0  3.97942  0
C  C189  1  0.10427512  0.02443243  0.31707579  1  0.017951  0  -0.090526  -0.147375  0  3.979225  0
C  C190  1  0.60427430  0.47556784  0.81707492  1  0.017949  0  -0.090497  -0.147326  0  3.979192  0
C  C191  1  0.89572326  0.97556654  0.68292558  1  0.017927  0  -0.090512  -0.14735  0  3.979306  0
C  C192  1  0.34635637  0.49331804  0.11699299  1  -0.11247  0  -0.0725  -0.08458  0  3.968459  0
C  C193  1  0.15364665  0.99331838  0.38300891  1  -0.112325  0  -0.072503  -0.084589  0  3.968561  0
C  C194  1  0.65364527  0.50668155  0.88300870  1  -0.112481  0  -0.072545  -0.084669  0  3.968575  0
C  C195  1  0.84635174  0.00668121  0.61699142  1  -0.112255  0  -0.072526  -0.084593  0  3.96852  0
C  C196  1  0.42344349  0.49825704  0.05774223  1  -0.03775  0  -0.002433  0.015808  0  3.959538  0
C  C197  1  0.07656172  0.99825793  0.44225884  1  -0.037888  0  -0.002437  0.015793  0  3.959556  0
C  C198  1  0.57656034  0.50174193  0.94225863  1  -0.037723  0  -0.002414  0.01585  0  3.959521  0
C  C199  1  0.92344213  0.00174291  0.55774046  1  -0.037982  0  -0.002445  0.015762  0  3.95964  0
C  C200  1  0.44372096  0.42396815  0.02092220  1  -0.006643  0  -0.004673  0.032697  0  3.971838  0
C  C201  1  0.05628415  0.92396776  0.47908098  1  -0.006995  0  -0.004635  0.032729  0  3.971786  0
C  C202  1  0.55628177  0.57603144  0.97907960  1  -0.007017  0  -0.004615  0.032787  0  3.971801  0
C  C203  1  0.94371857  0.07603058  0.52092187  1  -0.006711  0  -0.004652  0.032702  0  3.971792  0
C  C204  1  0.52198153  0.42523340  0.96301340  1  0.00734  0  -0.000858  0.037625  0  3.970282  0
C  C205  1  0.97802141  0.92523470  0.53698817  1  0.00752  0  -0.000907  0.037623  0  3.970316  0
C  C206  1  0.47802230  0.57476433  0.03698746  1  0.007503  0  -0.000925  0.037599  0  3.970284  0
C  C207  1  0.02198025  0.07476676  0.46301248  1  0.007363  0  -0.000897  0.037667  0  3.970187  0
C  C208  1  0.54902023  0.34786900  0.93143168  1  -0.077968  0  -0.096676  -0.136392  0  3.993077  0
C  C209  1  0.95098262  0.84786779  0.56856940  1  -0.078224  0  -0.096673  -0.136399  0  3.993117  0
C  C210  1  0.45098251  0.65213183  0.06856960  1  -0.078217  0  -0.096716  -0.136496  0  3.993079  0
C  C211  1  0.04902013  0.15213118  0.43143084  1  -0.078268  0  -0.096684  -0.136432  0  3.993068  0
C  C212  1  0.49766507  0.27414073  0.95312280  1  -0.000524  0  -0.099171  -0.083995  0  4.006998  0
C  C213  1  0.00233715  0.77414244  0.54687873  1  -0.000542  0  -0.099209  -0.084065  0  4.007206  0
C  C214  1  0.50233767  0.72585699  0.04687796  1  -0.000533  0  -0.099169  -0.083946  0  4.006999  0
C  C215  1  0.99766234  0.22585839  0.45312118  1  -0.000525  0  -0.099204  -0.084033  0  4.007072  0
C  C216  1  0.41758878  0.27317632  0.00899303  1  -0.054019  0  -0.096251  -0.075615  0  4.000851  0
C  C217  1  0.08241507  0.77317656  0.49100905  1  -0.053991  0  -0.09619  -0.075664  0  4.000979  0
C  C218  1  0.58241178  0.72682327  0.99100804  1  -0.054019  0  -0.096234  -0.075609  0  4.000932  0
C  C219  1  0.91758658  0.22682427  0.50899160  1  -0.054013  0  -0.096247  -0.075682  0  4.000921  0
C  C220  1  0.39383967  0.34602380  0.04237915  1  -0.067733  0  -0.097201  -0.136518  0  4.002956  0
C  C221  1  0.10616644  0.84602469  0.45762259  1  -0.067576  0  -0.097219  -0.136473  0  4.003019  0
C  C222  1  0.60616307  0.65397517  0.95762108  1  -0.067559  0  -0.097244  -0.136643  0  4.003056  0
C  C223  1  0.89383848  0.15397552  0.54237786  1  -0.067665  0  -0.09716  -0.136419  0  4.0029  0
C  C224  1  0.08208683  0.53440199  0.95165676  1  -0.04853  0  -0.0131  0.063101  0  4.02268  0
C  C225  1  0.41791622  0.03440235  0.54834286  1  -0.048447  0  -0.013103  0.063164  0  4.022649  0
C  C226  1  0.91791374  0.46559698  0.04834326  1  -0.048478  0  -0.013121  0.063088  0  4.022621  0
C  C227  1  0.58208219  0.96559600  0.45165590  1  -0.04842  0  -0.013095  0.063156  0  4.022544  0
C  C228  1  0.16578642  0.56614538  0.90253701  1  -0.053766  0  -0.09138  -0.132183  0  3.974965  0
C  C229  1  0.33421559  0.06614567  0.59746197  1  -0.053533  0  -0.091382  -0.132178  0  3.975004  0
C  C230  1  0.83421198  0.43385608  0.09746227  1  -0.05346  0  -0.091359  -0.132173  0  3.974894  0
C  C231  1  0.66578827  0.93385579  0.40253680  1  -0.053709  0  -0.091374  -0.132173  0  3.97498  0
C  C232  1  0.21385235  0.51433542  0.85485324  1  -0.09827  0  -0.095239  -0.087427  0  4.028541  0
C  C233  1  0.28614742  0.01433566  0.64514607  1  -0.098495  0  -0.095229  -0.087429  0  4.02853  0
C  C234  1  0.78614389  0.48566479  0.14514479  1  -0.098609  0  -0.095289  -0.087521  0  4.028572  0
C  C235  1  0.71385750  0.98566268  0.35485490  1  -0.098379  0  -0.09529  -0.087457  0  4.02857  0
C  C236  1  0.18069952  0.42790795  0.85332596  1  -0.042533  0  -0.095024  -0.08592  0  4.027055  0
C  C237  1  0.31930072  0.92790788  0.64667374  1  -0.042505  0  -0.095006  -0.085891  0  4.02704  0
C  C238  1  0.81929671  0.57209226  0.14667258  1  -0.042518  0  -0.094963  -0.085775  0  4.02701  0
C  C239  1  0.68070529  0.07209296  0.35332629  1  -0.042318  0  -0.094999  -0.085981  0  4.027035  0
C  C240  1  0.10027943  0.39488041  0.89944967  1  -0.011158  0  -0.090854  -0.125605  0  3.970496  0
C  C241  1  0.39972295  0.89487667  0.60055025  1  -0.011171  0  -0.090893  -0.125773  0  3.970639  0
C  C242  1  0.89971788  0.60511918  0.10055003  1  -0.011168  0  -0.0909  -0.125704  0  3.97054  0
C  C243  1  0.60028417  0.10511919  0.39944884  1  -0.011158  0  -0.090814  -0.125487  0  3.97047  0
C  C244  1  0.04856450  0.44644298  0.95005406  1  0.010884  0  -0.011953  0.06645  0  4.019026  0
C  C245  1  0.45143793  0.94644116  0.54994585  1  0.010902  0  -0.011978  0.066431  0  4.019031  0
C  C246  1  0.95143606  0.55355785  0.04994648  1  0.010934  0  -0.01192  0.066521  0  4.019001  0
C  C247  1  0.54856266  0.05355843  0.45005208  1  0.010942  0  -0.011965  0.066495  0  4.018999  0
C  C248  1  0.96744440  0.41459352  0.99846216  1  -0.073667  0  -0.088959  -0.182358  0  3.933721  0
C  C249  1  0.53255093  0.91459341  0.50153605  1  -0.073884  0  -0.088981  -0.182432  0  3.933757  0
C  C250  1  0.03255617  0.58540607  0.00153786  1  -0.073679  0  -0.088967  -0.182388  0  3.93378  0
C  C251  1  0.46744531  0.08540680  0.49846145  1  -0.073695  0  -0.089013  -0.182557  0  3.933868  0
N  N252  1  0.18275543  0.50502575  0.35955222  1  -1.279156  0  -0.338956  -0.225406  0  3.553769  0
N  N253  1  0.31724159  0.00502663  0.14044773  1  -1.279232  0  -0.338912  -0.225344  0  3.553728  0
N  N254  1  0.81724188  0.49497571  0.64044748  1  -1.279167  0  -0.338926  -0.225398  0  3.553702  0
N  N255  1  0.68275571  0.99497234  0.85955249  1  -1.279109  0  -0.338962  -0.22539  0  3.553697  0
O  O256  1  0.06307050  0.40471615  0.58795838  1  -1.173586  0  -0.317522  -0.553639  0  2.3459  0
O  O257  1  0.43692970  0.90471286  0.91204342  1  -1.173504  0  -0.31748  -0.553612  0  2.345933  0
O  O258  1  0.93692681  0.59528469  0.41204132  1  -1.173582  0  -0.317505  -0.553654  0  2.346031  0
O  O259  1  0.56306868  0.09528549  0.08795795  1  -1.173608  0  -0.317533  -0.553675  0  2.345912  0
O  O260  1  0.18709420  0.39779258  0.49725413  1  -1.169937  0  -0.31819  -0.547587  0  2.32633  0
O  O261  1  0.31290110  0.89779445  0.00274601  1  -1.170026  0  -0.318239  -0.547589  0  2.326287  0
O  O262  1  0.81289985  0.60220577  0.50274472  1  -1.169894  0  -0.31831  -0.547707  0  2.326099  0
O  O263  1  0.68709402  0.10220700  0.99725400  1  -1.169932  0  -0.318183  -0.547573  0  2.326356  0
O  O264  1  0.28214818  0.07094092  0.98555541  1  -1.180684  0  -0.314927  -0.554008  0  2.349221  0
O  O265  1  0.21784945  0.57094026  0.51444524  1  -1.180661  0  -0.314877  -0.553958  0  2.349098  0
O  O266  1  0.71785238  0.92906053  0.01444566  1  -1.180636  0  -0.314883  -0.55402  0  2.349211  0
O  O267  1  0.78215003  0.42905871  0.48555520  1  -1.180624  0  -0.314872  -0.553937  0  2.34913  0
O  O268  1  0.40608862  0.07823629  0.89489849  1  -1.17242  0  -0.315195  -0.551079  0  2.338677  0
O  O269  1  0.09390794  0.57824049  0.60510100  1  -1.172176  0  -0.315257  -0.551086  0  2.338601  0
O  O270  1  0.59390869  0.92176205  0.10510068  1  -1.172476  0  -0.315235  -0.551059  0  2.338674  0
O  O271  1  0.90608937  0.42176220  0.39489818  1  -1.172476  0  -0.315239  -0.551094  0  2.338671  0
