# generated using pymatgen
data_Cd3H12C14(NO6)2
_symmetry_space_group_name_H-M   'P 1'
_cell_length_a   6.70481532
_cell_length_b   10.68456183
_cell_length_c   13.09290201
_cell_angle_alpha   102.52181658
_cell_angle_beta   90.02154611
_cell_angle_gamma   108.27739313
_symmetry_Int_Tables_number   1
_chemical_formula_structural   Cd3H12C14(NO6)2
_chemical_formula_sum   'Cd6 H24 C28 N4 O24'
_cell_volume   867.07605690
_cell_formula_units_Z   2
loop_
 _symmetry_equiv_pos_site_id
 _symmetry_equiv_pos_as_xyz
  1  'x, y, z'
loop_
 _atom_site_type_symbol
 _atom_site_label
 _atom_site_symmetry_multiplicity
 _atom_site_fract_x
 _atom_site_fract_y
 _atom_site_fract_z
 _atom_site_occupancy
 _atom_site_hle17_bader_spin_density
 _atom_site_hle17_ddec_charge
 _atom_site_hle17_ddec_spin_density
 _atom_site_hle17_ddec_sum_bond_order
 _atom_site_hle17_magmom
 _atom_site_hse06_10hf_bader_spin_density
 _atom_site_hse06_10hf_ddec_charge
 _atom_site_hse06_10hf_ddec_spin_density
 _atom_site_hse06_10hf_ddec_sum_bond_order
 _atom_site_hse06_10hf_magmom
 _atom_site_hse06_bader_spin_density
 _atom_site_hse06_ddec_charge
 _atom_site_hse06_ddec_spin_density
 _atom_site_hse06_ddec_sum_bond_order
 _atom_site_hse06_magmom
 _atom_site_pbe_bader_spin_density
 _atom_site_pbe_cm5_charge
 _atom_site_pbe_ddec_charge
 _atom_site_pbe_ddec_spin_density
 _atom_site_pbe_ddec_sum_bond_order
 _atom_site_pbe_magmom
Cd  Cd0  1  0.33708368  0.83808304  0.95298650  1  0  1.26175  0  1.60747  0  0  1.087683  0  2.040768  0  0  1.143371  0  1.985562  0  0  0.763424  1.047287  0  2.079158  0
Cd  Cd1  1  0.49917351  0.16201445  0.54698090  1  0  1.262516  0  1.605916  0  0  1.088608  0  2.039356  0  0  1.144182  0  1.98417  0  0  0.763185  1.047154  0  2.078408  0
Cd  Cd2  1  0.66292006  0.16191784  0.04701385  1  0  1.261762  0  1.60744  0  0  1.087686  0  2.040773  0  0  1.143374  0  1.985567  0  0  0.76344  1.047286  0  2.079162  0
Cd  Cd3  1  0.50082624  0.83798441  0.45301909  1  0  1.262557  0  1.60586  0  0  1.088632  0  2.03933  0  0  1.144205  0  1.984145  0  0  0.76321  1.04718  0  2.078383  0
Cd  Cd4  1  0.64389744  0.00022803  0.75006163  1  0  1.284873  0  1.618906  0  0  1.110018  0  2.067872  0  0  1.169825  0  2.006128  0  0  0.736553  1.066233  0  2.111046  0
Cd  Cd5  1  0.35610281  0.99977184  0.24993777  1  0  1.28485  0  1.618891  0  0  1.109985  0  2.067853  0  0  1.169792  0  2.00611  0  0  0.736537  1.066199  0  2.111026  0
H  H6  1  0.74600583  0.47514464  0.83402036  1  0  0.113779  0  0.943947  0  0  0.124734  0  1.002824  0  0  0.127523  0  1.002756  0  0  0.10987  0.122517  0  1.003393  0
H  H7  1  0.27148211  0.52511068  0.66583384  1  0  0.113453  0  0.944467  0  0  0.12427  0  1.003695  0  0  0.126949  0  1.003793  0  0  0.109761  0.122091  0  1.004068  0
H  H8  1  0.25400139  0.52485726  0.16597940  1  0  0.11378  0  0.944049  0  0  0.124642  0  1.003052  0  0  0.127425  0  1.00298  0  0  0.109858  0.12243  0  1.003608  0
H  H9  1  0.72851218  0.47488920  0.33416786  1  0  0.113498  0  0.944453  0  0  0.124314  0  1.003687  0  0  0.126993  0  1.003786  0  0  0.109804  0.122134  0  1.004061  0
H  H10  1  0.06237910  0.53051809  0.91839949  1  0  0.084322  0  0.967616  0  0  0.089951  0  1.039192  0  0  0.093406  0  1.03536  0  0  0.115258  0.08727  0  1.042189  0
H  H11  1  0.53225107  0.46967935  0.58175897  1  0  0.08536  0  0.966499  0  0  0.090511  0  1.038411  0  0  0.093938  0  1.034583  0  0  0.115011  0.087847  0  1.041409  0
H  H12  1  0.93762612  0.46948278  0.08159856  1  0  0.084337  0  0.967603  0  0  0.089967  0  1.039179  0  0  0.093419  0  1.035347  0  0  0.11527  0.087288  0  1.042171  0
H  H13  1  0.46774518  0.53031848  0.41823778  1  0  0.085365  0  0.966547  0  0  0.090524  0  1.038449  0  0  0.093951  0  1.034622  0  0  0.115035  0.087864  0  1.041442  0
H  H14  1  0.69428669  0.70300632  0.87935903  1  0  0.092053  0  0.927151  0  0  0.102245  0  0.988734  0  0  0.10536  0  0.985608  0  0  0.120473  0.099555  0  0.99166  0
H  H15  1  0.99213759  0.29727128  0.62046054  1  0  0.09416  0  0.927682  0  0  0.103485  0  0.990099  0  0  0.106584  0  0.986983  0  0  0.12131  0.100971  0  0.992743  0
H  H16  1  0.30571904  0.29699558  0.12064072  1  0  0.091928  0  0.92723  0  0  0.102158  0  0.988755  0  0  0.105274  0  0.985631  0  0  0.120418  0.099463  0  0.991691  0
H  H17  1  0.00785967  0.70272859  0.37953963  1  0  0.094159  0  0.927688  0  0  0.103478  0  0.990104  0  0  0.106578  0  0.986988  0  0  0.121306  0.100965  0  0.992751  0
H  H18  1  0.77460228  0.95143342  0.92894126  1  0  0.407959  0  0.886313  0  0  0.380995  0  0.950687  0  0  0.391117  0  0.936197  0  0  0.277534  0.373385  0  0.961652  0
H  H19  1  0.82316652  0.04859079  0.57111066  1  0  0.407894  0  0.887372  0  0  0.381085  0  0.950677  0  0  0.391221  0  0.936163  0  0  0.277725  0.373561  0  0.961478  0
H  H20  1  0.22539797  0.04856645  0.07105814  1  0  0.407959  0  0.886317  0  0  0.380993  0  0.950691  0  0  0.391116  0  0.9362  0  0  0.277523  0.373384  0  0.961655  0
H  H21  1  0.17683471  0.95140806  0.42888857  1  0  0.407894  0  0.887381  0  0  0.381087  0  0.950675  0  0  0.391224  0  0.936161  0  0  0.277747  0.373564  0  0.961474  0
H  H22  1  0.99211453  0.87485502  0.81600089  1  0  0.41839  0  0.886611  0  0  0.386689  0  0.952342  0  0  0.397505  0  0.93665  0  0  0.286684  0.378982  0  0.963501  0
H  H23  1  0.11759452  0.12523179  0.68394830  1  0  0.419001  0  0.885684  0  0  0.387086  0  0.951666  0  0  0.397921  0  0.93598  0  0  0.286831  0.379291  0  0.962963  0
H  H24  1  0.00788024  0.12514283  0.18399969  1  0  0.418406  0  0.886581  0  0  0.386708  0  0.952305  0  0  0.397523  0  0.936616  0  0  0.286696  0.379001  0  0.963464  0
H  H25  1  0.88240522  0.87476707  0.31605092  1  0  0.419014  0  0.885655  0  0  0.387098  0  0.951642  0  0  0.397933  0  0.935955  0  0  0.286841  0.379305  0  0.962936  0
H  H26  1  0.15723825  0.00599449  0.88583798  1  0  0.426466  0  0.866465  0  0  0.397712  0  0.931708  0  0  0.40789  0  0.916883  0  0  0.292779  0.390558  0  0.942094  0
H  H27  1  0.15156375  0.99407027  0.61416444  1  0  0.427467  0  0.864881  0  0  0.398528  0  0.930432  0  0  0.408695  0  0.915657  0  0  0.293033  0.391163  0  0.941136  0
H  H28  1  0.84275652  0.99400336  0.11416336  1  0  0.42648  0  0.866492  0  0  0.397727  0  0.931699  0  0  0.407905  0  0.916873  0  0  0.292805  0.390574  0  0.942083  0
H  H29  1  0.84843650  0.00592960  0.38583649  1  0  0.427494  0  0.864855  0  0  0.398556  0  0.930397  0  0  0.408723  0  0.915622  0  0  0.293041  0.391191  0  0.9411  0
C  C30  1  0.59128617  0.48379170  0.85090556  1  0  -0.124213  0  3.690201  0  0  -0.146401  0  3.947463  0  0  -0.152626  0  3.967785  0  0  -0.080148  -0.142618  0  3.934454  0
C  C31  1  0.10804430  0.51649426  0.64908056  1  0  -0.125233  0  3.691809  0  0  -0.147466  0  3.949154  0  0  -0.153618  0  3.969458  0  0  -0.080421  -0.143556  0  3.936003  0
C  C32  1  0.40872054  0.51620918  0.14909326  1  0  -0.1242  0  3.690483  0  0  -0.146359  0  3.947775  0  0  -0.152571  0  3.968091  0  0  -0.080134  -0.142579  0  3.934757  0
C  C33  1  0.89195246  0.48350461  0.35092019  1  0  -0.125312  0  3.692006  0  0  -0.147573  0  3.949353  0  0  -0.153727  0  3.969661  0  0  -0.080524  -0.143683  0  3.936188  0
C  C34  1  0.21035202  0.51392749  0.89673612  1  0  0.109783  0  3.708104  0  0  0.068602  0  3.964813  0  0  0.076432  0  3.981728  0  0  0.045692  0.06323  0  3.954187  0
C  C35  1  0.69687207  0.48626834  0.60338351  1  0  0.108338  0  3.707639  0  0  0.067381  0  3.963802  0  0  0.075253  0  3.980667  0  0  0.045316  0.061833  0  3.953552  0
C  C36  1  0.78964671  0.48606933  0.10326122  1  0  0.109768  0  3.708008  0  0  0.068599  0  3.964738  0  0  0.076427  0  3.981651  0  0  0.045719  0.063231  0  3.954104  0
C  C37  1  0.30312221  0.51373153  0.39661589  1  0  0.108255  0  3.707835  0  0  0.067244  0  3.963994  0  0  0.075116  0  3.98086  0  0  0.045202  0.061674  0  3.953784  0
C  C38  1  0.22462082  0.38348051  0.87295503  1  0  -0.119948  0  3.727432  0  0  -0.102668  0  3.963476  0  0  -0.112814  0  3.984289  0  0  -0.008079  -0.096378  0  3.949842  0
C  C39  1  0.84148673  0.61676429  0.62719304  1  0  -0.122904  0  3.726608  0  0  -0.104339  0  3.961951  0  0  -0.114485  0  3.982717  0  0  -0.009053  -0.097791  0  3.947937  0
C  C40  1  0.77538440  0.61652035  0.12704226  1  0  -0.119854  0  3.727187  0  0  -0.102591  0  3.963242  0  0  -0.112729  0  3.984049  0  0  -0.00811  -0.09631  0  3.94961  0
C  C41  1  0.15850607  0.38323560  0.37280942  1  0  -0.122692  0  3.726561  0  0  -0.104025  0  3.961748  0  0  -0.114172  0  3.98252  0  0  -0.008905  -0.097489  0  3.947709  0
C  C42  1  0.56328889  0.61036616  0.87565304  1  0  0.142542  0  3.672788  0  0  0.105159  0  3.939535  0  0  0.113873  0  3.954506  0  0  0.049615  0.099357  0  3.929857  0
C  C43  1  0.95360306  0.38987765  0.62426726  1  0  0.140574  0  3.677166  0  0  0.103831  0  3.943576  0  0  0.112607  0  3.958402  0  0  0.048447  0.09806  0  3.933558  0
C  C44  1  0.43671583  0.38963371  0.12434560  1  0  0.142662  0  3.67291  0  0  0.105293  0  3.939597  0  0  0.114003  0  3.95457  0  0  0.049696  0.099488  0  3.929917  0
C  C45  1  0.04639272  0.61012223  0.37573367  1  0  0.140603  0  3.677199  0  0  0.103888  0  3.94357  0  0  0.112665  0  3.958394  0  0  0.048482  0.098115  0  3.933561  0
C  C46  1  0.42073994  0.36750248  0.85058538  1  0  -0.00211  0  3.675282  0  0  0.007528  0  3.908962  0  0  0.008423  0  3.926224  0  0  0.009041  0.007012  0  3.897514  0
C  C47  1  0.05367152  0.63281306  0.64956134  1  0  -5.7e-05  0  3.671815  0  0  0.009254  0  3.905337  0  0  0.010179  0  3.922538  0  0  0.009751  0.008538  0  3.893943  0
C  C48  1  0.57926481  0.63250042  0.14941378  1  0  -0.002225  0  3.675504  0  0  0.007459  0  3.909149  0  0  0.008349  0  3.926411  0  0  0.00904  0.006959  0  3.897681  0
C  C49  1  0.94632477  0.36718784  0.35044130  1  0  -0.000261  0  3.671968  0  0  0.009062  0  3.90541  0  0  0.009983  0  3.922616  0  0  0.009701  0.008408  0  3.893933  0
C  C50  1  0.44949298  0.23015879  0.83476794  1  0  0.662948  0  3.927105  0  0  0.606628  0  4.229986  0  0  0.642017  0  4.219403  0  0  0.207611  0.582395  0  4.236345  0
C  C51  1  0.21985127  0.77012349  0.66532921  1  0  0.663509  0  3.921597  0  0  0.607737  0  4.223899  0  0  0.643048  0  4.213416  0  0  0.208163  0.583531  0  4.230313  0
C  C52  1  0.55050875  0.76984108  0.16523147  1  0  0.663024  0  3.927096  0  0  0.606642  0  4.230059  0  0  0.642032  0  4.219475  0  0  0.207603  0.582405  0  4.236419  0
C  C53  1  0.78014349  0.22987437  0.33467213  1  0  0.66353  0  3.921651  0  0  0.607748  0  4.223953  0  0  0.643059  0  4.213471  0  0  0.208137  0.583523  0  4.230368  0
C  C54  1  0.02922764  0.26616310  0.87344310  1  0  0.697412  0  3.89594  0  0  0.640132  0  4.195828  0  0  0.676747  0  4.185971  0  0  0.216951  0.61518  0  4.201733  0
C  C55  1  0.76322156  0.73399863  0.62660684  1  0  0.699502  0  3.890898  0  0  0.641152  0  4.192334  0  0  0.677736  0  4.182473  0  0  0.217387  0.616386  0  4.197747  0
C  C56  1  0.97077511  0.73383878  0.12655589  1  0  0.697242  0  3.896141  0  0  0.639968  0  4.196029  0  0  0.67658  0  4.186176  0  0  0.216828  0.615016  0  4.201937  0
C  C57  1  0.23677123  0.26600124  0.37339257  1  0  0.699406  0  3.890873  0  0  0.641012  0  4.192314  0  0  0.677599  0  4.182453  0  0  0.217291  0.616248  0  4.197722  0
N  N58  1  0.37513790  0.62526515  0.89857704  1  0  -0.335708  0  3.277468  0  0  -0.260982  0  3.552526  0  0  -0.280039  0  3.569048  0  0  -0.328771  -0.247906  0  3.541018  0
N  N59  1  0.75044669  0.37492382  0.60143648  1  0  -0.335129  0  3.277757  0  0  -0.260085  0  3.551637  0  0  -0.279079  0  3.568107  0  0  -0.326954  -0.246635  0  3.540154  0
N  N60  1  0.62486733  0.37473572  0.10142177  1  0  -0.335673  0  3.277676  0  0  -0.260974  0  3.552749  0  0  -0.280032  0  3.569278  0  0  -0.328766  -0.247897  0  3.541239  0
N  N61  1  0.24955007  0.62507504  0.39856275  1  0  -0.335092  0  3.277872  0  0  -0.260054  0  3.551751  0  0  -0.279046  0  3.568219  0  0  -0.326924  -0.2466  0  3.540268  0
O  O62  1  0.64933595  0.97673464  0.91740712  1  0  -1.005409  0  1.866552  0  0  -0.897258  0  2.131803  0  0  -0.937312  0  2.099538  0  0  -0.598095  -0.868325  0  2.154254  0
O  O63  1  0.67262811  0.02332245  0.58264601  1  0  -1.005451  0  1.867166  0  0  -0.897406  0  2.131902  0  0  -0.93745  0  2.099688  0  0  -0.598145  -0.868206  0  2.154354  0
O  O64  1  0.35066629  0.02326624  0.08259246  1  0  -1.005398  0  1.866547  0  0  -0.897259  0  2.131807  0  0  -0.937313  0  2.099542  0  0  -0.598087  -0.868326  0  2.154257  0
O  O65  1  0.32737214  0.97667741  0.41735339  1  0  -1.005423  0  1.867159  0  0  -0.897387  0  2.1319  0  0  -0.937431  0  2.099683  0  0  -0.598163  -0.868187  0  2.154353  0
O  O66  1  0.06459389  0.91375816  0.88777186  1  0  -0.832  0  1.854664  0  0  -0.767271  0  2.039758  0  0  -0.789748  0  2.006518  0  0  -0.57982  -0.751072  0  2.063093  0
O  O67  1  0.15102511  0.08628134  0.61220037  1  0  -0.833284  0  1.852342  0  0  -0.768263  0  2.038316  0  0  -0.790796  0  2.004835  0  0  -0.580374  -0.752043  0  2.062146  0
O  O68  1  0.93540088  0.08623969  0.11222872  1  0  -0.832009  0  1.854644  0  0  -0.767298  0  2.039731  0  0  -0.789774  0  2.006491  0  0  -0.579859  -0.751099  0  2.063065  0
O  O69  1  0.84897463  0.91371753  0.38780038  1  0  -0.833333  0  1.852285  0  0  -0.768318  0  2.038254  0  0  -0.790853  0  2.004782  0  0  -0.580398  -0.752099  0  2.062083  0
O  O70  1  0.54898522  0.19576032  0.75666669  1  0  -0.673253  0  2.087261  0  0  -0.605478  0  2.35477  0  0  -0.636605  0  2.342898  0  0  -0.320152  -0.582641  0  2.361605  0
O  O71  1  0.35396252  0.80447669  0.74338788  1  0  -0.673643  0  2.085105  0  0  -0.605807  0  2.352004  0  0  -0.637078  0  2.34042  0  0  -0.320499  -0.583153  0  2.358896  0
O  O72  1  0.45101601  0.80423854  0.24333177  1  0  -0.673262  0  2.087295  0  0  -0.605453  0  2.354806  0  0  -0.636582  0  2.342942  0  0  -0.320132  -0.58262  0  2.361653  0
O  O73  1  0.64603475  0.19552319  0.25661305  1  0  -0.673592  0  2.085141  0  0  -0.605758  0  2.352057  0  0  -0.637026  0  2.34047  0  0  -0.320445  -0.583103  0  2.358952  0
O  O74  1  0.98981212  0.16479575  0.79548839  1  0  -0.663886  0  2.053735  0  0  -0.590885  0  2.295901  0  0  -0.621024  0  2.284069  0  0  -0.313004  -0.569535  0  2.3035  0
O  O75  1  0.82498646  0.83539098  0.70453021  1  0  -0.664121  0  2.050864  0  0  -0.591856  0  2.294741  0  0  -0.621603  0  2.282492  0  0  -0.313533  -0.57008  0  2.30225  0
O  O76  1  0.01018911  0.83520310  0.20450931  1  0  -0.663846  0  2.053918  0  0  -0.590821  0  2.296031  0  0  -0.620964  0  2.284213  0  0  -0.312939  -0.569472  0  2.30363  0
O  O77  1  0.17501382  0.16461193  0.29547049  1  0  -0.664101  0  2.050897  0  0  -0.591807  0  2.294759  0  0  -0.621551  0  2.282511  0  0  -0.313496  -0.570039  0  2.302273  0
O  O78  1  0.91894651  0.28242446  0.95023951  1  0  -0.64923  0  2.023296  0  0  -0.58614  0  2.280093  0  0  -0.616049  0  2.269522  0  0  -0.320293  -0.564563  0  2.286557  0
O  O79  1  0.63672233  0.71759911  0.54970664  1  0  -0.649461  0  2.02184  0  0  -0.586552  0  2.27977  0  0  -0.616442  0  2.269226  0  0  -0.320129  -0.564655  0  2.286032  0
O  O80  1  0.08105970  0.71757540  0.04975912  1  0  -0.649161  0  2.023366  0  0  -0.586077  0  2.280165  0  0  -0.615986  0  2.269599  0  0  -0.32023  -0.564498  0  2.28663  0
O  O81  1  0.36327494  0.28240078  0.45029658  1  0  -0.649446  0  2.021694  0  0  -0.586551  0  2.279653  0  0  -0.616444  0  2.269111  0  0  -0.320116  -0.564655  0  2.285913  0
O  O82  1  0.37716717  0.16150730  0.90175107  1  0  -0.654318  0  2.018038  0  0  -0.595796  0  2.261138  0  0  -0.622252  0  2.249902  0  0  -0.31482  -0.576872  0  2.26833  0
O  O83  1  0.21605333  0.83874642  0.59834218  1  0  -0.654719  0  2.016712  0  0  -0.596348  0  2.259575  0  0  -0.622777  0  2.248389  0  0  -0.315133  -0.577349  0  2.266868  0
O  O84  1  0.62283358  0.83849357  0.09824775  1  0  -0.654356  0  2.018026  0  0  -0.595818  0  2.261157  0  0  -0.622273  0  2.24992  0  0  -0.31484  -0.576892  0  2.268352  0
O  O85  1  0.78394492  0.16125244  0.40165858  1  0  -0.654715  0  2.016767  0  0  -0.596352  0  2.259647  0  0  -0.622779  0  2.24846  0  0  -0.315145  -0.577355  0  2.266949  0
