# generated using pymatgen
data_H14PbC13(NCl)2
_symmetry_space_group_name_H-M   'P 1'
_cell_length_a   4.27418608
_cell_length_b   10.66088664
_cell_length_c   15.50501076
_cell_angle_alpha   89.99658404
_cell_angle_beta   90.00239199
_cell_angle_gamma   97.10065469
_symmetry_Int_Tables_number   1
_chemical_formula_structural   H14PbC13(NCl)2
_chemical_formula_sum   'H28 Pb2 C26 N4 Cl4'
_cell_volume   701.09226128
_cell_formula_units_Z   2
loop_
 _symmetry_equiv_pos_site_id
 _symmetry_equiv_pos_as_xyz
  1  'x, y, z'
loop_
 _atom_site_type_symbol
 _atom_site_label
 _atom_site_symmetry_multiplicity
 _atom_site_fract_x
 _atom_site_fract_y
 _atom_site_fract_z
 _atom_site_occupancy
 _atom_site_hle17_bader_spin_density
 _atom_site_hle17_ddec_charge
 _atom_site_hle17_ddec_spin_density
 _atom_site_hle17_ddec_sum_bond_order
 _atom_site_hle17_magmom
 _atom_site_hse06_10hf_bader_spin_density
 _atom_site_hse06_10hf_ddec_charge
 _atom_site_hse06_10hf_ddec_spin_density
 _atom_site_hse06_10hf_ddec_sum_bond_order
 _atom_site_hse06_10hf_magmom
 _atom_site_hse06_bader_spin_density
 _atom_site_hse06_ddec_charge
 _atom_site_hse06_ddec_spin_density
 _atom_site_hse06_ddec_sum_bond_order
 _atom_site_hse06_magmom
 _atom_site_pbe_bader_spin_density
 _atom_site_pbe_cm5_charge
 _atom_site_pbe_ddec_charge
 _atom_site_pbe_ddec_spin_density
 _atom_site_pbe_ddec_sum_bond_order
 _atom_site_pbe_magmom
H  H0  1  0.66562297  0.95338997  0.57732032  1  0  0.103735  0  0.966139  0  0  0.111216  0  1.033519  0  0  0.114421  0  1.032621  0  0  0.10006  0.108576  0  1.035083  0
H  H1  1  0.33417241  0.04667485  0.07734954  1  0  0.103737  0  0.965798  0  0  0.111265  0  1.033126  0  0  0.114471  0  1.032224  0  0  0.100034  0.108628  0  1.034686  0
H  H2  1  0.33427762  0.04665572  0.42267983  1  0  0.103722  0  0.965838  0  0  0.111126  0  1.033321  0  0  0.114333  0  1.032419  0  0  0.100006  0.108486  0  1.034886  0
H  H3  1  0.66549554  0.95341863  0.92270802  1  0  0.10362  0  0.966289  0  0  0.111196  0  1.033511  0  0  0.1144  0  1.03261  0  0  0.100097  0.108552  0  1.03508  0
H  H4  1  0.35511727  0.55514833  0.42309254  1  0  0.063671  0  0.970566  0  0  0.069647  0  1.043166  0  0  0.072036  0  1.041072  0  0  0.103346  0.067624  0  1.045408  0
H  H5  1  0.64489410  0.44485830  0.92303442  1  0  0.063916  0  0.970382  0  0  0.069944  0  1.042871  0  0  0.072333  0  1.040769  0  0  0.10342  0.067917  0  1.045121  0
H  H6  1  0.64474843  0.44491257  0.57690567  1  0  0.063707  0  0.970587  0  0  0.069699  0  1.043132  0  0  0.072097  0  1.041022  0  0  0.103384  0.067677  0  1.045369  0
H  H7  1  0.35526794  0.55510549  0.07691542  1  0  0.063724  0  0.970647  0  0  0.069753  0  1.043179  0  0  0.072137  0  1.041087  0  0  0.103333  0.067705  0  1.045444  0
H  H8  1  0.87777159  0.90816199  0.43067366  1  0  0.067012  0  0.94955  0  0  0.075116  0  1.018619  0  0  0.077418  0  1.016506  0  0  0.108176  0.073485  0  1.020167  0
H  H9  1  0.12222196  0.09185305  0.93066903  1  0  0.066986  0  0.949661  0  0  0.075067  0  1.018762  0  0  0.077372  0  1.01665  0  0  0.108111  0.073436  0  1.020311  0
H  H10  1  0.12225559  0.09186262  0.56933552  1  0  0.067007  0  0.94976  0  0  0.075097  0  1.018841  0  0  0.077404  0  1.016728  0  0  0.108167  0.073462  0  1.020395  0
H  H11  1  0.87773113  0.90815942  0.06934660  1  0  0.06709  0  0.94956  0  0  0.075171  0  1.018647  0  0  0.077472  0  1.016541  0  0  0.108215  0.073539  0  1.020196  0
H  H12  1  0.99550193  0.73737823  0.67260980  1  0  0.081547  0  0.952594  0  0  0.096897  0  1.018089  0  0  0.09788  0  1.018623  0  0  0.090404  0.096117  0  1.017816  0
H  H13  1  0.00443052  0.26266233  0.17261007  1  0  0.081576  0  0.952758  0  0  0.096995  0  1.018286  0  0  0.097983  0  1.018813  0  0  0.090444  0.096212  0  1.018019  0
H  H14  1  0.00445022  0.26265316  0.32739616  1  0  0.081533  0  0.95288  0  0  0.096959  0  1.018417  0  0  0.097945  0  1.018949  0  0  0.090444  0.096175  0  1.018151  0
H  H15  1  0.99547405  0.73737389  0.82739395  1  0  0.081574  0  0.952733  0  0  0.096899  0  1.018209  0  0  0.097879  0  1.018747  0  0  0.090437  0.096121  0  1.017937  0
H  H16  1  0.17819529  0.89627076  0.67166007  1  0  0.079411  0  0.938923  0  0  0.093397  0  1.008386  0  0  0.094471  0  1.008065  0  0  0.089289  0.092519  0  1.0088  0
H  H17  1  0.82174032  0.10376710  0.17167008  1  0  0.079563  0  0.939027  0  0  0.093572  0  1.008434  0  0  0.094646  0  1.00812  0  0  0.089323  0.09269  0  1.008856  0
H  H18  1  0.82173084  0.10375975  0.32834846  1  0  0.079589  0  0.939064  0  0  0.093595  0  1.008497  0  0  0.094669  0  1.008183  0  0  0.089341  0.092713  0  1.008917  0
H  H19  1  0.17811636  0.89627301  0.82833394  1  0  0.079438  0  0.939003  0  0  0.093451  0  1.008402  0  0  0.094533  0  1.008079  0  0  0.08924  0.092571  0  1.008819  0
H  H20  1  0.13414270  0.58283925  0.57094086  1  0  0.108349  0  0.951187  0  0  0.118133  0  1.013958  0  0  0.121182  0  1.01332  0  0  0.103083  0.116072  0  1.014411  0
H  H21  1  0.86588326  0.41717776  0.07090410  1  0  0.108382  0  0.951251  0  0  0.118209  0  1.013982  0  0  0.121257  0  1.013348  0  0  0.103122  0.116136  0  1.014436  0
H  H22  1  0.86586656  0.41720243  0.42907670  1  0  0.108319  0  0.95124  0  0  0.118181  0  1.01393  0  0  0.121227  0  1.013299  0  0  0.103075  0.116115  0  1.01439  0
H  H23  1  0.13420706  0.58282497  0.92906703  1  0  0.108302  0  0.951113  0  0  0.118079  0  1.013895  0  0  0.121129  0  1.013256  0  0  0.10304  0.116015  0  1.014352  0
H  H24  1  0.63923945  0.83286964  0.75001772  1  0  0.068626  0  0.969017  0  0  0.08664  0  1.034262  0  0  0.087297  0  1.035172  0  0  0.081912  0.086085  0  1.033682  0
H  H25  1  0.36067660  0.16717318  0.25000114  1  0  0.068462  0  0.969054  0  0  0.086536  0  1.034145  0  0  0.087161  0  1.035112  0  0  0.082026  0.085991  0  1.033557  0
H  H26  1  0.46482033  0.67197433  0.75002339  1  0  0.068564  0  0.951745  0  0  0.082882  0  1.022009  0  0  0.083921  0  1.022083  0  0  0.077613  0.082043  0  1.022181  0
H  H27  1  0.53510264  0.32806091  0.24999676  1  0  0.068417  0  0.952262  0  0  0.082676  0  1.02253  0  0  0.083715  0  1.022605  0  0  0.077445  0.081829  0  1.022706  0
Pb  Pb28  1  0.68959915  0.71556469  0.24996762  1  0  1.099043  0  1.674096  0  0  0.911966  0  2.114301  0  0  0.969542  0  2.074132  0  0  0.47861  0.871398  0  2.141218  0
Pb  Pb29  1  0.31187723  0.28404066  0.74993835  1  0  1.099099  0  1.674874  0  0  0.912119  0  2.115007  0  0  0.969581  0  2.075048  0  0  0.478471  0.871606  0  2.141849  0
C  C30  1  0.37759346  0.77195605  0.58549402  1  0  0.167943  0  3.706948  0  0  0.183505  0  3.940737  0  0  0.189079  0  3.962427  0  0  0.015316  0.179523  0  3.925973  0
C  C31  1  0.62234653  0.22808272  0.08548669  1  0  0.168408  0  3.706127  0  0  0.183866  0  3.940099  0  0  0.189445  0  3.961787  0  0  0.015521  0.179883  0  3.925334  0
C  C32  1  0.62236294  0.22808858  0.41451194  1  0  0.168218  0  3.706345  0  0  0.1838  0  3.940175  0  0  0.189386  0  3.961854  0  0  0.015416  0.179815  0  3.925411  0
C  C33  1  0.37753159  0.77196586  0.91452765  1  0  0.168019  0  3.706671  0  0  0.183459  0  3.940538  0  0  0.189031  0  3.962231  0  0  0.015384  0.179484  0  3.925772  0
C  C34  1  0.59510370  0.86301277  0.54554060  1  0  -0.177572  0  3.703277  0  0  -0.191117  0  3.947453  0  0  -0.199684  0  3.969464  0  0  -0.085886  -0.185627  0  3.933504  0
C  C35  1  0.40477425  0.13703465  0.04555174  1  0  -0.177595  0  3.702296  0  0  -0.191119  0  3.946504  0  0  -0.199686  0  3.968517  0  0  -0.085975  -0.185629  0  3.932559  0
C  C36  1  0.40482321  0.13703476  0.45445504  1  0  -0.177398  0  3.702524  0  0  -0.190869  0  3.946661  0  0  -0.199435  0  3.968673  0  0  -0.085882  -0.18538  0  3.932716  0
C  C37  1  0.59502019  0.86303018  0.95448195  1  0  -0.177317  0  3.702769  0  0  -0.190917  0  3.947042  0  0  -0.199472  0  3.969038  0  0  -0.085754  -0.185428  0  3.933097  0
C  C38  1  0.42332485  0.64107775  0.46036342  1  0  0.120823  0  3.763684  0  0  0.090622  0  4.017797  0  0  0.097624  0  4.037557  0  0  0.039265  0.086134  0  4.004875  0
C  C39  1  0.57670677  0.35894150  0.96032525  1  0  0.120732  0  3.763034  0  0  0.090466  0  4.0172  0  0  0.09749  0  4.03692  0  0  0.039156  0.085976  0  4.004285  0
C  C40  1  0.57658791  0.35898400  0.53963028  1  0  0.121524  0  3.76272  0  0  0.091291  0  4.01682  0  0  0.098312  0  4.036541  0  0  0.039618  0.086795  0  4.003909  0
C  C41  1  0.42339129  0.64104891  0.03964588  1  0  0.120969  0  3.763183  0  0  0.090712  0  4.017241  0  0  0.097725  0  4.037  0  0  0.0394  0.086243  0  4.004329  0
C  C42  1  0.71237786  0.83852822  0.46438706  1  0  0.126531  0  3.753365  0  0  0.095823  0  4.008337  0  0  0.103201  0  4.027909  0  0  0.040757  0.09148  0  3.994681  0
C  C43  1  0.28760642  0.16149528  0.96437835  1  0  0.126487  0  3.753384  0  0  0.09577  0  4.008384  0  0  0.103144  0  4.027957  0  0  0.040943  0.091423  0  3.994735  0
C  C44  1  0.28758403  0.16151166  0.53560986  1  0  0.126526  0  3.753484  0  0  0.095817  0  4.008391  0  0  0.103188  0  4.027969  0  0  0.041047  0.091472  0  3.994737  0
C  C45  1  0.71234594  0.83852949  0.03563083  1  0  0.12654  0  3.753112  0  0  0.095792  0  4.008125  0  0  0.103167  0  4.027707  0  0  0.040723  0.091447  0  3.994468  0
C  C46  1  0.22408070  0.79686827  0.66954585  1  0  -0.16877  0  3.703378  0  0  -0.208367  0  3.948326  0  0  -0.210184  0  3.960783  0  0  -0.164288  -0.206646  0  3.939184  0
C  C47  1  0.77586261  0.20316893  0.16954438  1  0  -0.169015  0  3.703772  0  0  -0.208807  0  3.948672  0  0  -0.210627  0  3.961142  0  0  -0.164438  -0.207082  0  3.93954  0
C  C48  1  0.77587643  0.20316406  0.33046204  1  0  -0.169004  0  3.703922  0  0  -0.208834  0  3.948801  0  0  -0.210659  0  3.961275  0  0  -0.164444  -0.207107  0  3.939663  0
C  C49  1  0.22402833  0.79687584  0.83046738  1  0  -0.169078  0  3.703851  0  0  -0.208626  0  3.948729  0  0  -0.210451  0  3.961202  0  0  -0.164427  -0.206912  0  3.939597  0
C  C50  1  0.29862414  0.65737623  0.54184986  1  0  -0.171256  0  3.695705  0  0  -0.186492  0  3.93949  0  0  -0.19462  0  3.960828  0  0  -0.085856  -0.181164  0  3.925515  0
C  C51  1  0.70135496  0.34265164  0.04182359  1  0  -0.171475  0  3.695283  0  0  -0.186678  0  3.939036  0  0  -0.194813  0  3.960373  0  0  -0.08582  -0.181333  0  3.925056  0
C  C52  1  0.70132880  0.34267219  0.45815352  1  0  -0.171422  0  3.695152  0  0  -0.186753  0  3.939005  0  0  -0.194882  0  3.96032  0  0  -0.085728  -0.181425  0  3.925053  0
C  C53  1  0.29864701  0.65736735  0.95816495  1  0  -0.171028  0  3.695165  0  0  -0.186204  0  3.938949  0  0  -0.19433  0  3.960282  0  0  -0.08577  -0.180876  0  3.924972  0
C  C54  1  0.41453675  0.77076865  0.75001449  1  0  -0.090973  0  3.651028  0  0  -0.130847  0  3.905241  0  0  -0.132144  0  3.918424  0  0  -0.166367  -0.129658  0  3.895713  0
C  C55  1  0.58538774  0.22927132  0.25000114  1  0  -0.090977  0  3.651364  0  0  -0.130589  0  3.905375  0  0  -0.131871  0  3.918542  0  0  -0.166463  -0.129412  0  3.895861  0
N  N56  1  0.62553454  0.73008970  0.42160016  1  0  -0.361513  0  3.243528  0  0  -0.288719  0  3.49923  0  0  -0.309952  0  3.522585  0  0  -0.313571  -0.27396  0  3.482404  0
N  N57  1  0.37455701  0.26990751  0.92156711  1  0  -0.361532  0  3.243863  0  0  -0.288767  0  3.499642  0  0  -0.309983  0  3.522964  0  0  -0.313643  -0.274013  0  3.482825  0
N  N58  1  0.37441514  0.26995589  0.57838967  1  0  -0.36192  0  3.243716  0  0  -0.28909  0  3.499456  0  0  -0.31032  0  3.522796  0  0  -0.314013  -0.274327  0  3.48263  0
N  N59  1  0.62557452  0.73007054  0.07840659  1  0  -0.361801  0  3.243785  0  0  -0.288953  0  3.499481  0  0  -0.310198  0  3.522851  0  0  -0.313713  -0.274182  0  3.482637  0
Cl  Cl60  1  0.22357637  0.90337897  0.25002927  1  0  -0.611919  0  0.79184  0  0  -0.534803  0  1.038552  0  0  -0.556766  0  1.021559  0  0  -0.279893  -0.519038  0  1.050556  0
Cl  Cl61  1  0.77619186  0.09637850  0.75003925  1  0  -0.61205  0  0.792983  0  0  -0.534813  0  1.039834  0  0  -0.556776  0  1.022866  0  0  -0.27959  -0.519039  0  1.051813  0
Cl  Cl62  1  0.11760291  0.52804507  0.24996548  1  0  -0.613291  0  0.81251  0  0  -0.535347  0  1.061133  0  0  -0.557768  0  1.0436  0  0  -0.272193  -0.519257  0  1.073248  0
Cl  Cl63  1  0.88271353  0.47161288  0.74996888  1  0  -0.613534  0  0.811297  0  0  -0.535698  0  1.059654  0  0  -0.558085  0  1.042137  0  0  -0.272501  -0.519671  0  1.071861  0
