# generated using pymatgen
data_GaH11C9Cl2
_symmetry_space_group_name_H-M   'P 1'
_cell_length_a   6.91684313
_cell_length_b   8.26982014
_cell_length_c   17.83468457
_cell_angle_alpha   99.18099217
_cell_angle_beta   89.99970963
_cell_angle_gamma   90.00007120
_symmetry_Int_Tables_number   1
_chemical_formula_structural   GaH11C9Cl2
_chemical_formula_sum   'Ga4 H44 C36 Cl8'
_cell_volume   1007.09361188
_cell_formula_units_Z   4
loop_
 _symmetry_equiv_pos_site_id
 _symmetry_equiv_pos_as_xyz
  1  'x, y, z'
loop_
 _atom_site_type_symbol
 _atom_site_label
 _atom_site_symmetry_multiplicity
 _atom_site_fract_x
 _atom_site_fract_y
 _atom_site_fract_z
 _atom_site_occupancy
 _atom_site_hle17_bader_spin_density
 _atom_site_hle17_ddec_charge
 _atom_site_hle17_ddec_spin_density
 _atom_site_hle17_ddec_sum_bond_order
 _atom_site_hle17_magmom
 _atom_site_hse06_10hf_bader_spin_density
 _atom_site_hse06_10hf_ddec_charge
 _atom_site_hse06_10hf_ddec_spin_density
 _atom_site_hse06_10hf_ddec_sum_bond_order
 _atom_site_hse06_10hf_magmom
 _atom_site_hse06_bader_spin_density
 _atom_site_hse06_ddec_charge
 _atom_site_hse06_ddec_spin_density
 _atom_site_hse06_ddec_sum_bond_order
 _atom_site_hse06_magmom
 _atom_site_pbe_bader_spin_density
 _atom_site_pbe_cm5_charge
 _atom_site_pbe_ddec_charge
 _atom_site_pbe_ddec_spin_density
 _atom_site_pbe_ddec_sum_bond_order
 _atom_site_pbe_magmom
Ga  Ga0  1  0.75000565  0.50701330  0.70532351  1  0  1.033818  0  2.483048  0  0  0.891188  0  2.921212  0  0  0.940384  0  2.883743  0  0  0.312  0.85775  0  2.945707  0
Ga  Ga1  1  0.25000125  0.49298089  0.29468131  1  0  1.033806  0  2.483097  0  0  0.891151  0  2.921296  0  0  0.940346  0  2.883833  0  0  0.311982  0.857724  0  2.945771  0
Ga  Ga2  1  0.25000261  0.61872550  0.77632594  1  0  1.021518  0  2.506186  0  0  0.875958  0  2.947496  0  0  0.925271  0  2.910198  0  0  0.309374  0.841716  0  2.973396  0
Ga  Ga3  1  0.75000285  0.38127734  0.22367619  1  0  1.021646  0  2.506207  0  0  0.876108  0  2.947477  0  0  0.925421  0  2.910188  0  0  0.309408  0.841861  0  2.97338  0
H  H4  1  0.75000287  0.54085450  0.46518799  1  0  0.118307  0  0.937392  0  0  0.141534  0  0.992929  0  0  0.143346  0  0.992459  0  0  0.093277  0.140198  0  0.993319  0
H  H5  1  0.24999825  0.45915194  0.53481779  1  0  0.11838  0  0.93727  0  0  0.14166  0  0.992745  0  0  0.143476  0  0.992278  0  0  0.093327  0.140321  0  0.993133  0
H  H6  1  0.87813453  0.60906119  0.55012380  1  0  0.104884  0  0.975767  0  0  0.124372  0  1.043353  0  0  0.125116  0  1.044434  0  0  0.08328  0.123813  0  1.042623  0
H  H7  1  0.37812656  0.39094405  0.44988275  1  0  0.104825  0  0.975871  0  0  0.12429  0  1.043502  0  0  0.125034  0  1.044584  0  0  0.083223  0.123732  0  1.04277  0
H  H8  1  0.12186515  0.39094643  0.44988431  1  0  0.1049  0  0.975834  0  0  0.124374  0  1.043424  0  0  0.125118  0  1.044507  0  0  0.083294  0.123816  0  1.042694  0
H  H9  1  0.62186444  0.60906115  0.55012350  1  0  0.104894  0  0.975766  0  0  0.12439  0  1.043346  0  0  0.125134  0  1.044427  0  0  0.083281  0.123832  0  1.042613  0
H  H10  1  0.74999425  0.26575511  0.42547240  1  0  0.080989  0  1.005908  0  0  0.087186  0  1.081875  0  0  0.089535  0  1.081396  0  0  0.079865  0.085382  0  1.082491  0
H  H11  1  0.24999531  0.73425388  0.57452853  1  0  0.080927  0  1.005761  0  0  0.087098  0  1.081821  0  0  0.089448  0  1.081338  0  0  0.07984  0.085293  0  1.082435  0
H  H12  1  0.74999365  0.98332174  0.37349383  1  0  0.107633  0  0.944052  0  0  0.131303  0  0.999682  0  0  0.132469  0  0.99944  0  0  0.08267  0.130407  0  0.99989  0
H  H13  1  0.25000169  0.01668002  0.62650037  1  0  0.107542  0  0.94402  0  0  0.131263  0  0.999622  0  0  0.132429  0  0.999377  0  0  0.082657  0.130372  0  0.999824  0
H  H14  1  0.62209960  0.85833099  0.42873676  1  0  0.110482  0  0.974488  0  0  0.1304  0  1.038232  0  0  0.130738  0  1.040529  0  0  0.08699  0.130059  0  1.0368  0
H  H15  1  0.12209985  0.14167315  0.57125901  1  0  0.110528  0  0.97437  0  0  0.130435  0  1.038136  0  0  0.130776  0  1.040424  0  0  0.087025  0.130095  0  1.036701  0
H  H16  1  0.37789863  0.14167566  0.57125838  1  0  0.110535  0  0.974315  0  0  0.130452  0  1.038078  0  0  0.130791  0  1.040367  0  0  0.087007  0.130106  0  1.036654  0
H  H17  1  0.87789115  0.85833473  0.42873567  1  0  0.110562  0  0.974334  0  0  0.130456  0  1.038109  0  0  0.130793  0  1.040405  0  0  0.087039  0.130115  0  1.036678  0
H  H18  1  0.74999663  0.91441381  0.57843340  1  0  0.095559  0  0.951993  0  0  0.10931  0  1.011788  0  0  0.11128  0  1.012203  0  0  0.095563  0.107912  0  1.011613  0
H  H19  1  0.25000305  0.08558310  0.42155762  1  0  0.095552  0  0.952029  0  0  0.109307  0  1.011824  0  0  0.111277  0  1.012238  0  0  0.095569  0.107904  0  1.011647  0
H  H20  1  0.75000454  0.98971483  0.70742880  1  0  0.109812  0  0.976424  0  0  0.127446  0  1.043162  0  0  0.129256  0  1.042604  0  0  0.077941  0.126012  0  1.043711  0
H  H21  1  0.25000092  0.01027468  0.29256444  1  0  0.109878  0  0.976419  0  0  0.127494  0  1.04317  0  0  0.129283  0  1.042633  0  0  0.078008  0.126072  0  1.043704  0
H  H22  1  0.62192796  0.17234197  0.74189411  1  0  0.100042  0  0.977949  0  0  0.119139  0  1.045952  0  0  0.120164  0  1.04614  0  0  0.081386  0.118351  0  1.045874  0
H  H23  1  0.12192451  0.82764254  0.25810180  1  0  0.099984  0  0.978021  0  0  0.119091  0  1.045995  0  0  0.120114  0  1.046182  0  0  0.081339  0.1183  0  1.045923  0
H  H24  1  0.37807605  0.82764257  0.25810267  1  0  0.099982  0  0.978002  0  0  0.119087  0  1.04598  0  0  0.120113  0  1.046165  0  0  0.081347  0.118299  0  1.0459  0
H  H25  1  0.87807806  0.17234702  0.74188920  1  0  0.10006  0  0.977917  0  0  0.119133  0  1.045945  0  0  0.120157  0  1.046134  0  0  0.08135  0.118345  0  1.045866  0
H  H26  1  0.25000400  0.44643349  0.99292001  1  0  0.116249  0  0.942464  0  0  0.139678  0  0.996867  0  0  0.141719  0  0.995985  0  0  0.089253  0.138214  0  0.997464  0
H  H27  1  0.75000435  0.55356691  0.00708137  1  0  0.116244  0  0.942508  0  0  0.139697  0  0.996868  0  0  0.141735  0  0.995998  0  0  0.089255  0.138236  0  0.997464  0
H  H28  1  0.37806296  0.42756600  0.90568954  1  0  0.102605  0  0.968998  0  0  0.121109  0  1.037371  0  0  0.122019  0  1.037914  0  0  0.083002  0.120425  0  1.037022  0
H  H29  1  0.87806078  0.57243200  0.09431140  1  0  0.10268  0  0.969051  0  0  0.121177  0  1.037407  0  0  0.122083  0  1.037962  0  0  0.083037  0.120494  0  1.037057  0
H  H30  1  0.62194249  0.57243074  0.09431044  1  0  0.102669  0  0.96902  0  0  0.121133  0  1.037415  0  0  0.12204  0  1.03797  0  0  0.083015  0.120449  0  1.037066  0
H  H31  1  0.12194034  0.42756346  0.90569128  1  0  0.102619  0  0.969002  0  0  0.121108  0  1.037393  0  0  0.122017  0  1.037937  0  0  0.083003  0.120427  0  1.037041  0
H  H32  1  0.24999130  0.70193819  0.06447610  1  0  0.091405  0  0.981373  0  0  0.102142  0  1.047473  0  0  0.104574  0  1.046924  0  0  0.086064  0.100396  0  1.047932  0
H  H33  1  0.74999247  0.29806347  0.93552313  1  0  0.09137  0  0.981382  0  0  0.102128  0  1.047461  0  0  0.104559  0  1.046925  0  0  0.086039  0.100379  0  1.047925  0
H  H34  1  0.24999964  0.96106681  0.14662856  1  0  0.10466  0  0.962839  0  0  0.129142  0  1.02055  0  0  0.129853  0  1.020984  0  0  0.0866  0.128566  0  1.020297  0
H  H35  1  0.74999714  0.03893359  0.85337226  1  0  0.104671  0  0.962783  0  0  0.129162  0  1.020485  0  0  0.129873  0  1.020919  0  0  0.086596  0.128582  0  1.020239  0
H  H36  1  0.12261891  0.11677611  0.10889963  1  0  0.108843  0  0.979812  0  0  0.127908  0  1.04623  0  0  0.12837  0  1.048219  0  0  0.086105  0.127462  0  1.045044  0
H  H37  1  0.62261570  0.88322419  0.89110424  1  0  0.108841  0  0.979829  0  0  0.127904  0  1.046244  0  0  0.128367  0  1.048233  0  0  0.086104  0.127459  0  1.045059  0
H  H38  1  0.87738510  0.88322670  0.89110362  1  0  0.108813  0  0.979759  0  0  0.127884  0  1.046173  0  0  0.128351  0  1.048155  0  0  0.086094  0.127442  0  1.044983  0
H  H39  1  0.37738398  0.11677252  0.10889741  1  0  0.108837  0  0.979837  0  0  0.127921  0  1.04623  0  0  0.128384  0  1.048216  0  0  0.086118  0.127476  0  1.045044  0
H  H40  1  0.24999818  0.14227248  0.96572016  1  0  0.09843  0  0.944347  0  0  0.115753  0  0.998378  0  0  0.117642  0  0.999082  0  0  0.101641  0.11443  0  0.997991  0
H  H41  1  0.74999138  0.85773032  0.03428366  1  0  0.09832  0  0.944373  0  0  0.115667  0  0.998406  0  0  0.117558  0  0.999107  0  0  0.101584  0.114346  0  0.998019  0
H  H42  1  0.25000291  0.93642204  0.76494506  1  0  0.087115  0  1.005959  0  0  0.106872  0  1.073885  0  0  0.10733  0  1.074403  0  0  0.07305  0.106437  0  1.07361  0
H  H43  1  0.75000977  0.06357714  0.23505567  1  0  0.08711  0  1.006084  0  0  0.106872  0  1.073989  0  0  0.107334  0  1.074503  0  0  0.073043  0.106436  0  1.073707  0
H  H44  1  0.37747194  0.09306103  0.82356477  1  0  0.115456  0  0.946684  0  0  0.140201  0  1.00329  0  0  0.141425  0  1.003399  0  0  0.091093  0.139268  0  1.003291  0
H  H45  1  0.87747931  0.90694068  0.17643421  1  0  0.115432  0  0.946684  0  0  0.140167  0  1.003305  0  0  0.141389  0  1.003416  0  0  0.09106  0.139214  0  1.003325  0
H  H46  1  0.62253352  0.90693813  0.17643707  1  0  0.115439  0  0.946608  0  0  0.140191  0  1.003206  0  0  0.141415  0  1.003315  0  0  0.091066  0.139238  0  1.003225  0
H  H47  1  0.12252904  0.09306347  0.82356298  1  0  0.115449  0  0.946712  0  0  0.140208  0  1.003298  0  0  0.141432  0  1.003405  0  0  0.091105  0.13927  0  1.003303  0
C  C48  1  0.75000319  0.33122767  0.61852353  1  0  -0.461594  0  3.692934  0  0  -0.429481  0  3.960271  0  0  -0.453132  0  3.994536  0  0  -0.106273  -0.413728  0  3.937258  0
C  C49  1  0.25000083  0.66876785  0.38147579  1  0  -0.461592  0  3.692744  0  0  -0.429441  0  3.960223  0  0  -0.45309  0  3.994485  0  0  -0.106248  -0.413698  0  3.937216  0
C  C50  1  0.75000224  0.36784658  0.54393247  1  0  0.192643  0  3.806382  0  0  0.212754  0  4.041514  0  0  0.21812  0  4.068556  0  0  -0.008579  0.209257  0  4.022982  0
C  C51  1  0.24999888  0.63215259  0.45606881  1  0  0.192682  0  3.806382  0  0  0.212646  0  4.041718  0  0  0.218014  0  4.068758  0  0  -0.008575  0.209148  0  4.023193  0
C  C52  1  0.74999386  0.23741012  0.48311926  1  0  -0.208951  0  3.69654  0  0  -0.233055  0  3.93933  0  0  -0.240074  0  3.96027  0  0  -0.105648  -0.228382  0  3.925227  0
C  C53  1  0.24999714  0.76259282  0.51687727  1  0  -0.208855  0  3.695969  0  0  -0.232958  0  3.938752  0  0  -0.239975  0  3.959695  0  0  -0.105718  -0.228281  0  3.924651  0
C  C54  1  0.74999512  0.07361820  0.49378914  1  0  0.181884  0  3.763241  0  0  0.207628  0  3.999197  0  0  0.212317  0  4.020933  0  0  -0.002042  0.204593  0  3.984404  0
C  C55  1  0.24999877  0.92639333  0.50620750  1  0  0.181622  0  3.763111  0  0  0.207519  0  3.998859  0  0  0.212203  0  4.020606  0  0  -0.001998  0.204473  0  3.984078  0
C  C56  1  0.74999318  0.04126090  0.56844425  1  0  -0.18679  0  3.66254  0  0  -0.209708  0  3.898354  0  0  -0.216027  0  3.918413  0  0  -0.096591  -0.205678  0  3.885101  0
C  C57  1  0.25000071  0.95874216  0.43154612  1  0  -0.186593  0  3.66263  0  0  -0.209537  0  3.898382  0  0  -0.215852  0  3.918441  0  0  -0.096536  -0.205496  0  3.885117  0
C  C58  1  0.74999865  0.16671839  0.63107081  1  0  0.192739  0  3.80903  0  0  0.214201  0  4.041001  0  0  0.219598  0  4.066903  0  0  -0.006759  0.210649  0  4.023451  0
C  C59  1  0.24999958  0.83328083  0.36892768  1  0  0.192739  0  3.808908  0  0  0.214142  0  4.040924  0  0  0.219538  0  4.066821  0  0  -0.006762  0.210599  0  4.023365  0
C  C60  1  0.75000103  0.54029282  0.52665201  1  0  -0.355789  0  3.720887  0  0  -0.432256  0  3.950091  0  0  -0.435722  0  3.960216  0  0  -0.245843  -0.42966  0  3.943011  0
C  C61  1  0.24999720  0.45970992  0.47335460  1  0  -0.355803  0  3.720901  0  0  -0.43224  0  3.950159  0  0  -0.435717  0  3.960291  0  0  -0.245821  -0.429637  0  3.943072  0
C  C62  1  0.74999471  0.93647671  0.42766683  1  0  -0.345241  0  3.719237  0  0  -0.423735  0  3.949515  0  0  -0.42642  0  3.959338  0  0  -0.248573  -0.421599  0  3.942788  0
C  C63  1  0.25000062  0.06352998  0.57232607  1  0  -0.345057  0  3.719141  0  0  -0.423678  0  3.949428  0  0  -0.426357  0  3.95925  0  0  -0.24853  -0.421538  0  3.942703  0
C  C64  1  0.75000246  0.12271356  0.70962613  1  0  -0.362053  0  3.748731  0  0  -0.439941  0  3.981051  0  0  -0.44322  0  3.990587  0  0  -0.250944  -0.437359  0  3.974437  0
C  C65  1  0.25000011  0.87727223  0.29036907  1  0  -0.362063  0  3.748772  0  0  -0.439929  0  3.981114  0  0  -0.443187  0  3.990667  0  0  -0.251014  -0.43736  0  3.97449  0
C  C66  1  0.25000206  0.74559305  0.87776172  1  0  -0.463804  0  3.709326  0  0  -0.430676  0  3.976763  0  0  -0.454256  0  4.01067  0  0  -0.106568  -0.414979  0  3.954038  0
C  C67  1  0.75000485  0.25441340  0.12224349  1  0  -0.464002  0  3.709026  0  0  -0.430796  0  3.976603  0  0  -0.454395  0  4.010495  0  0  -0.106667  -0.415098  0  3.953874  0
C  C68  1  0.25000304  0.66613265  0.94230417  1  0  0.196952  0  3.795644  0  0  0.21717  0  4.030341  0  0  0.222348  0  4.057729  0  0  -0.008059  0.21383  0  4.011528  0
C  C69  1  0.75000387  0.33386782  0.05769329  1  0  0.197073  0  3.795708  0  0  0.217237  0  4.030498  0  0  0.222468  0  4.057752  0  0  -0.008018  0.213899  0  4.011685  0
C  C70  1  0.24999889  0.76267091  0.01440157  1  0  -0.203165  0  3.676227  0  0  -0.226338  0  3.913046  0  0  -0.233702  0  3.934888  0  0  -0.102232  -0.221405  0  3.898154  0
C  C71  1  0.74999934  0.23733189  0.98560224  1  0  -0.20301  0  3.67672  0  0  -0.226214  0  3.913494  0  0  -0.233601  0  3.935333  0  0  -0.102108  -0.221276  0  3.898606  0
C  C72  1  0.24999895  0.93398199  0.02419189  1  0  0.182753  0  3.771486  0  0  0.208356  0  4.010236  0  0  0.213024  0  4.03229  0  0  -0.001342  0.205309  0  3.995217  0
C  C73  1  0.74999783  0.06602089  0.97580744  1  0  0.182376  0  3.771966  0  0  0.208087  0  4.010569  0  0  0.212759  0  4.032632  0  0  -0.001474  0.205032  0  3.995557  0
C  C74  1  0.24999812  0.00879677  0.95941520  1  0  -0.180217  0  3.66014  0  0  -0.205568  0  3.898781  0  0  -0.212199  0  3.919685  0  0  -0.093347  -0.201294  0  3.884915  0
C  C75  1  0.74999433  0.99121090  0.04059067  1  0  -0.180012  0  3.660145  0  0  -0.205358  0  3.898789  0  0  -0.211995  0  3.919704  0  0  -0.093297  -0.201081  0  3.884915  0
C  C76  1  0.24999779  0.91815620  0.88618628  1  0  0.183474  0  3.823313  0  0  0.203449  0  4.058624  0  0  0.208888  0  4.084488  0  0  -0.00727  0.199875  0  4.041144  0
C  C77  1  0.75000044  0.08184064  0.11380866  1  0  0.18363  0  3.823175  0  0  0.203381  0  4.058818  0  0  0.208816  0  4.084699  0  0  -0.007259  0.199815  0  4.041317  0
C  C78  1  0.25000439  0.48241278  0.93632268  1  0  -0.354021  0  3.738426  0  0  -0.430284  0  3.968556  0  0  -0.433642  0  3.978416  0  0  -0.243927  -0.427721  0  3.961593  0
C  C79  1  0.75000541  0.51758883  0.06367880  1  0  -0.354161  0  3.738578  0  0  -0.430387  0  3.968717  0  0  -0.433765  0  3.978588  0  0  -0.243967  -0.427828  0  3.961757  0
C  C80  1  0.24999927  0.03665271  0.10147075  1  0  -0.347035  0  3.717044  0  0  -0.427764  0  3.946067  0  0  -0.430237  0  3.955453  0  0  -0.24674  -0.425794  0  3.93972  0
C  C81  1  0.74999752  0.96335131  0.89853316  1  0  -0.346926  0  3.71713  0  0  -0.427677  0  3.946099  0  0  -0.430157  0  3.955485  0  0  -0.24667  -0.425704  0  3.939752  0
C  C82  1  0.25000045  0.01316476  0.82097893  1  0  -0.34636  0  3.731993  0  0  -0.427703  0  3.96519  0  0  -0.430592  0  3.97547  0  0  -0.24502  -0.425436  0  3.958046  0
C  C83  1  0.75000501  0.98684177  0.17902237  1  0  -0.346381  0  3.731872  0  0  -0.427643  0  3.965133  0  0  -0.430533  0  3.975405  0  0  -0.244936  -0.425346  0  3.957997  0
Cl  Cl84  1  0.74999041  0.50137488  0.82734402  1  0  -0.446031  0  1.054272  0  0  -0.395401  0  1.309641  0  0  -0.410415  0  1.293495  0  0  -0.134267  -0.385014  0  1.320711  0
Cl  Cl85  1  0.24998902  0.49861447  0.17265762  1  0  -0.446075  0  1.054273  0  0  -0.395419  0  1.309577  0  0  -0.410431  0  1.293434  0  0  -0.134298  -0.385034  0  1.320642  0
Cl  Cl86  1  0.24999547  0.35803421  0.73344373  1  0  -0.431027  0  1.087607  0  0  -0.380425  0  1.353522  0  0  -0.396667  0  1.338762  0  0  -0.123377  -0.369254  0  1.36373  0
Cl  Cl87  1  0.74999842  0.64196860  0.26655952  1  0  -0.431057  0  1.087638  0  0  -0.380442  0  1.353498  0  0  -0.396684  0  1.338738  0  0  -0.123377  -0.369277  0  1.363707  0
Cl  Cl88  1  0.99815227  0.70325693  0.69900315  1  0  -0.394311  0  1.209535  0  0  -0.327535  0  1.490507  0  0  -0.34319  0  1.47168  0  0  -0.063829  -0.316231  0  1.50422  0
Cl  Cl89  1  0.49815474  0.29673990  0.30099633  1  0  -0.394316  0  1.209564  0  0  -0.327562  0  1.490565  0  0  -0.343217  0  1.471737  0  0  -0.063827  -0.316259  0  1.504273  0
Cl  Cl90  1  0.00185030  0.29674464  0.30100056  1  0  -0.39429  0  1.20951  0  0  -0.327537  0  1.490507  0  0  -0.343192  0  1.47168  0  0  -0.063809  -0.316235  0  1.50422  0
Cl  Cl91  1  0.50185216  0.70324953  0.69900083  1  0  -0.394291  0  1.209514  0  0  -0.327532  0  1.490517  0  0  -0.343188  0  1.471692  0  0  -0.063827  -0.316229  0  1.504232  0
