# generated using pymatgen
data_CuH30C16S2Br
_symmetry_space_group_name_H-M   'P 1'
_cell_length_a   8.38458382
_cell_length_b   10.23037556
_cell_length_c   10.67468096
_cell_angle_alpha   75.53490478
_cell_angle_beta   77.33047076
_cell_angle_gamma   87.38845006
_symmetry_Int_Tables_number   1
_chemical_formula_structural   CuH30C16S2Br
_chemical_formula_sum   'Cu2 H60 C32 S4 Br2'
_cell_volume   864.99155648
_cell_formula_units_Z   2
loop_
 _symmetry_equiv_pos_site_id
 _symmetry_equiv_pos_as_xyz
  1  'x, y, z'
loop_
 _atom_site_type_symbol
 _atom_site_label
 _atom_site_symmetry_multiplicity
 _atom_site_fract_x
 _atom_site_fract_y
 _atom_site_fract_z
 _atom_site_occupancy
 _atom_site_hle17_bader_spin_density
 _atom_site_hle17_ddec_charge
 _atom_site_hle17_ddec_spin_density
 _atom_site_hle17_ddec_sum_bond_order
 _atom_site_hle17_magmom
 _atom_site_hse06_10hf_bader_spin_density
 _atom_site_hse06_10hf_ddec_charge
 _atom_site_hse06_10hf_ddec_spin_density
 _atom_site_hse06_10hf_ddec_sum_bond_order
 _atom_site_hse06_10hf_magmom
 _atom_site_hse06_bader_spin_density
 _atom_site_hse06_ddec_charge
 _atom_site_hse06_ddec_spin_density
 _atom_site_hse06_ddec_sum_bond_order
 _atom_site_hse06_magmom
 _atom_site_pbe_bader_spin_density
 _atom_site_pbe_cm5_charge
 _atom_site_pbe_ddec_charge
 _atom_site_pbe_ddec_spin_density
 _atom_site_pbe_ddec_sum_bond_order
 _atom_site_pbe_magmom
Cu  Cu0  1  0.04359431  0.16135451  0.46689734  1  0  0.223444  0  2.156175  0  0  0.138646  0  2.655591  0  0  0.146153  0  2.607299  0  0  0.275317  0.135994  0  2.685041  0
Cu  Cu1  1  0.95640511  0.83864952  0.53310253  1  0  0.223444  0  2.156276  0  0  0.138667  0  2.655718  0  0  0.146151  0  2.607396  0  0  0.275322  0.136003  0  2.685134  0
H  H2  1  0.92596230  0.51332854  0.17544953  1  0  0.055324  0  0.929325  0  0  0.072119  0  0.985928  0  0  0.072275  0  0.987496  0  0  0.096607  0.072731  0  0.984088  0
H  H3  1  0.07403828  0.48667245  0.82455088  1  0  0.055315  0  0.929322  0  0  0.072112  0  0.985923  0  0  0.072267  0  0.987495  0  0  0.096605  0.072724  0  0.984085  0
H  H4  1  0.16743861  0.46870089  0.35969859  1  0  0.061012  0  0.975208  0  0  0.075533  0  1.049254  0  0  0.076199  0  1.049732  0  0  0.080455  0.074952  0  1.04872  0
H  H5  1  0.83256322  0.53130111  0.64030136  1  0  0.061027  0  0.975217  0  0  0.075535  0  1.049266  0  0  0.076204  0  1.049745  0  0  0.080453  0.074954  0  1.048733  0
H  H6  1  0.99115356  0.57017702  0.37225046  1  0  0.066971  0  0.968032  0  0  0.082927  0  1.036489  0  0  0.08383  0  1.036608  0  0  0.082783  0.082187  0  1.036601  0
H  H7  1  0.00884951  0.42982598  0.62774810  1  0  0.066996  0  0.968043  0  0  0.082955  0  1.036484  0  0  0.083867  0  1.036589  0  0  0.082788  0.082217  0  1.036596  0
H  H8  1  0.23708360  0.71427620  0.25997840  1  0  0.066571  0  0.953015  0  0  0.08178  0  1.020495  0  0  0.083139  0  1.020205  0  0  0.082351  0.081016  0  1.020603  0
H  H9  1  0.76291945  0.28572578  0.74001760  1  0  0.066599  0  0.952995  0  0  0.081815  0  1.020469  0  0  0.083169  0  1.020182  0  0  0.082363  0.081051  0  1.020577  0
H  H10  1  0.10594226  0.72234971  0.15032522  1  0  0.057362  0  0.943949  0  0  0.07795  0  1.005261  0  0  0.078462  0  1.005998  0  0  0.085318  0.077231  0  1.005481  0
H  H11  1  0.89405712  0.27765229  0.84967234  1  0  0.05739  0  0.943919  0  0  0.077968  0  1.005237  0  0  0.078476  0  1.005974  0  0  0.085317  0.077249  0  1.005459  0
H  H12  1  0.39299909  0.69358817  0.03603346  1  0  0.063681  0  0.947108  0  0  0.084656  0  1.005457  0  0  0.08533  0  1.006151  0  0  0.089696  0.084179  0  1.004916  0
H  H13  1  0.60700151  0.30641381  0.96396108  1  0  0.063638  0  0.947175  0  0  0.084653  0  1.005466  0  0  0.085327  0  1.006158  0  0  0.089705  0.084173  0  1.004923  0
H  H14  1  0.40948057  0.54519286  0.15940862  1  0  0.053608  0  0.956672  0  0  0.076617  0  1.015858  0  0  0.076611  0  1.017239  0  0  0.085119  0.076622  0  1.014651  0
H  H15  1  0.59051753  0.45480611  0.84058709  1  0  0.053603  0  0.956697  0  0  0.076575  0  1.015912  0  0  0.076564  0  1.017306  0  0  0.085105  0.076585  0  1.014697  0
H  H16  1  0.35096362  0.48448005  0.96224351  1  0  0.059943  0  0.958856  0  0  0.080762  0  1.018017  0  0  0.081336  0  1.018859  0  0  0.087456  0.080288  0  1.017576  0
H  H17  1  0.64903328  0.51551995  0.03775497  1  0  0.059948  0  0.958852  0  0  0.080761  0  1.018019  0  0  0.081338  0  1.018858  0  0  0.08746  0.080285  0  1.017577  0
H  H18  1  0.17759657  0.58912797  0.96706090  1  0  0.056623  0  0.957328  0  0  0.07214  0  1.028993  0  0  0.072722  0  1.029531  0  0  0.08367  0.071434  0  1.029166  0
H  H19  1  0.82240154  0.41087100  0.03293574  1  0  0.056669  0  0.957329  0  0  0.072165  0  1.029015  0  0  0.072748  0  1.029551  0  0  0.083672  0.071458  0  1.029188  0
H  H20  1  0.22510093  0.33019855  0.17542177  1  0  0.067892  0  0.944752  0  0  0.083674  0  1.013099  0  0  0.085539  0  1.011459  0  0  0.08641  0.082155  0  1.014318  0
H  H21  1  0.77489846  0.66980346  0.82457673  1  0  0.067882  0  0.944747  0  0  0.083678  0  1.013082  0  0  0.085532  0  1.011462  0  0  0.086404  0.082159  0  1.014303  0
H  H22  1  0.09030913  0.35072712  0.06693005  1  0  0.065726  0  0.949283  0  0  0.081058  0  1.017155  0  0  0.082265  0  1.017134  0  0  0.086557  0.080181  0  1.017152  0
H  H23  1  0.90968899  0.64927288  0.93307196  1  0  0.065746  0  0.949273  0  0  0.08107  0  1.017146  0  0  0.08228  0  1.017129  0  0  0.086555  0.080198  0  1.017138  0
H  H24  1  0.70064352  0.29108733  0.52270962  1  0  0.087867  0  0.964901  0  0  0.103696  0  1.028651  0  0  0.105508  0  1.027777  0  0  0.089121  0.10204  0  1.029537  0
H  H25  1  0.29935706  0.70891368  0.47729360  1  0  0.087907  0  0.964885  0  0  0.103733  0  1.028627  0  0  0.105549  0  1.02775  0  0  0.08915  0.102081  0  1.029505  0
H  H26  1  0.77532174  0.45836079  0.45321820  1  0  0.08268  0  0.976596  0  0  0.094979  0  1.048315  0  0  0.095859  0  1.049433  0  0  0.091836  0.093879  0  1.048379  0
H  H27  1  0.22467638  0.54163923  0.54678756  1  0  0.082716  0  0.976601  0  0  0.094995  0  1.048323  0  0  0.095874  0  1.049442  0  0  0.091866  0.093896  0  1.048385  0
H  H28  1  0.62912008  0.47678935  0.26533227  1  0  0.055326  0  0.969793  0  0  0.070979  0  1.04122  0  0  0.071958  0  1.041031  0  0  0.084994  0.070376  0  1.041278  0
H  H29  1  0.37088047  0.52320964  0.73467144  1  0  0.055243  0  0.969827  0  0  0.07091  0  1.041241  0  0  0.071896  0  1.041043  0  0  0.084983  0.070305  0  1.0413  0
H  H30  1  0.49529307  0.45544798  0.42125902  1  0  0.066161  0  0.954489  0  0  0.086345  0  1.015388  0  0  0.086596  0  1.01682  0  0  0.086634  0.085994  0  1.014827  0
H  H31  1  0.50470505  0.54455202  0.57874299  1  0  0.066163  0  0.954461  0  0  0.086331  0  1.015377  0  0  0.086579  0  1.016814  0  0  0.086646  0.085978  0  1.014819  0
H  H32  1  0.42094472  0.31431732  0.27733714  1  0  0.06461  0  0.948148  0  0  0.083895  0  1.010118  0  0  0.084985  0  1.009579  0  0  0.086411  0.083211  0  1.010055  0
H  H33  1  0.57905464  0.68568370  0.72266628  1  0  0.06465  0  0.94815  0  0  0.083951  0  1.010082  0  0  0.085028  0  1.009562  0  0  0.086449  0.083267  0  1.010016  0
H  H34  1  0.60792459  0.23011076  0.28026165  1  0  0.07347  0  0.970198  0  0  0.092711  0  1.03095  0  0  0.092921  0  1.032716  0  0  0.090692  0.092322  0  1.030382  0
H  H35  1  0.39207353  0.76988924  0.71973942  1  0  0.073474  0  0.970202  0  0  0.09271  0  1.030966  0  0  0.092925  0  1.032729  0  0  0.090675  0.092321  0  1.030395  0
H  H36  1  0.51387343  0.15716397  0.53680684  1  0  0.086878  0  0.960814  0  0  0.100145  0  1.028942  0  0  0.101451  0  1.029089  0  0  0.092212  0.100629  0  1.027075  0
H  H37  1  0.48612589  0.84283502  0.46319614  1  0  0.086888  0  0.960805  0  0  0.100162  0  1.028938  0  0  0.101471  0  1.029079  0  0  0.092226  0.10065  0  1.027066  0
H  H38  1  0.40743942  0.08364432  0.44309055  1  0  0.085337  0  0.985178  0  0  0.097228  0  1.055197  0  0  0.098801  0  1.055267  0  0  0.082899  0.095911  0  1.055483  0
H  H39  1  0.59256231  0.91635262  0.55690971  1  0  0.085373  0  0.985179  0  0  0.097297  0  1.055172  0  0  0.098869  0  1.055243  0  0  0.082938  0.095981  0  1.055459  0
H  H40  1  0.08588711  0.16965403  0.75609810  1  0  0.063312  0  0.934192  0  0  0.079062  0  0.992759  0  0  0.079497  0  0.99367  0  0  0.09809  0.079102  0  0.991866  0
H  H41  1  0.91411218  0.83034293  0.24390351  1  0  0.063268  0  0.934127  0  0  0.079025  0  0.992714  0  0  0.07946  0  0.993625  0  0  0.098062  0.079065  0  0.991819  0
H  H42  1  0.29937177  0.32065608  0.77543413  1  0  0.059789  0  0.964846  0  0  0.077121  0  1.030596  0  0  0.077826  0  1.031232  0  0  0.081894  0.076285  0  1.030481  0
H  H43  1  0.70062388  0.67934290  0.22456387  1  0  0.059838  0  0.964887  0  0  0.077169  0  1.030614  0  0  0.077874  0  1.031247  0  0  0.081911  0.076333  0  1.030498  0
H  H44  1  0.45248941  0.20065029  0.74439273  1  0  0.070884  0  0.932815  0  0  0.090016  0  0.994456  0  0  0.09084  0  0.99512  0  0  0.087044  0.089077  0  0.994452  0
H  H45  1  0.54751117  0.79935069  0.25560393  1  0  0.070925  0  0.932763  0  0  0.09004  0  0.994414  0  0  0.090865  0  0.995078  0  0  0.087066  0.089102  0  0.994411  0
H  H46  1  0.36918151  0.18004426  0.98608981  1  0  0.059501  0  0.948537  0  0  0.078015  0  1.01048  0  0  0.078876  0  1.010755  0  0  0.085997  0.077692  0  1.009889  0
H  H47  1  0.63082031  0.81995772  0.01390640  1  0  0.059525  0  0.948573  0  0  0.078012  0  1.01052  0  0  0.078872  0  1.010799  0  0  0.086016  0.077689  0  1.009928  0
H  H48  1  0.16235102  0.16172052  0.98315731  1  0  0.051916  0  0.95374  0  0  0.071463  0  1.017891  0  0  0.072061  0  1.018206  0  0  0.083148  0.07129  0  1.017147  0
H  H49  1  0.83764712  0.83828047  0.01683977  1  0  0.051875  0  0.953751  0  0  0.071395  0  1.01792  0  0  0.072007  0  1.01822  0  0  0.083108  0.071223  0  1.017175  0
H  H50  1  0.27743356  0.93880146  0.06479772  1  0  0.066875  0  0.957013  0  0  0.082905  0  1.023385  0  0  0.083753  0  1.024187  0  0  0.08167  0.081781  0  1.0236  0
H  H51  1  0.72256705  0.06120054  0.93520150  1  0  0.066859  0  0.956955  0  0  0.082876  0  1.023358  0  0  0.083726  0  1.024161  0  0  0.08166  0.081755  0  1.02357  0
H  H52  1  0.43680982  0.96423807  0.92120544  1  0  0.061627  0  0.944382  0  0  0.0816  0  1.005755  0  0  0.082016  0  1.006719  0  0  0.085524  0.080784  0  1.005733  0
H  H53  1  0.56319073  0.03576090  0.07879547  1  0  0.061615  0  0.944381  0  0  0.081581  0  1.005769  0  0  0.081997  0  1.006731  0  0  0.085519  0.080768  0  1.005746  0
H  H54  1  0.07132755  0.94378694  0.92491782  1  0  0.0584  0  0.949431  0  0  0.078523  0  1.011303  0  0  0.079059  0  1.011966  0  0  0.084893  0.078506  0  1.010188  0
H  H55  1  0.92867789  0.05621200  0.07508131  1  0  0.058397  0  0.94943  0  0  0.078551  0  1.011244  0  0  0.079088  0  1.011904  0  0  0.084899  0.078535  0  1.010127  0
H  H56  1  0.21944494  0.82049726  0.89686347  1  0  0.052361  0  0.970092  0  0  0.067453  0  1.043633  0  0  0.06806  0  1.044077  0  0  0.081159  0.066648  0  1.044288  0
H  H57  1  0.78055677  0.17949868  0.10313797  1  0  0.052401  0  0.970013  0  0  0.067461  0  1.043599  0  0  0.068065  0  1.044046  0  0  0.081189  0.066655  0  1.044254  0
H  H58  1  0.36917764  0.98165130  0.69414127  1  0  0.0674  0  0.953674  0  0  0.089023  0  1.012698  0  0  0.089135  0  1.014185  0  0  0.087028  0.088107  0  1.013384  0
H  H59  1  0.63082168  0.01834768  0.30585984  1  0  0.067385  0  0.953717  0  0  0.088996  0  1.012734  0  0  0.089108  0  1.01422  0  0  0.087013  0.088084  0  1.013419  0
H  H60  1  0.16380346  0.96045437  0.68334931  1  0  0.064103  0  1.000769  0  0  0.071113  0  1.083492  0  0  0.073038  0  1.082466  0  0  0.072467  0.069148  0  1.085266  0
H  H61  1  0.83619464  0.03954462  0.31665295  1  0  0.064054  0  1.000716  0  0  0.071031  0  1.083465  0  0  0.072957  0  1.082438  0  0  0.07243  0.069066  0  1.085238  0
C  C62  1  0.01551560  0.45151294  0.22606406  1  0  0.006272  0  3.596407  0  0  0.010452  0  3.841436  0  0  0.010241  0  3.8587  0  0  -0.075031  0.010271  0  3.829242  0
C  C63  1  0.98448499  0.54848805  0.77393541  1  0  0.006381  0  3.596282  0  0  0.010566  0  3.841294  0  0  0.010355  0  3.858567  0  0  -0.074987  0.010381  0  3.829105  0
C  C64  1  0.08797184  0.53423837  0.30133636  1  0  -0.145515  0  3.682526  0  0  -0.188422  0  3.932832  0  0  -0.19014  0  3.94868  0  0  -0.173702  -0.186634  0  3.921464  0
C  C65  1  0.91202997  0.46576261  0.69866197  1  0  -0.145598  0  3.682648  0  0  -0.188493  0  3.932936  0  0  -0.190193  0  3.94874  0  0  -0.173738  -0.186704  0  3.921571  0
C  C66  1  0.18734493  0.65424404  0.20481957  1  0  -0.100368  0  3.673207  0  0  -0.136497  0  3.929583  0  0  -0.137748  0  3.94398  0  0  -0.168663  -0.135982  0  3.920146  0
C  C67  1  0.81265201  0.34575797  0.79517841  1  0  -0.100464  0  3.673322  0  0  -0.136628  0  3.929717  0  0  -0.137868  0  3.944106  0  0  -0.168669  -0.136112  0  3.920281  0
C  C68  1  0.32301033  0.60684209  0.10547195  1  0  -0.106068  0  3.683217  0  0  -0.145296  0  3.939159  0  0  -0.146404  0  3.954286  0  0  -0.1689  -0.144352  0  3.928424  0
C  C69  1  0.67699029  0.39316091  0.89452609  1  0  -0.105955  0  3.683423  0  0  -0.145135  0  3.939271  0  0  -0.146248  0  3.9544  0  0  -0.168864  -0.144186  0  3.928532  0
C  C70  1  0.25248036  0.52312330  0.02969540  1  0  -0.101029  0  3.675226  0  0  -0.139358  0  3.933782  0  0  -0.140445  0  3.94876  0  0  -0.167031  -0.138532  0  3.923374  0
C  C71  1  0.74751776  0.47687668  0.97030193  1  0  -0.101104  0  3.675459  0  0  -0.139444  0  3.934014  0  0  -0.140529  0  3.948992  0  0  -0.167061  -0.138616  0  3.923605  0
C  C72  1  0.14750466  0.40470706  0.12308600  1  0  -0.136507  0  3.678881  0  0  -0.179107  0  3.93504  0  0  -0.180692  0  3.949572  0  0  -0.168022  -0.177633  0  3.924878  0
C  C73  1  0.85249350  0.59529496  0.87691551  1  0  -0.136533  0  3.678827  0  0  -0.179125  0  3.934971  0  0  -0.180719  0  3.949531  0  0  -0.16801  -0.177651  0  3.924808  0
C  C74  1  0.73235975  0.36943854  0.42948097  1  0  -0.143057  0  3.615686  0  0  -0.177796  0  3.872655  0  0  -0.178459  0  3.88431  0  0  -0.155715  -0.176997  0  3.86534  0
C  C75  1  0.26763961  0.63056247  0.57052245  1  0  -0.143202  0  3.615775  0  0  -0.177895  0  3.872693  0  0  -0.178561  0  3.88435  0  0  -0.155795  -0.17711  0  3.865403  0
C  C76  1  0.58842381  0.40371983  0.36116156  1  0  -0.104744  0  3.713381  0  0  -0.148525  0  3.977304  0  0  -0.149803  0  3.993034  0  0  -0.172043  -0.147921  0  3.967259  0
C  C77  1  0.41157554  0.59628017  0.63884211  1  0  -0.104574  0  3.713291  0  0  -0.148356  0  3.977195  0  0  -0.149635  0  3.992932  0  0  -0.172032  -0.147755  0  3.967161  0
C  C78  1  0.51229352  0.28130884  0.33837646  1  0  -0.105102  0  3.688975  0  0  -0.143532  0  3.94353  0  0  -0.144801  0  3.958773  0  0  -0.171401  -0.142403  0  3.933265  0
C  C79  1  0.48770703  0.71869014  0.66162538  1  0  -0.105232  0  3.689049  0  0  -0.143674  0  3.943641  0  0  -0.144947  0  3.958903  0  0  -0.171427  -0.142538  0  3.93337  0
C  C80  1  0.43420602  0.17854283  0.46500302  1  0  -0.134937  0  3.603382  0  0  -0.168584  0  3.857918  0  0  -0.169537  0  3.870172  0  0  -0.156913  -0.168423  0  3.848211  0
C  C81  1  0.56579447  0.82145312  0.53499956  1  0  -0.134895  0  3.603427  0  0  -0.168575  0  3.857979  0  0  -0.169523  0  3.870229  0  0  -0.15695  -0.168425  0  3.848281  0
C  C82  1  0.21595466  0.15177688  0.71729758  1  0  0.016096  0  3.593664  0  0  0.020031  0  3.836844  0  0  0.02042  0  3.853444  0  0  -0.075584  0.018085  0  3.825902  0
C  C83  1  0.78404226  0.84822412  0.28270158  1  0  0.016233  0  3.593568  0  0  0.020119  0  3.836754  0  0  0.020507  0  3.853356  0  0  -0.075587  0.018174  0  3.825813  0
C  C84  1  0.32228596  0.21195597  0.78869174  1  0  -0.13714  0  3.678101  0  0  -0.180323  0  3.933042  0  0  -0.182234  0  3.948944  0  0  -0.170327  -0.178663  0  3.922914  0
C  C85  1  0.67771459  0.78804299  0.21130636  1  0  -0.137246  0  3.678243  0  0  -0.180401  0  3.933129  0  0  -0.182314  0  3.949035  0  0  -0.170337  -0.178741  0  3.923  0
C  C86  1  0.28809231  0.13968975  0.93626584  1  0  -0.097154  0  3.684817  0  0  -0.136345  0  3.945081  0  0  -0.137323  0  3.959956  0  0  -0.167617  -0.136204  0  3.93457  0
C  C87  1  0.71190705  0.86031125  0.06373291  1  0  -0.097174  0  3.685003  0  0  -0.136283  0  3.945163  0  0  -0.137273  0  3.960043  0  0  -0.167607  -0.136143  0  3.934649  0
C  C88  1  0.30768847  0.98681401  0.95811288  1  0  -0.121213  0  3.691421  0  0  -0.159558  0  3.950224  0  0  -0.160675  0  3.96465  0  0  -0.173566  -0.158082  0  3.939914  0
C  C89  1  0.69231087  0.01318598  0.04188892  1  0  -0.121136  0  3.691346  0  0  -0.159501  0  3.950148  0  0  -0.160621  0  3.964579  0  0  -0.173548  -0.158025  0  3.939833  0
C  C90  1  0.20185873  0.92990449  0.88404448  1  0  -0.102119  0  3.687849  0  0  -0.143599  0  3.951652  0  0  -0.144485  0  3.966107  0  0  -0.17014  -0.142901  0  3.941052  0
C  C91  1  0.79814418  0.07009043  0.11595700  1  0  -0.102171  0  3.687831  0  0  -0.143614  0  3.951566  0  0  -0.144498  0  3.966022  0  0  -0.170161  -0.142912  0  3.940965  0
C  C92  1  0.24067684  0.00033527  0.73646678  1  0  -0.149388  0  3.692778  0  0  -0.189406  0  3.936916  0  0  -0.191659  0  3.953033  0  0  -0.17764  -0.186798  0  3.926351  0
C  C93  1  0.75932369  0.99966269  0.26353344  1  0  -0.149351  0  3.692787  0  0  -0.18931  0  3.936891  0  0  -0.191563  0  3.953011  0  0  -0.177596  -0.186726  0  3.926381  0
S  S94  1  0.90367887  0.29907113  0.33045488  1  0  0.006993  0  2.765473  0  0  0.028168  0  3.197703  0  0  0.029928  0  3.182881  0  0  -0.031825  0.025086  0  3.209248  0
S  S95  1  0.09632049  0.70092987  0.66954667  1  0  0.006967  0  2.765538  0  0  0.028118  0  3.197763  0  0  0.029891  0  3.182917  0  0  -0.031844  0.025047  0  3.20929  0
S  S96  1  0.24026197  0.24181128  0.54276491  1  0  -0.022233  0  2.752995  0  0  -0.000712  0  3.18595  0  0  0.000218  0  3.170468  0  0  -0.037878  0.000424  0  3.194714  0
S  S97  1  0.75973860  0.75818870  0.45723388  1  0  -0.022339  0  2.753021  0  0  -0.000827  0  3.186036  0  0  0.000119  0  3.170528  0  0  -0.037901  0.000323  0  3.194779  0
Br  Br98  1  0.82677198  0.02461162  0.64577365  1  0  -0.499413  0  1.188236  0  0  -0.425704  0  1.531446  0  0  -0.442486  0  1.501043  0  0  -0.273432  -0.41408  0  1.551912  0
Br  Br99  1  0.17322717  0.97537825  0.35422315  1  0  -0.499448  0  1.188216  0  0  -0.42574  0  1.531416  0  0  -0.442528  0  1.501027  0  0  -0.273458  -0.414105  0  1.551863  0
