# generated using pymatgen
data_ZnH34C48(N2O5)2
_symmetry_space_group_name_H-M   'P 1'
_cell_length_a   7.03240823
_cell_length_b   17.70744289
_cell_length_c   21.42781361
_cell_angle_alpha   90.00084436
_cell_angle_beta   95.60866716
_cell_angle_gamma   90.00174497
_symmetry_Int_Tables_number   1
_chemical_formula_structural   ZnH34C48(N2O5)2
_chemical_formula_sum   'Zn2 H68 C96 N8 O20'
_cell_volume   2655.54497221
_cell_formula_units_Z   2
loop_
 _symmetry_equiv_pos_site_id
 _symmetry_equiv_pos_as_xyz
  1  'x, y, z'
loop_
 _atom_site_type_symbol
 _atom_site_label
 _atom_site_symmetry_multiplicity
 _atom_site_fract_x
 _atom_site_fract_y
 _atom_site_fract_z
 _atom_site_occupancy
 _atom_site_pbe_bader_charge
 _atom_site_pbe_bader_spin_density
 _atom_site_pbe_cm5_charge
 _atom_site_pbe_ddec_charge
 _atom_site_pbe_ddec_spin_density
 _atom_site_pbe_ddec_sum_bond_order
 _atom_site_pbe_magmom
Zn  Zn0  1  0.00000829  0.50000161  0.00000290  1  1.319615  0  0.672176  0.836491  0  2.306105  0
Zn  Zn1  1  0.50001111  0.99999958  0.49999654  1  1.319732  0  0.672166  0.836535  0  2.306129  0
H  H2  1  0.61032876  0.59261304  0.67339221  1  0.100847  0  0.109577  0.111212  0  0.991712  0
H  H3  1  0.88969017  0.09261112  0.82660682  1  0.100652  0  0.109611  0.111265  0  0.991773  0
H  H4  1  0.38967863  0.40737975  0.32661502  1  0.10101  0  0.109574  0.11114  0  0.991784  0
H  H5  1  0.11031575  0.90739240  0.17338917  1  0.100869  0  0.109583  0.111159  0  0.99171  0
H  H6  1  0.63879080  0.47998430  0.60752025  1  0.073413  0  0.103972  0.104445  0  1.000181  0
H  H7  1  0.86120436  0.97998132  0.89247211  1  0.073294  0  0.103932  0.104403  0  1.000238  0
H  H8  1  0.36117941  0.52001075  0.39247600  1  0.072828  0  0.103875  0.104322  0  1.000314  0
H  H9  1  0.13879585  0.02002051  0.10752416  1  0.073213  0  0.103958  0.104466  0  1.000286  0
H  H10  1  0.83364942  0.61887216  0.46173555  1  0.110695  0  0.100465  0.100543  0  1.028893  0
H  H11  1  0.66634962  0.11886637  0.03826123  1  0.110407  0  0.100486  0.10053  0  1.028947  0
H  H12  1  0.16632080  0.38113079  0.53826537  1  0.110515  0  0.10052  0.100637  0  1.028782  0
H  H13  1  0.33366631  0.88113772  0.96173694  1  0.110591  0  0.100486  0.100549  0  1.02894  0
H  H14  1  0.80778087  0.73241863  0.52928715  1  0.069255  0  0.098305  0.093937  0  1.026816  0
H  H15  1  0.69224338  0.23241621  0.97071612  1  0.069387  0  0.098269  0.093924  0  1.026758  0
H  H16  1  0.19222368  0.26757981  0.47072373  1  0.069295  0  0.098319  0.09396  0  1.026941  0
H  H17  1  0.30778683  0.76758844  0.02928250  1  0.069777  0  0.098249  0.093879  0  1.026684  0
H  H18  1  0.70849156  0.38851708  0.55441447  1  0.048108  0  0.105947  0.111261  0  1.017623  0
H  H19  1  0.79148783  0.88850908  0.94558279  1  0.048155  0  0.105888  0.111194  0  1.017602  0
H  H20  1  0.29153438  0.61147966  0.44558635  1  0.048121  0  0.105995  0.111283  0  1.017527  0
H  H21  1  0.20844951  0.11148371  0.05441149  1  0.048222  0  0.105996  0.111284  0  1.017441  0
H  H22  1  0.79315389  0.31768304  0.36695241  1  0.089531  0  0.110798  0.120605  0  1.015959  0
H  H23  1  0.70682796  0.81768037  0.13304350  1  0.089525  0  0.110786  0.120554  0  1.016128  0
H  H24  1  0.20685634  0.68232104  0.63304931  1  0.089488  0  0.110761  0.120582  0  1.01602  0
H  H25  1  0.29316225  0.18231524  0.86695293  1  0.089412  0  0.110784  0.120515  0  1.016192  0
H  H26  1  0.71885912  0.36243754  0.27587374  1  0.084275  0  0.104413  0.111836  0  1.010272  0
H  H27  1  0.78115623  0.86244812  0.22411492  1  0.084532  0  0.104485  0.11193  0  1.010084  0
H  H28  1  0.28114823  0.63756090  0.72412229  1  0.084702  0  0.104435  0.111909  0  1.010266  0
H  H29  1  0.21883968  0.13755370  0.77587889  1  0.084606  0  0.10444  0.111922  0  1.010176  0
H  H30  1  0.81490711  0.39823234  0.17138355  1  0.085076  0  0.101824  0.102421  0  1.007491  0
H  H31  1  0.68512537  0.89824073  0.32861170  1  0.085038  0  0.101816  0.102347  0  1.007494  0
H  H32  1  0.18511168  0.60177062  0.82861565  1  0.085177  0  0.101861  0.102426  0  1.007518  0
H  H33  1  0.31487770  0.10176618  0.67138513  1  0.08509  0  0.101859  0.102401  0  1.007427  0
H  H34  1  0.09861641  0.59589291  0.25052614  1  0.096075  0  0.103172  0.106632  0  1.007155  0
H  H35  1  0.40140056  0.09589543  0.24947769  1  0.096093  0  0.103164  0.106673  0  1.007201  0
H  H36  1  0.90143385  0.40409988  0.74948432  1  0.096137  0  0.103156  0.106695  0  1.007198  0
H  H37  1  0.59856962  0.90409905  0.75051156  1  0.096213  0  0.103156  0.106656  0  1.007021  0
H  H38  1  0.99335530  0.56254110  0.35546833  1  0.091571  0  0.099234  0.097351  0  1.023744  0
H  H39  1  0.50664474  0.06254422  0.14453222  1  0.091508  0  0.099211  0.097374  0  1.023745  0
H  H40  1  0.00666895  0.43745111  0.64453827  1  0.091518  0  0.099195  0.097312  0  1.023753  0
H  H41  1  0.49332258  0.93745252  0.85545741  1  0.091539  0  0.09917  0.097212  0  1.023931  0
H  H42  1  0.89492098  0.21449638  0.41158180  1  0.117204  0  0.111235  0.124816  0  1.021319  0
H  H43  1  0.60506846  0.71449280  0.08841540  1  0.117222  0  0.111234  0.124831  0  1.021315  0
H  H44  1  0.10510068  0.78550488  0.58842028  1  0.117442  0  0.111287  0.124849  0  1.021207  0
H  H45  1  0.39489888  0.28551016  0.91157796  1  0.117382  0  0.111261  0.124803  0  1.021271  0
H  H46  1  0.79688520  0.08241024  0.43146777  1  0.125286  0  0.123413  0.101095  0  0.986051  0
H  H47  1  0.70312671  0.58240866  0.06853924  1  0.125164  0  0.123415  0.101056  0  0.986111  0
H  H48  1  0.20312643  0.91759271  0.56852607  1  0.125038  0  0.123434  0.101148  0  0.985965  0
H  H49  1  0.29688498  0.41759486  0.93147233  1  0.124821  0  0.123425  0.101135  0  0.986018  0
H  H50  1  0.45746559  0.14918351  0.56828187  1  0.132159  0  0.119317  0.092357  0  1.004345  0
H  H51  1  0.04255183  0.64917951  0.93172458  1  0.13229  0  0.11932  0.092305  0  1.004411  0
H  H52  1  0.54255320  0.85081323  0.43171639  1  0.131949  0  0.11934  0.092445  0  1.004332  0
H  H53  1  0.95745841  0.35082344  0.06828134  1  0.132278  0  0.119291  0.092264  0  1.004442  0
H  H54  1  0.53323045  0.28536896  0.55317195  1  0.077291  0  0.11115  0.11983  0  0.997659  0
H  H55  1  0.96676366  0.78536485  0.94682590  1  0.077393  0  0.111114  0.119799  0  0.997642  0
H  H56  1  0.46679978  0.71462666  0.44682994  1  0.075541  0  0.111164  0.119807  0  0.997646  0
H  H57  1  0.03319511  0.21463979  0.05316953  1  0.076598  0  0.111111  0.119873  0  0.997612  0
H  H58  1  0.72081736  0.84711154  0.64337599  1  0.66239  0  0.308564  0.375964  0  0.956458  0
H  H59  1  0.77918736  0.34710142  0.85662762  1  0.662437  0  0.308509  0.375917  0  0.956742  0
H  H60  1  0.27918574  0.15287899  0.35662924  1  0.662263  0  0.308513  0.375936  0  0.956476  0
H  H61  1  0.22082717  0.65289645  0.14337844  1  0.662502  0  0.308465  0.375863  0  0.956543  0
H  H62  1  0.33351395  0.58502791  0.01010520  1  0.607941  0  0.315377  0.390966  0  0.89404  0
H  H63  1  0.16649933  0.08500969  0.48990631  1  0.607294  0  0.315354  0.390915  0  0.894343  0
H  H64  1  0.66651060  0.41498013  0.98990677  1  0.607171  0  0.315372  0.390963  0  0.894105  0
H  H65  1  0.83350373  0.91498705  0.51009052  1  0.60715  0  0.315405  0.390999  0  0.894135  0
H  H66  1  0.26136176  0.55431608  0.07432922  1  0.657978  0  0.282116  0.370223  0  0.981967  0
H  H67  1  0.23863337  0.05430780  0.42567574  1  0.658022  0  0.282204  0.370372  0  0.98172  0
H  H68  1  0.73867136  0.44568179  0.92568163  1  0.657944  0  0.282148  0.370353  0  0.9818  0
H  H69  1  0.76136398  0.94569007  0.57432091  1  0.658064  0  0.282229  0.37041  0  0.98168  0
C  C70  1  0.67292969  0.73797352  0.64367107  1  1.50901  0  0.220545  0.573372  0  4.144699  0
C  C71  1  0.82707642  0.23796569  0.85632983  1  1.508931  0  0.220451  0.573247  0  4.14504  0
C  C72  1  0.32707628  0.26201758  0.35633845  1  1.508558  0  0.220569  0.573264  0  4.144538  0
C  C73  1  0.17294092  0.76203952  0.14366278  1  1.508497  0  0.220475  0.573196  0  4.144492  0
C  C74  1  0.70720021  0.66983369  0.60569509  1  -0.04961  0  -0.022005  -0.05355  0  3.990396  0
C  C75  1  0.79281053  0.16982554  0.89430464  1  -0.050318  0  -0.021852  -0.053382  0  3.990371  0
C  C76  1  0.29282576  0.33015910  0.39431226  1  -0.049377  0  -0.021996  -0.053403  0  3.989714  0
C  C77  1  0.20717826  0.83017572  0.10569407  1  -0.050591  0  -0.021862  -0.05334  0  3.990694  0
C  C78  1  0.66099573  0.59803892  0.62712523  1  0.000928  0  -0.076  -0.07555  0  3.962614  0
C  C79  1  0.83900362  0.09803097  0.87287232  1  0.001363  0  -0.07611  -0.075717  0  3.962851  0
C  C80  1  0.33902308  0.40195726  0.37287957  1  0.001036  0  -0.075946  -0.075505  0  3.962171  0
C  C81  1  0.16098086  0.90196973  0.12712112  1  0.001902  0  -0.075958  -0.075403  0  3.962665  0
C  C82  1  0.67830869  0.53474498  0.58966435  1  -0.017908  0  -0.083606  -0.113177  0  3.957579  0
C  C83  1  0.82169567  0.03473916  0.91033163  1  -0.017609  0  -0.08351  -0.11299  0  3.957775  0
C  C84  1  0.32168584  0.46525402  0.41034107  1  -0.017088  0  -0.083498  -0.112888  0  3.957421  0
C  C85  1  0.17830453  0.96526775  0.08966324  1  -0.017716  0  -0.083668  -0.113363  0  3.957712  0
C  C86  1  0.74063281  0.54148551  0.52951841  1  -0.010309  0  -0.001482  0.04616  0  3.951502  0
C  C87  1  0.75936637  0.04147996  0.97047843  1  -0.010067  0  -0.00147  0.046057  0  3.951623  0
C  C88  1  0.25937887  0.45851067  0.47048896  1  -0.010115  0  -0.001523  0.046085  0  3.951755  0
C  C89  1  0.24061239  0.95852130  0.02951297  1  -0.010435  0  -0.001527  0.046234  0  3.951417  0
C  C90  1  0.78607263  0.61379136  0.50838513  1  -0.077624  0  -0.092436  -0.122973  0  3.98707  0
C  C91  1  0.71392654  0.11378336  0.99161401  1  -0.077086  0  -0.092564  -0.123086  0  3.987188  0
C  C92  1  0.21393477  0.38620990  0.49162257  1  -0.077475  0  -0.092514  -0.123037  0  3.987007  0
C  C93  1  0.28607081  0.88621620  0.00838264  1  -0.077381  0  -0.0925  -0.123172  0  3.987037  0
C  C94  1  0.77183221  0.67673745  0.54610109  1  -0.053482  0  -0.090673  -0.098805  0  4.017969  0
C  C95  1  0.72816192  0.17673123  0.95389867  1  -0.053607  0  -0.090574  -0.098717  0  4.017481  0
C  C96  1  0.22817804  0.32325591  0.45390856  1  -0.053813  0  -0.090681  -0.098955  0  4.017509  0
C  C97  1  0.27181687  0.82327003  0.04610066  1  -0.053828  0  -0.090524  -0.098604  0  4.017269  0
C  C98  1  0.75857655  0.47606191  0.48721094  1  0.536229  0  0.121601  0.210015  0  4.018803  0
C  C99  1  0.74141636  0.97605588  0.01278683  1  0.535824  0  0.121596  0.210047  0  4.018984  0
C  C100  1  0.24142082  0.52394104  0.51279131  1  0.535405  0  0.121634  0.210024  0  4.019149  0
C  C101  1  0.25855241  0.02394030  0.98720705  1  0.536125  0  0.121585  0.21005  0  4.019119  0
C  C102  1  0.73462758  0.40113807  0.50628103  1  0.008073  0  -0.079121  -0.204811  0  3.899889  0
C  C103  1  0.76537424  0.90113510  0.99371896  1  0.008055  0  -0.079084  -0.204703  0  3.900035  0
C  C104  1  0.26537980  0.59885867  0.49372293  1  0.008106  0  -0.079127  -0.204855  0  3.900131  0
C  C105  1  0.23459738  0.09886107  0.00627267  1  0.008197  0  -0.079093  -0.204802  0  3.899624  0
C  C106  1  0.74748087  0.34249915  0.46308102  1  0.017098  0  0.00518  0.101157  0  4.005006  0
C  C107  1  0.75252152  0.84249819  0.03691772  1  0.016985  0  0.005181  0.101075  0  4.004963  0
C  C108  1  0.25253078  0.65749816  0.53691889  1  0.01714  0  0.005115  0.101158  0  4.004828  0
C  C109  1  0.24746583  0.15750532  0.96307721  1  0.017207  0  0.005105  0.101147  0  4.004645  0
C  C110  1  0.78574706  0.36143101  0.40222282  1  -0.027652  0  -0.074958  -0.199594  0  3.899485  0
C  C111  1  0.71424825  0.86142612  0.09777686  1  -0.027553  0  -0.074885  -0.199473  0  3.899484  0
C  C112  1  0.21424745  0.63857195  0.59777794  1  -0.027492  0  -0.075001  -0.19969  0  3.899255  0
C  C113  1  0.28574481  0.13858022  0.90222011  1  -0.027896  0  -0.074893  -0.199403  0  3.899246  0
C  C114  1  0.81104355  0.43738836  0.38673428  1  0.551031  0  0.124965  0.214797  0  4.028156  0
C  C115  1  0.68895919  0.93738625  0.11326751  1  0.550961  0  0.124877  0.214811  0  4.028109  0
C  C116  1  0.18893527  0.56261347  0.61327158  1  0.550755  0  0.124925  0.214863  0  4.027969  0
C  C117  1  0.31103531  0.06261557  0.88672951  1  0.550953  0  0.124897  0.214728  0  4.028084  0
C  C118  1  0.85591204  0.45937657  0.32323572  1  -0.075042  0  -0.004973  0.042429  0  3.978293  0
C  C119  1  0.64406954  0.95937671  0.17675774  1  -0.074734  0  -0.005021  0.042288  0  3.9784  0
C  C120  1  0.14406388  0.54062469  0.67676165  1  -0.074785  0  -0.005  0.042363  0  3.978605  0
C  C121  1  0.35590639  0.04062116  0.82323963  1  -0.075237  0  -0.005077  0.042354  0  3.978261  0
C  C122  1  0.80380704  0.41329969  0.27094794  1  -0.004713  0  -0.088459  -0.126848  0  3.966239  0
C  C123  1  0.69618662  0.91330647  0.22904393  1  -0.005162  0  -0.088383  -0.126675  0  3.966026  0
C  C124  1  0.19618460  0.58670383  0.72904899  1  -0.005395  0  -0.088441  -0.126936  0  3.966163  0
C  C125  1  0.30379929  0.08669930  0.77094909  1  -0.004931  0  -0.088455  -0.127036  0  3.965996  0
C  C126  1  0.85679504  0.43315612  0.21227220  1  -0.072627  0  -0.084587  -0.08455  0  3.988793  0
C  C127  1  0.64321020  0.93315989  0.28772449  1  -0.072606  0  -0.0846  -0.084569  0  3.988763  0
C  C128  1  0.14320090  0.56685191  0.78772907  1  -0.07261  0  -0.084492  -0.084394  0  3.988739  0
C  C129  1  0.35678857  0.06684250  0.71227034  1  -0.072699  0  -0.084611  -0.084502  0  3.988816  0
C  C130  1  0.96700324  0.49790692  0.20488800  1  -0.023644  0  -0.021256  -0.043338  0  3.989467  0
C  C131  1  0.53297997  0.99790662  0.29511159  1  -0.023673  0  -0.021129  -0.043144  0  3.989596  0
C  C132  1  0.03299128  0.50210055  0.79511696  1  -0.02339  0  -0.021253  -0.043382  0  3.989239  0
C  C133  1  0.46700453  0.00209746  0.70488605  1  -0.023153  0  -0.02114  -0.043266  0  3.989234  0
C  C134  1  0.01510723  0.54502570  0.25664183  1  -0.009957  0  -0.083877  -0.08941  0  3.977132  0
C  C135  1  0.48489428  0.04502859  0.24335574  1  -0.010075  0  -0.083858  -0.089455  0  3.976949  0
C  C136  1  0.98490301  0.45497048  0.74336176  1  -0.010037  0  -0.083879  -0.089589  0  3.976887  0
C  C137  1  0.51507877  0.95497154  0.75663780  1  -0.01088  0  -0.083905  -0.089517  0  3.976851  0
C  C138  1  0.95709613  0.52649410  0.31485672  1  -0.027744  0  -0.086752  -0.11163  0  3.977807  0
C  C139  1  0.54289562  0.02649217  0.18514009  1  -0.027563  0  -0.086712  -0.111668  0  3.977758  0
C  C140  1  0.04290267  0.47350885  0.68514651  1  -0.027621  0  -0.0867  -0.111431  0  3.977889  0
C  C141  1  0.45708028  0.97350288  0.81485122  1  -0.027058  0  -0.086679  -0.111361  0  3.977615  0
C  C142  1  0.03545852  0.51526954  0.14257147  1  1.530771  0  0.217838  0.589395  0  4.178425  0
C  C143  1  0.46454493  0.01526119  0.35742440  1  1.530807  0  0.217825  0.589424  0  4.178394  0
C  C144  1  0.96455173  0.48473454  0.85743399  1  1.531052  0  0.217849  0.589576  0  4.178515  0
C  C145  1  0.53545383  0.98474064  0.64256483  1  1.53113  0  0.218057  0.589738  0  4.178238  0
C  C146  1  0.71605175  0.26273207  0.47916858  1  -0.040771  0  0.016051  0.1132  0  3.95897  0
C  C147  1  0.78394150  0.76272614  0.02083074  1  -0.040694  0  0.015939  0.113087  0  3.958979  0
C  C148  1  0.28396276  0.73726862  0.52083141  1  -0.04062  0  0.016138  0.113285  0  3.958977  0
C  C149  1  0.21602441  0.23727455  0.97916117  1  -0.041116  0  0.015946  0.113058  0  3.959204  0
C  C150  1  0.79448506  0.20361137  0.44617281  1  -0.034456  0  -0.081001  -0.174632  0  3.922529  0
C  C151  1  0.70550781  0.70360561  0.05382670  1  -0.034378  0  -0.080892  -0.174435  0  3.922568  0
C  C152  1  0.20552228  0.79639271  0.55382183  1  -0.0346  0  -0.081062  -0.174678  0  3.922769  0
C  C153  1  0.29447813  0.29639961  0.94617472  1  -0.033755  0  -0.080971  -0.174519  0  3.922841  0
C  C154  1  0.74162879  0.12951687  0.45709946  1  0.44727  0  0.051389  0.100921  0  3.935564  0
C  C155  1  0.75837397  0.62951214  0.04290457  1  0.447557  0  0.05132  0.100852  0  3.935714  0
C  C156  1  0.25838858  0.87048157  0.54290016  1  0.446476  0  0.051253  0.100783  0  3.935921  0
C  C157  1  0.24162341  0.37049308  0.95710094  1  0.447531  0  0.051299  0.100715  0  3.935888  0
C  C158  1  0.55180939  0.16702206  0.53353288  1  0.44232  0  0.046007  0.087435  0  3.963007  0
C  C159  1  0.94819685  0.66701976  0.96646854  1  0.442123  0  0.046006  0.087465  0  3.963421  0
C  C160  1  0.44820511  0.83297525  0.46646431  1  0.442617  0  0.045975  0.087358  0  3.962875  0
C  C161  1  0.05181483  0.33298376  0.03353836  1  0.442155  0  0.046076  0.087684  0  3.963068  0
C  C162  1  0.59761025  0.24246908  0.52552813  1  0.008385  0  -0.080971  -0.170753  0  3.950525  0
C  C163  1  0.90238621  0.74246240  0.97447158  1  0.008416  0  -0.080953  -0.170696  0  3.950613  0
C  C164  1  0.40241999  0.75752823  0.47447562  1  0.0098  0  -0.08108  -0.170825  0  3.950598  0
C  C165  1  0.09758685  0.25753660  0.02552476  1  0.008956  0  -0.081003  -0.171002  0  3.950666  0
N  N166  1  0.79801536  0.49303022  0.42862902  1  -1.221828  0  -0.306207  -0.337335  0  3.314449  0
N  N167  1  0.70199318  0.99302641  0.07136898  1  -1.221898  0  -0.306181  -0.337367  0  3.314401  0
N  N168  1  0.20195914  0.50697161  0.57136970  1  -1.221512  0  -0.306152  -0.337306  0  3.314371  0
N  N169  1  0.29801275  0.00697090  0.92862934  1  -1.221837  0  -0.306083  -0.337213  0  3.314258  0
N  N170  1  0.61761814  0.11140374  0.49868947  1  -1.229581  0  -0.321978  -0.228075  0  3.531885  0
N  N171  1  0.88238462  0.61140321  0.00131340  1  -1.229956  0  -0.321915  -0.228084  0  3.532022  0
N  N172  1  0.38239207  0.88859413  0.50130805  1  -1.228555  0  -0.321824  -0.227992  0  3.531741  0
N  N173  1  0.11761277  0.38859974  0.99869258  1  -1.229702  0  -0.321865  -0.227875  0  3.531791  0
O  O174  1  0.95276464  0.48142636  0.09481606  1  -1.183747  0  -0.318475  -0.565459  0  2.322475  0
O  O175  1  0.54725298  0.98142873  0.40518302  1  -1.183755  0  -0.31849  -0.565566  0  2.322359  0
O  O176  1  0.04727275  0.51856926  0.90519072  1  -1.184077  0  -0.318365  -0.56542  0  2.322561  0
O  O177  1  0.45274436  0.01857366  0.59480990  1  -1.184095  0  -0.318489  -0.565566  0  2.322683  0
O  O178  1  0.17464055  0.56147413  0.14061754  1  -1.198199  0  -0.320794  -0.571272  0  2.239118  0
O  O179  1  0.32534656  0.06146294  0.35938444  1  -1.198286  0  -0.320938  -0.571498  0  2.238768  0
O  O180  1  0.82536685  0.43852657  0.85939062  1  -1.198293  0  -0.320909  -0.571536  0  2.239065  0
O  O181  1  0.67464078  0.93854001  0.64060955  1  -1.198264  0  -0.321012  -0.571587  0  2.238945  0
O  O182  1  0.76634698  0.79900364  0.62465476  1  -1.180307  0  -0.346698  -0.510858  0  2.310336  0
O  O183  1  0.73366109  0.29899554  0.87534836  1  -1.18008  0  -0.34658  -0.510772  0  2.310518  0
O  O184  1  0.23365467  0.20098576  0.37534622  1  -1.1802  0  -0.34673  -0.51085  0  2.310493  0
O  O185  1  0.26635628  0.70100628  0.12465266  1  -1.180293  0  -0.346473  -0.51067  0  2.31032  0
O  O186  1  0.56758155  0.73913376  0.68619927  1  -1.149256  0  -0.308507  -0.507238  0  2.061316  0
O  O187  1  0.93240319  0.23912368  0.81379444  1  -1.149261  0  -0.308538  -0.507235  0  2.061329  0
O  O188  1  0.43244728  0.26086016  0.31381005  1  -1.14908  0  -0.308536  -0.507257  0  2.060901  0
O  O189  1  0.06755985  0.76087532  0.18619692  1  -1.148978  0  -0.308732  -0.507437  0  2.060454  0
O  O190  1  0.28911262  0.54000437  0.03012352  1  -1.251625  0  -0.57376  -0.742757  0  2.09401  0
O  O191  1  0.21090423  0.03998974  0.46988148  1  -1.250984  0  -0.573813  -0.742804  0  2.094331  0
O  O192  1  0.71090905  0.45999859  0.96988137  1  -1.250735  0  -0.573783  -0.742846  0  2.094134  0
O  O193  1  0.78911027  0.96000644  0.53011898  1  -1.25092  0  -0.573863  -0.742899  0  2.09407  0
