# generated using pymatgen
data_CrH12C10S2(NO4)2
_symmetry_space_group_name_H-M   'P 1'
_cell_length_a   7.14560077
_cell_length_b   7.77895151
_cell_length_c   12.82856032
_cell_angle_alpha   89.99969821
_cell_angle_beta   89.99911181
_cell_angle_gamma   100.41165577
_symmetry_Int_Tables_number   1
_chemical_formula_structural   CrH12C10S2(NO4)2
_chemical_formula_sum   'Cr2 H24 C20 S4 N4 O16'
_cell_volume   701.33809890
_cell_formula_units_Z   2
loop_
 _symmetry_equiv_pos_site_id
 _symmetry_equiv_pos_as_xyz
  1  'x, y, z'
loop_
 _atom_site_type_symbol
 _atom_site_label
 _atom_site_symmetry_multiplicity
 _atom_site_fract_x
 _atom_site_fract_y
 _atom_site_fract_z
 _atom_site_occupancy
 _atom_site_hle17_ddec_charge
 _atom_site_hle17_ddec_spin_density
 _atom_site_hle17_ddec_sum_bond_order
 _atom_site_hle17_magmom
 _atom_site_hse06_10hf_ddec_charge
 _atom_site_hse06_10hf_ddec_spin_density
 _atom_site_hse06_10hf_ddec_sum_bond_order
 _atom_site_hse06_10hf_magmom
 _atom_site_hse06_ddec_charge
 _atom_site_hse06_ddec_spin_density
 _atom_site_hse06_ddec_sum_bond_order
 _atom_site_hse06_magmom
 _atom_site_pbe_cm5_charge
 _atom_site_pbe_ddec_charge
 _atom_site_pbe_ddec_spin_density
 _atom_site_pbe_ddec_sum_bond_order
 _atom_site_pbe_magmom
Cr  Cr0  1  0.49999923  0.50000054  0.50000092  1  1.209132  -3.976773  1.738278  -3.796  1.155115  -3.823248  2.158061  -3.66  1.191682  -3.860687  2.103227  -3.712  0.828958  1.135351  -3.778344  2.194627  -3.597
Cr  Cr1  1  0.99999681  0.49999763  0.99999874  1  1.209169  -3.976722  1.738441  -3.796  1.15509  -3.823193  2.158271  -3.66  1.191676  -3.860635  2.103406  -3.712  0.828944  1.135321  -3.778276  2.194837  -3.597
H  H2  1  0.84620459  0.65217446  0.57201740  1  0.436423  0.000181  0.864483  -0.002  0.407514  -0.000509  0.924937  -0.002  0.417691  -0.000343  0.91022  -0.002  0.299471  0.400581  -0.000652  0.934928  -0.003
H  H3  1  0.65378121  0.34781777  0.07201249  1  0.436311  0.00018  0.864588  -0.002  0.407373  -0.00051  0.925109  -0.002  0.417553  -0.000344  0.910391  -0.002  0.299374  0.400431  -0.000654  0.93511  -0.003
H  H4  1  0.15379503  0.34782532  0.42798367  1  0.43642  0.000182  0.864493  -0.002  0.407523  -0.000509  0.924935  -0.002  0.417699  -0.000343  0.910219  -0.002  0.299464  0.400586  -0.000652  0.934928  -0.003
H  H5  1  0.34621841  0.65218202  0.92798702  1  0.436294  0.000181  0.864618  -0.002  0.407352  -0.00051  0.925146  -0.002  0.417532  -0.000344  0.910428  -0.002  0.299352  0.40041  -0.000653  0.935148  -0.003
H  H6  1  0.69874452  0.62759728  0.66738341  1  0.440286  -0.000189  0.858236  -0.002  0.412082  -0.000935  0.918372  -0.003  0.421403  -0.000733  0.904828  -0.003  0.303976  0.405821  -0.001122  0.927456  -0.003
H  H7  1  0.80125174  0.37239760  0.16739274  1  0.440376  -0.00019  0.858094  -0.002  0.412154  -0.000936  0.918279  -0.003  0.421483  -0.000735  0.90472  -0.003  0.303929  0.405887  -0.001123  0.927371  -0.003
H  H8  1  0.30125510  0.37240251  0.33261454  1  0.440289  -0.000189  0.858237  -0.002  0.412083  -0.000935  0.918376  -0.003  0.421404  -0.000733  0.904832  -0.003  0.303967  0.405824  -0.001121  0.927457  -0.003
H  H9  1  0.19874788  0.62760218  0.83260755  1  0.440354  -0.000191  0.858129  -0.002  0.412126  -0.000937  0.918321  -0.003  0.421455  -0.000735  0.904764  -0.003  0.303931  0.405864  -0.001123  0.927407  -0.003
H  H10  1  0.33335821  0.10609294  0.50091040  1  0.094169  0.001392  0.935996  0.001  0.101305  0.000515  1.001242  0.0  0.10418  0.000568  0.997588  0.0  0.123187  0.099034  0.000465  1.004133  0.0
H  H11  1  0.16664991  0.89391238  0.00091144  1  0.094133  0.00139  0.936093  0.001  0.101291  0.000515  1.001284  0.0  0.104168  0.000568  0.997631  0.0  0.123195  0.099013  0.000465  1.004176  0.0
H  H12  1  0.66664281  0.89390685  0.49909067  1  0.094164  0.001391  0.935993  0.001  0.101302  0.000515  1.001232  0.0  0.104177  0.000567  0.997578  0.0  0.123192  0.099031  0.000465  1.004127  0.0
H  H13  1  0.83334576  0.10608870  0.99908885  1  0.094128  0.001391  0.936059  0.001  0.101305  0.000515  1.001235  0.0  0.104186  0.000568  0.99758  0.0  0.123195  0.099028  0.000464  1.004127  0.0
H  H14  1  0.21549726  0.95498755  0.82104369  1  0.109774  0.00086  0.94274  0.001  0.119216  9.1e-05  1.004834  0.0  0.122692  0.000176  1.001536  0.0  0.112124  0.116365  -2e-06  1.007691  0.0
H  H15  1  0.28449299  0.04500026  0.32104563  1  0.109745  0.000859  0.942749  0.001  0.119203  9.1e-05  1.004831  0.0  0.122681  0.000176  1.001534  0.0  0.112079  0.116352  -1e-06  1.007692  0.0
H  H16  1  0.78450795  0.04501225  0.17895582  1  0.109815  0.000859  0.942695  0.001  0.119266  9.2e-05  1.004778  0.0  0.122744  0.000176  1.001478  0.0  0.112119  0.116411  -1e-06  1.007636  0.0
H  H17  1  0.71550738  0.95500344  0.67895388  1  0.109742  0.000859  0.94275  0.001  0.119204  9.2e-05  1.004838  0.0  0.122681  0.000176  1.001539  0.0  0.112082  0.116356  -1e-06  1.007698  0.0
H  H18  1  0.31831424  0.27342101  0.87032734  1  0.126762  0.000147  0.955033  0.0  0.132479  0.000457  1.016756  0.0  0.136539  0.000447  1.014913  0.0  0.110764  0.129351  0.000455  1.018438  0.0
H  H19  1  0.18166421  0.72656348  0.37032098  1  0.126782  0.000147  0.954872  0.0  0.132473  0.000457  1.016641  0.0  0.136535  0.000447  1.014785  0.0  0.110815  0.129339  0.000455  1.018341  0.0
H  H20  1  0.68168398  0.72657877  0.12967451  1  0.1268  0.000148  0.955006  0.0  0.132511  0.000457  1.016727  0.0  0.136574  0.000447  1.014883  0.0  0.110791  0.129382  0.000455  1.018412  0.0
H  H21  1  0.81833196  0.27344021  0.62967930  1  0.126784  0.000147  0.954887  0.0  0.132489  0.000457  1.016637  0.0  0.136551  0.000447  1.014783  0.0  0.110825  0.129363  0.000456  1.01833  0.0
H  H22  1  0.41558064  0.48976651  0.72965685  1  0.096706  0.000626  0.982393  0.001  0.101677  -0.000385  1.048891  0.0  0.104958  -0.000262  1.044772  0.0  0.119925  0.098919  -0.0005  1.052449  0.0
H  H23  1  0.08440245  0.51022906  0.22965047  1  0.096671  0.000624  0.982382  0.001  0.101644  -0.000386  1.048896  0.0  0.104928  -0.000263  1.044776  0.0  0.119893  0.098881  -0.000501  1.05246  0.0
H  H24  1  0.58441872  0.51023197  0.27034422  1  0.09668  0.000626  0.98238  0.001  0.101637  -0.000386  1.048889  0.0  0.10492  -0.000262  1.044769  0.0  0.119927  0.098879  -0.0005  1.052447  0.0
H  H25  1  0.91559207  0.48977331  0.77035138  1  0.096669  0.000626  0.982426  0.001  0.101623  -0.000386  1.048961  0.0  0.104908  -0.000263  1.044841  0.0  0.119884  0.098863  -0.000501  1.052525  0.0
C  C26  1  0.32530375  0.13811165  0.58311369  1  0.153919  -0.022332  3.653422  -0.021  0.11462  -0.01805  3.905837  -0.016  0.1257  -0.016505  3.92022  -0.015  0.056662  0.107047  -0.020487  3.897111  -0.018
C  C27  1  0.17469652  0.86189382  0.08310930  1  0.154089  -0.022314  3.653507  -0.021  0.114772  -0.018048  3.905846  -0.016  0.125855  -0.0165  3.920239  -0.015  0.056674  0.107205  -0.020485  3.897111  -0.018
C  C28  1  0.67469702  0.86188683  0.41688660  1  0.153903  -0.022324  3.653499  -0.021  0.114603  -0.018047  3.905898  -0.016  0.125682  -0.016502  3.920282  -0.015  0.056648  0.107029  -0.020485  3.897172  -0.018
C  C29  1  0.82530310  0.13810596  0.91689176  1  0.154112  -0.022336  3.653453  -0.021  0.114769  -0.018053  3.905818  -0.016  0.125851  -0.016506  3.920212  -0.015  0.056683  0.107201  -0.020492  3.897082  -0.018
C  C30  1  0.26454000  0.00974293  0.65762914  1  -0.172224  0.015465  3.720158  0.012  -0.14228  0.004241  3.968657  0.004  -0.155042  0.00712  3.991034  0.005  -0.015305  -0.134887  0.001092  3.95487  0.002
C  C31  1  0.23546120  0.99025630  0.15762850  1  -0.172467  0.01545  3.720239  0.012  -0.14255  0.004246  3.968785  0.004  -0.155311  0.007117  3.99116  0.005  -0.015337  -0.135157  0.001093  3.954993  0.002
C  C32  1  0.73546217  0.99025556  0.34237193  1  -0.172197  0.015467  3.72016  0.012  -0.142267  0.004244  3.968672  0.004  -0.155029  0.007122  3.991053  0.005  -0.015304  -0.134874  0.001094  3.954881  0.002
C  C33  1  0.76453867  0.00974479  0.84237101  1  -0.172488  0.015476  3.720243  0.012  -0.142572  0.004243  3.968819  0.004  -0.155335  0.00712  3.991196  0.005  -0.015356  -0.135181  0.001094  3.955032  0.002
C  C34  1  0.26162888  0.05539638  0.76276247  1  -0.000686  -0.021183  3.697934  -0.018  -0.035277  -0.018033  3.950885  -0.014  -0.028544  -0.015393  3.968236  -0.012  -0.062907  -0.039985  -0.02216  3.940238  -0.017
C  C35  1  0.23836659  0.94458834  0.26276351  1  -0.00078  -0.021167  3.698241  -0.018  -0.035372  -0.018033  3.951172  -0.014  -0.028642  -0.015389  3.968523  -0.012  -0.062981  -0.040083  -0.022159  3.940526  -0.017
C  C36  1  0.73837418  0.94459950  0.23723704  1  -0.000758  -0.021178  3.698004  -0.018  -0.035352  -0.018032  3.950946  -0.014  -0.028621  -0.015392  3.968299  -0.012  -0.062892  -0.040058  -0.022157  3.940293  -0.017
C  C37  1  0.76163162  0.05541144  0.73723678  1  -0.000713  -0.021184  3.698133  -0.018  -0.03531  -0.018036  3.951058  -0.014  -0.028578  -0.015394  3.968407  -0.012  -0.06295  -0.040021  -0.022165  3.94042  -0.017
C  C38  1  0.31689129  0.23042931  0.78958725  1  -0.096865  0.020583  3.685312  0.014  -0.10666  0.009308  3.937298  0.006  -0.115415  0.011099  3.958122  0.007  -0.0785  -0.101234  0.008165  3.924492  0.006
C  C39  1  0.18309368  0.76956284  0.28958621  1  -0.096636  0.020559  3.685464  0.014  -0.106416  0.009307  3.937418  0.006  -0.115163  0.011095  3.958237  0.007  -0.078458  -0.100994  0.008163  3.92462  0.006
C  C40  1  0.68310998  0.76957179  0.21041304  1  -0.096903  0.020574  3.685433  0.014  -0.106703  0.009308  3.937412  0.006  -0.115461  0.011098  3.958238  0.007  -0.078548  -0.10128  0.008165  3.924605  0.006
C  C41  1  0.81690504  0.23043955  0.71041486  1  -0.096717  0.020583  3.685379  0.014  -0.10652  0.009308  3.937354  0.006  -0.11527  0.011099  3.958171  0.007  -0.078479  -0.101103  0.008165  3.924563  0.006
C  C42  1  0.37285207  0.35206203  0.71114154  1  0.138103  -0.022113  3.648329  -0.02  0.103834  -0.019345  3.908018  -0.016  0.114333  -0.017217  3.921717  -0.015  0.046962  0.095987  -0.023234  3.900409  -0.019
C  C43  1  0.12713614  0.64794296  0.21113902  1  0.138048  -0.022096  3.648433  -0.02  0.103725  -0.019347  3.9081  -0.016  0.114227  -0.017217  3.921807  -0.015  0.047009  0.09588  -0.023234  3.900486  -0.019
C  C44  1  0.62714805  0.64794037  0.28885953  1  0.138125  -0.02211  3.648405  -0.02  0.103875  -0.019347  3.908063  -0.016  0.114373  -0.017218  3.921762  -0.015  0.046993  0.096029  -0.023234  3.900452  -0.019
C  C45  1  0.87286473  0.35206336  0.78886126  1  0.13808  -0.022118  3.648376  -0.02  0.103779  -0.019351  3.908027  -0.016  0.114285  -0.017222  3.921732  -0.015  0.047001  0.095933  -0.02324  3.900414  -0.019
S  S46  1  0.19982034  0.78671418  0.61943840  1  1.327375  -0.004417  5.639009  -0.005  1.229116  -0.00771  6.156285  -0.007  1.278345  -0.005377  6.131034  -0.005  0.523246  1.19525  -0.010077  6.17261  -0.008
S  S47  1  0.30018162  0.21329081  0.11944045  1  1.327677  -0.004416  5.639241  -0.005  1.229404  -0.007706  6.156511  -0.007  1.278631  -0.005378  6.131265  -0.005  0.523378  1.195542  -0.010071  6.172836  -0.008
S  S48  1  0.80018182  0.21328431  0.38056189  1  1.327545  -0.004417  5.639019  -0.005  1.229301  -0.007709  6.156299  -0.007  1.278533  -0.005374  6.131042  -0.005  0.523345  1.195425  -0.010074  6.172635  -0.008
S  S49  1  0.69981965  0.78671029  0.88055984  1  1.327557  -0.004415  5.639313  -0.005  1.2293  -0.007706  6.156575  -0.007  1.278527  -0.005377  6.131329  -0.005  0.523314  1.195434  -0.010071  6.172905  -0.008
N  N50  1  0.38003855  0.30752766  0.60946844  1  -0.355008  0.041599  3.267048  0.059  -0.302583  0.015416  3.56206  0.039  -0.321563  0.016599  3.57293  0.039  -0.354096  -0.290847  0.013801  3.556049  0.038
N  N51  1  0.11995761  0.69247483  0.10946429  1  -0.355101  0.041572  3.267174  0.059  -0.302556  0.015416  3.562077  0.039  -0.32156  0.016599  3.572964  0.039  -0.354118  -0.29082  0.013799  3.556057  0.038
N  N52  1  0.61995942  0.69247081  0.39053185  1  -0.355005  0.041593  3.267171  0.059  -0.302557  0.015417  3.562133  0.039  -0.321537  0.016598  3.573004  0.039  -0.354114  -0.290822  0.013802  3.556122  0.038
N  N53  1  0.88004225  0.30752626  0.89053522  1  -0.355115  0.041593  3.267208  0.059  -0.302571  0.015416  3.562125  0.039  -0.321582  0.016601  3.573017  0.039  -0.354121  -0.290834  0.013798  3.556104  0.038
O  O54  1  0.37450973  0.73921943  0.57699102  1  -0.710544  -0.023405  2.047043  -0.004  -0.67499  -0.034328  2.343443  -0.011  -0.696244  -0.032637  2.324376  -0.011  -0.342503  -0.659655  -0.035126  2.355478  -0.011
O  O55  1  0.12549776  0.26077178  0.07699365  1  -0.710575  -0.023398  2.047241  -0.004  -0.67503  -0.034323  2.343664  -0.011  -0.696288  -0.032628  2.324607  -0.011  -0.342544  -0.659697  -0.035121  2.3557  -0.011
O  O56  1  0.62549003  0.26077382  0.42300771  1  -0.710605  -0.023402  2.047113  -0.004  -0.675039  -0.034324  2.343485  -0.011  -0.696295  -0.032633  2.32442  -0.011  -0.342542  -0.659704  -0.035122  2.355527  -0.011
O  O57  1  0.87450351  0.73922932  0.92300586  1  -0.71052  -0.023397  2.047272  -0.004  -0.674968  -0.034323  2.343684  -0.011  -0.696226  -0.032628  2.324623  -0.011  -0.342502  -0.659633  -0.035122  2.355715  -0.011
O  O58  1  0.13108944  0.69194661  0.71491487  1  -0.676904  0.000935  2.041453  0.0  -0.615028  0.00027  2.285439  -0.001  -0.63648  0.000519  2.270745  -0.001  -0.330929  -0.600011  -7.2e-05  2.295214  -0.001
O  O59  1  0.36891206  0.30804792  0.21491213  1  -0.676966  0.000933  2.041477  0.0  -0.615108  0.000271  2.285462  -0.001  -0.636555  0.000517  2.270771  -0.001  -0.331008  -0.600096  -7e-05  2.295237  -0.001
O  O60  1  0.86891388  0.30805057  0.28508463  1  -0.676957  0.000935  2.041399  0.0  -0.615139  0.00027  2.285434  -0.001  -0.63659  0.000518  2.270739  -0.001  -0.33096  -0.600095  -7.2e-05  2.295195  -0.001
O  O61  1  0.63108781  0.69195317  0.78508738  1  -0.676933  0.000934  2.04147  0.0  -0.6151  0.000271  2.285475  -0.001  -0.636547  0.000518  2.270784  -0.001  -0.330995  -0.600076  -7e-05  2.295243  -0.001
O  O62  1  0.04887231  0.77961197  0.54040915  1  -0.657496  0.000884  1.951038  0.0  -0.601641  -6.3e-05  2.184969  -0.001  -0.623663  0.000322  2.171267  0.0  -0.332685  -0.585998  -0.000577  2.193863  -0.001
O  O63  1  0.45112850  0.22039017  0.04040753  1  -0.657575  0.00088  1.951054  0.0  -0.60169  -6.3e-05  2.184982  -0.001  -0.623714  0.00032  2.171284  0.0  -0.332705  -0.586047  -0.000577  2.193879  -0.001
O  O64  1  0.95112896  0.22038912  0.45958958  1  -0.65753  0.000882  1.951048  0.0  -0.601673  -6.3e-05  2.184972  -0.001  -0.623695  0.00032  2.171269  0.0  -0.332696  -0.586029  -0.000576  2.193874  -0.001
O  O65  1  0.54887022  0.77961223  0.95959276  1  -0.657554  0.000879  1.951045  0.0  -0.601675  -6.3e-05  2.18497  -0.001  -0.6237  0.00032  2.171273  0.0  -0.3327  -0.586032  -0.000576  2.193869  -0.001
O  O66  1  0.72389177  0.58075428  0.59761873  1  -0.858307  -0.00065  1.960502  0.02  -0.82086  -0.019329  2.190161  0.006  -0.844658  -0.018049  2.156596  0.007  -0.593806  -0.803321  -0.020813  2.212344  0.005
O  O67  1  0.77611447  0.41925335  0.09761098  1  -0.858346  -0.000657  1.960366  0.02  -0.82089  -0.019339  2.190025  0.006  -0.844687  -0.018058  2.156428  0.007  -0.593728  -0.803349  -0.020825  2.212218  0.005
O  O68  1  0.27610759  0.41924420  0.40238156  1  -0.858325  -0.00065  1.960471  0.02  -0.820893  -0.019329  2.190107  0.006  -0.844691  -0.018049  2.156537  0.007  -0.593809  -0.803355  -0.020813  2.212289  0.005
O  O69  1  0.22388374  0.58074643  0.90238853  1  -0.858313  -0.000657  1.960449  0.02  -0.820865  -0.019339  2.190136  0.006  -0.844654  -0.018057  2.156519  0.007  -0.593699  -0.803325  -0.020824  2.212321  0.005
