# generated using pymatgen
data_ZnH9C22SNO7F2
_symmetry_space_group_name_H-M   'P 1'
_cell_length_a   13.79436735
_cell_length_b   15.69164958
_cell_length_c   15.72760926
_cell_angle_alpha   79.12805043
_cell_angle_beta   89.89852168
_cell_angle_gamma   83.59347143
_symmetry_Int_Tables_number   1
_chemical_formula_structural   ZnH9C22SNO7F2
_chemical_formula_sum   'Zn2 H18 C44 S2 N2 O14 F4'
_cell_volume   3321.71153073
_cell_formula_units_Z   2
loop_
 _symmetry_equiv_pos_site_id
 _symmetry_equiv_pos_as_xyz
  1  'x, y, z'
loop_
 _atom_site_type_symbol
 _atom_site_label
 _atom_site_symmetry_multiplicity
 _atom_site_fract_x
 _atom_site_fract_y
 _atom_site_fract_z
 _atom_site_occupancy
 _atom_site_pbe_bader_charge
 _atom_site_pbe_bader_spin_density
 _atom_site_pbe_cm5_charge
 _atom_site_pbe_ddec_charge
 _atom_site_pbe_ddec_spin_density
 _atom_site_pbe_ddec_sum_bond_order
 _atom_site_pbe_magmom
Zn  Zn0  1  0.50130555  0.59380185  0.51475868  1  1.32236  0  0.693952  0.874519  0  2.308292  0
Zn  Zn1  1  0.52387642  0.40102316  0.50307307  1  1.310343  0  0.695196  0.867004  0  2.271502  0
H  H2  1  0.99992965  0.58331741  0.40751502  1  0.137235  0  0.128299  0.132278  0  0.947655  0
H  H3  1  0.76916634  0.30208979  0.90065111  1  0.11295  0  0.113429  0.139004  0  0.980461  0
H  H4  1  0.45108415  0.61423039  0.85388426  1  0.010757  0  0.100125  0.098943  0  1.020977  0
H  H5  1  0.65227627  0.41894607  0.14626906  1  0.067452  0  0.101998  0.101697  0  1.011107  0
H  H6  1  0.42228641  0.09242612  0.27767495  1  0.114453  0  0.129766  0.160953  0  0.952404  0
H  H7  1  0.54674144  0.92170027  0.72801106  1  0.126528  0  0.12879  0.157924  0  0.954796  0
H  H8  1  0.47858064  0.64940523  0.66240404  1  0.185285  0  0.122436  0.103703  0  1.042438  0
H  H9  1  0.55492006  0.34679502  0.34848751  1  0.13464  0  0.1233  0.100219  0  1.013024  0
H  H10  1  0.55677636  0.67575446  0.36750056  1  0.673117  0  0.313975  0.382939  0  0.953975  0
H  H11  1  0.34691171  0.34754239  0.56451650  1  0.665642  0  0.299598  0.368834  0  0.983819  0
H  H12  1  0.02041924  0.40555633  0.53458866  1  0.117826  0  0.126476  0.133879  0  0.950577  0
H  H13  1  0.50859664  0.23435606  0.26668197  1  0.114494  0  0.122376  0.134067  0  0.970213  0
H  H14  1  0.50006751  0.77184436  0.73906959  1  0.080668  0  0.119265  0.127171  0  0.979048  0
H  H15  1  0.35757483  0.69550511  0.95067983  1  0.059596  0  0.104742  0.106686  0  0.99026  0
H  H16  1  0.74375351  0.33723435  0.04915593  1  0.05794  0  0.105192  0.108286  0  0.988251  0
H  H17  1  0.50503442  0.53436796  0.78197616  1  0.081195  0  0.104763  0.10578  0  1.035477  0
H  H18  1  0.56181163  0.47148535  0.22528079  1  0.066276  0  0.105076  0.106352  0  1.016847  0
H  H19  1  0.30763044  0.71212390  0.09785435  1  0.107489  0  0.116331  0.141128  0  0.976195  0
C  C20  1  0.46437306  0.54260074  0.34532044  1  1.57817  0  0.235863  0.646309  0  4.122619  0
C  C21  1  0.63287490  0.43388031  0.07753571  1  -0.085469  0  -0.090411  -0.126367  0  4.022825  0
C  C22  1  0.41169309  0.64079823  0.97722626  1  -0.031355  0  -0.091852  -0.136105  0  4.026102  0
C  C23  1  0.68477954  0.38776014  0.02331961  1  -0.04099  0  -0.091029  -0.137285  0  4.011675  0
C  C24  1  0.50670951  0.22307023  0.33714921  1  0.048419  0  -0.07692  -0.175539  0  3.943176  0
C  C25  1  0.49323912  0.78330509  0.66867025  1  -0.023164  0  -0.077214  -0.167049  0  3.959753  0
C  C26  1  0.52892022  0.28643069  0.38104932  1  0.37311  0  0.045953  0.104567  0  3.927948  0
C  C27  1  0.48316263  0.71547989  0.62716615  1  0.414236  0  0.039679  0.084929  0  3.944  0
C  C28  1  0.48529842  0.20599642  0.51279974  1  0.451017  0  0.132313  0.044805  0  3.84506  0
C  C29  1  0.48859432  0.80460851  0.49082959  1  0.439798  0  0.137554  0.050549  0  3.801054  0
C  C30  1  0.48801973  0.12909324  0.47703883  1  0.041231  0  0.005928  -0.013349  0  3.928018  0
C  C31  1  0.57211537  0.45254427  0.66273944  1  1.614313  0  0.225804  0.630864  0  4.125586  0
C  C32  1  0.48133056  0.88219224  0.52757753  1  0.082988  0  0.009977  -0.009429  0  3.874468  0
C  C33  1  0.48154873  0.14319720  0.38461540  1  -0.01686  0  0.018926  0.148761  0  4.014869  0
C  C34  1  0.49780794  0.86766146  0.61962408  1  0.01204  0  0.018947  0.144715  0  4.010712  0
C  C35  1  0.68900709  0.49865532  0.46156701  1  1.679808  0  0.219413  0.665182  0  4.241183  0
C  C36  1  0.32575222  0.50194015  0.53181221  1  1.620073  0  0.233033  0.68205  0  4.188188  0
C  C37  1  0.49259188  0.04050933  0.52428292  1  0.038395  0  0.007989  -0.027896  0  3.939459  0
C  C38  1  0.46790823  0.97256789  0.48275887  1  0.054147  0  0.008952  -0.028453  0  3.912073  0
C  C39  1  0.42790471  0.00132352  0.39681696  1  0.502745  0  0.123194  0.289925  0  4.051907  0
C  C40  1  0.52957678  0.01613383  0.61120093  1  0.459183  0  0.12245  0.292117  0  4.054828  0
C  C41  1  0.44365187  0.07890929  0.34596023  1  0.091259  0  -0.085406  -0.253866  0  3.931007  0
C  C42  1  0.49776073  0.54727446  0.10415302  1  -0.016365  0  -0.005206  0.025121  0  3.955532  0
C  C43  1  0.52476940  0.93534571  0.65988330  1  0.121279  0  -0.086875  -0.254971  0  3.942175  0
C  C44  1  0.22438737  0.49336139  0.52220947  1  -0.298208  0  -0.043893  -0.211193  0  3.942736  0
C  C45  1  0.79131470  0.50321188  0.44428501  1  0.23225  0  -0.030307  -0.166133  0  3.904841  0
C  C46  1  0.04341451  0.46605193  0.49780981  1  0.151227  0  -0.063538  -0.07144  0  4.061465  0
C  C47  1  0.97716767  0.52320227  0.44533905  1  0.04111  0  -0.051947  -0.038533  0  4.048871  0
C  C48  1  0.87848799  0.51073522  0.44155436  1  -0.509292  0  -0.022023  0.006285  0  4.131148  0
C  C49  1  0.14017752  0.48134005  0.50919463  1  0.01449  0  -0.012838  0.039466  0  4.124849  0
C  C50  1  0.44912443  0.56722394  0.24944234  1  -0.01533  0  -0.02157  -0.136769  0  4.000853  0
C  C51  1  0.60847241  0.43442620  0.75465003  1  0.007636  0  -0.021656  -0.135829  0  3.954952  0
C  C52  1  0.36474598  0.66018917  0.12432143  1  0.026653  0  -0.096729  -0.261534  0  3.981538  0
C  C53  1  0.58699072  0.47196404  0.89898834  1  0.056438  0  -0.007605  0.019752  0  3.966571  0
C  C54  1  0.71064836  0.35358469  0.87641489  1  -0.007281  0  -0.101015  -0.275155  0  3.976441  0
C  C55  1  0.37707958  0.63485817  0.21244169  1  0.498252  0  0.103435  0.280063  0  4.073781  0
C  C56  1  0.68375167  0.36848478  0.79002791  1  0.491782  0  0.111244  0.295436  0  4.043882  0
C  C57  1  0.50738178  0.52420169  0.19520316  1  0.032237  0  -0.082408  -0.126837  0  3.960547  0
C  C58  1  0.56330477  0.48486539  0.81031583  1  -0.053168  0  -0.077112  -0.111159  0  3.957445  0
C  C59  1  0.42468855  0.61708119  0.06880554  1  0.002807  0  -0.004713  0.101879  0  4.032329  0
C  C60  1  0.66210933  0.40373022  0.93289716  1  -0.018837  0  -0.00235  0.10922  0  4.030099  0
C  C61  1  0.55585883  0.50140424  0.04640690  1  0.003907  0  -0.00568  0.02874  0  3.965243  0
C  C62  1  0.53570043  0.52313931  0.95605742  1  -0.049051  0  -0.002683  0.036564  0  3.963388  0
C  C63  1  0.46435835  0.59500895  0.92345164  1  -0.00164  0  -0.092884  -0.130793  0  4.035799  0
S  S64  1  0.51567253  0.80803384  0.37533146  1  3.171348  0  0.531178  1.110311  0  6.067098  0
S  S65  1  0.41712595  0.21491607  0.61223660  1  3.176083  0  0.525313  1.108297  0  6.112065  0
N  N66  1  0.50997247  0.28103557  0.46707927  1  -1.245653  0  -0.316362  -0.238573  0  3.518422  0
N  N67  1  0.48846985  0.72464396  0.53922009  1  -1.264072  0  -0.30652  -0.231226  0  3.488809  0
O  O68  1  0.49064106  0.60219798  0.38334390  1  -1.174474  0  -0.306475  -0.565665  0  2.465518  0
O  O69  1  0.56614087  0.88383211  0.34936776  1  -1.29222  0  -0.313726  -0.521549  0  2.161085  0
O  O70  1  0.59310600  0.72650474  0.37868204  1  -1.26439  0  -0.350705  -0.508397  0  2.244205  0
O  O71  1  0.37876613  0.13313163  0.64132611  1  -1.294419  0  -0.318367  -0.527112  0  2.170307  0
O  O72  1  0.47551506  0.25192522  0.66835215  1  -1.273309  0  -0.307971  -0.50994  0  2.166403  0
O  O73  1  0.33007163  0.28150946  0.57123227  1  -1.267627  0  -0.35448  -0.524723  0  2.232448  0
O  O74  1  0.59181950  0.39486428  0.61673649  1  -1.139239  0  -0.30087  -0.512106  0  2.352419  0
O  O75  1  0.45254690  0.46643071  0.38299342  1  -1.162425  0  -0.297735  -0.539708  0  2.308407  0
O  O76  1  0.52085184  0.52627510  0.63779085  1  -1.187112  0  -0.323206  -0.575105  0  2.39456  0
O  O77  1  0.64902720  0.55890555  0.49815077  1  -1.140597  0  -0.305742  -0.532441  0  2.278599  0
O  O78  1  0.38324962  0.42943149  0.55288473  1  -1.156355  0  -0.302955  -0.550539  0  2.394705  0
O  O79  1  0.64936755  0.43569136  0.44042421  1  -1.152269  0  -0.318791  -0.551634  0  2.247965  0
O  O80  1  0.35396910  0.57699321  0.51874127  1  -1.125002  0  -0.293881  -0.505548  0  2.233075  0
O  O81  1  0.42929522  0.79496923  0.33090410  1  -1.266531  0  -0.308758  -0.517664  0  2.195677  0
F  F82  1  0.37149951  0.94932933  0.36537387  1  -0.62785  0  -0.071152  -0.111586  0  1.42305  0
F  F83  1  0.57282714  0.07508938  0.64577800  1  -0.622435  0  -0.070763  -0.114959  0  1.392764  0
F  F84  1  0.73282843  0.31894375  0.73856436  1  -0.623456  0  -0.101218  -0.137193  0  1.332984  0
F  F85  1  0.31612078  0.67278429  0.26571002  1  -0.628233  0  -0.096687  -0.125918  0  1.338582  0
