# generated using pymatgen
data_Na2CuH12(C8O5)2
_symmetry_space_group_name_H-M   'P 1'
_cell_length_a   6.55177250
_cell_length_b   11.05598396
_cell_length_c   12.30376867
_cell_angle_alpha   102.24655080
_cell_angle_beta   89.99972111
_cell_angle_gamma   90.00056320
_symmetry_Int_Tables_number   1
_chemical_formula_structural   Na2CuH12(C8O5)2
_chemical_formula_sum   'Na4 Cu2 H24 C32 O20'
_cell_volume   870.95822302
_cell_formula_units_Z   2
loop_
 _symmetry_equiv_pos_site_id
 _symmetry_equiv_pos_as_xyz
  1  'x, y, z'
loop_
 _atom_site_type_symbol
 _atom_site_label
 _atom_site_symmetry_multiplicity
 _atom_site_fract_x
 _atom_site_fract_y
 _atom_site_fract_z
 _atom_site_occupancy
 _atom_site_hle17_ddec_charge
 _atom_site_hle17_ddec_spin_density
 _atom_site_hle17_ddec_sum_bond_order
 _atom_site_hle17_magmom
 _atom_site_hse06_10hf_ddec_charge
 _atom_site_hse06_10hf_ddec_spin_density
 _atom_site_hse06_10hf_ddec_sum_bond_order
 _atom_site_hse06_10hf_magmom
 _atom_site_hse06_ddec_charge
 _atom_site_hse06_ddec_spin_density
 _atom_site_hse06_ddec_sum_bond_order
 _atom_site_hse06_magmom
 _atom_site_pbe_cm5_charge
 _atom_site_pbe_ddec_charge
 _atom_site_pbe_ddec_spin_density
 _atom_site_pbe_ddec_sum_bond_order
 _atom_site_pbe_magmom
Na  Na0  1  0.85219097  0.59363654  0.69762499  1  0.920541  2.1e-05  0.344889  0.0  0.888407  -1.6e-05  0.477935  0.0  0.896652  2.4e-05  0.459662  0.0  0.674024  0.882124  -5.4e-05  0.491039  0.0
Na  Na1  1  0.64780424  0.59363447  0.19762637  1  0.920536  -2.1e-05  0.344873  0.0  0.888394  1.6e-05  0.477903  0.0  0.896639  -2.4e-05  0.459631  0.0  0.674002  0.882097  5.4e-05  0.491023  0.0
Na  Na2  1  0.14780777  0.40636400  0.30237219  1  0.920523  2.1e-05  0.344895  0.0  0.88839  -1.6e-05  0.477931  0.0  0.896632  2.4e-05  0.459661  0.0  0.674009  0.882091  -5.4e-05  0.491048  0.0
Na  Na3  1  0.35219603  0.40636516  0.80237226  1  0.920541  -2.1e-05  0.344871  0.0  0.888386  1.6e-05  0.47793  0.0  0.896638  -2.4e-05  0.459655  0.0  0.673993  0.882104  5.4e-05  0.491034  0.0
Cu  Cu4  1  0.99999924  0.50000086  0.99999857  1  0.997563  0.715807  1.627389  0.505  0.997116  0.807651  2.000875  0.627  1.089651  0.883223  1.931881  0.714  0.728475  0.930102  0.752056  2.063195  0.57
Cu  Cu5  1  0.49999785  0.49999889  0.50000036  1  0.997493  -0.715826  1.627527  -0.505  0.997139  -0.807655  2.000933  -0.627  1.089625  -0.883224  1.931983  -0.714  0.7285  0.930091  -0.752066  2.063294  -0.57
H  H6  1  0.12128923  0.93223558  0.01351044  1  0.095559  -0.000132  0.956807  0.0  0.106856  -2.5e-05  1.017681  0.0  0.109066  -1.2e-05  1.018029  0.0  0.104432  0.105257  -5.4e-05  1.017614  0.0
H  H7  1  0.37871658  0.93223687  0.51350884  1  0.095617  0.000129  0.956696  0.0  0.106867  2.5e-05  1.017637  0.0  0.109077  1.2e-05  1.017988  0.0  0.104439  0.105267  5.4e-05  1.017568  0.0
H  H8  1  0.87870646  0.06776312  0.98648801  1  0.095574  -0.000127  0.95679  0.0  0.106824  -2.5e-05  1.017731  0.0  0.10904  -1.2e-05  1.018069  0.0  0.104404  0.105223  -5.4e-05  1.017665  0.0
H  H9  1  0.62128980  0.06776090  0.48648943  1  0.095626  0.000127  0.956691  0.0  0.106839  2.5e-05  1.017671  0.0  0.109082  1.2e-05  1.017978  0.0  0.10443  0.10524  5.4e-05  1.017602  0.0
H  H10  1  0.32108371  0.10350227  0.96232165  1  0.100771  0.000112  0.952757  0.0  0.111145  4.1e-05  1.012261  0.0  0.114008  3.1e-05  1.010714  0.0  0.105422  0.108867  5e-05  1.013666  0.0
H  H11  1  0.17891983  0.10350407  0.46232368  1  0.100732  -0.000119  0.952759  0.0  0.111113  -4.2e-05  1.01225  0.0  0.113975  -3e-05  1.010711  0.0  0.105402  0.108853  -5e-05  1.013639  0.0
H  H12  1  0.67891504  0.89649829  0.03767959  1  0.100766  0.000111  0.95278  0.0  0.111107  4.1e-05  1.012321  0.0  0.113971  3e-05  1.010772  0.0  0.1054  0.108833  5e-05  1.01373  0.0
H  H13  1  0.82108807  0.89649557  0.53767901  1  0.100748  -0.000111  0.952826  0.0  0.111131  -4.1e-05  1.012309  0.0  0.114007  -3e-05  1.010744  0.0  0.105408  0.108852  -5e-05  1.013717  0.0
H  H14  1  0.54234332  0.06160308  0.79454781  1  0.092573  -9.9e-05  0.963869  0.0  0.100957  2e-05  1.027672  0.0  0.103071  1.2e-05  1.028674  0.0  0.10295  0.09938  7e-06  1.027207  0.0
H  H15  1  0.95764996  0.06160643  0.29455264  1  0.092569  0.000101  0.963842  0.0  0.100963  -2e-05  1.027653  0.0  0.103071  -1.2e-05  1.028662  0.0  0.102911  0.09939  -7e-06  1.027176  0.0
H  H16  1  0.45765542  0.93839840  0.20545279  1  0.092572  -9.5e-05  0.963871  0.0  0.100943  2e-05  1.027697  0.0  0.103057  1.2e-05  1.028698  0.0  0.102946  0.099377  7e-06  1.027216  0.0
H  H17  1  0.04235031  0.93839599  0.70545383  1  0.092568  9.8e-05  0.963821  0.0  0.100952  -2e-05  1.027647  0.0  0.103068  -1.2e-05  1.028646  0.0  0.10293  0.099385  -7e-06  1.027163  0.0
H  H18  1  0.56569355  0.84693744  0.67917318  1  0.098936  2.5e-05  0.963219  0.0  0.107944  -6.9e-05  1.026895  0.0  0.110866  -3.9e-05  1.025383  0.0  0.107092  0.10583  -0.000103  1.028035  0.0
H  H19  1  0.93429680  0.84693882  0.17917852  1  0.098947  -3.1e-05  0.96326  0.0  0.107924  6.9e-05  1.026978  0.0  0.110846  3.9e-05  1.025466  0.0  0.107071  0.105812  0.000103  1.028121  0.0
H  H20  1  0.43430367  0.15306589  0.32082777  1  0.098978  2.3e-05  0.963272  0.0  0.107956  -6.9e-05  1.02697  0.0  0.110878  -3.9e-05  1.02546  0.0  0.107127  0.105842  -0.000103  1.028115  0.0
H  H21  1  0.06570042  0.15306546  0.82082748  1  0.099035  -3e-05  0.963321  0.0  0.108017  6.9e-05  1.027  0.0  0.11094  3.9e-05  1.025489  0.0  0.107137  0.105902  0.000103  1.028141  0.0
H  H22  1  0.04498326  0.64950738  0.50117213  1  0.418704  -0.000324  0.882234  0.0  0.391799  -0.000365  0.94037  0.0  0.402369  -0.000236  0.924943  0.0  0.288206  0.384286  -0.000476  0.951348  0.0
H  H23  1  0.45500736  0.64951533  0.00117459  1  0.418747  0.000324  0.882195  0.0  0.391841  0.000365  0.940329  0.0  0.402408  0.000236  0.924908  0.0  0.288249  0.384329  0.000476  0.951306  0.0
H  H24  1  0.95501548  0.35049503  0.49882864  1  0.418683  -0.000324  0.882276  0.0  0.391779  -0.000365  0.940409  0.0  0.402349  -0.000236  0.924983  0.0  0.288203  0.384268  -0.000476  0.951386  0.0
H  H25  1  0.54498986  0.35048614  0.99882438  1  0.418748  0.000324  0.882196  0.0  0.391839  0.000364  0.940333  0.0  0.402407  0.000236  0.92491  0.0  0.288254  0.384328  0.000476  0.95131  0.0
H  H26  1  0.80980557  0.67275485  0.48292063  1  0.420664  0.000128  0.880804  0.0  0.389918  0.000116  0.946705  0.0  0.399528  0.000115  0.931991  0.0  0.288226  0.383194  0.000104  0.956949  0.0
H  H27  1  0.69018686  0.67275882  0.98292409  1  0.420677  -0.000128  0.880809  0.0  0.389929  -0.000116  0.946712  0.0  0.399538  -0.000115  0.931999  0.0  0.288243  0.383207  -0.000104  0.956955  0.0
H  H28  1  0.19019165  0.32724755  0.51707770  1  0.42069  0.000128  0.880758  0.0  0.389948  0.000116  0.946652  0.0  0.399559  0.000115  0.931935  0.0  0.288231  0.383226  0.000104  0.956897  0.0
H  H29  1  0.30981189  0.32723987  0.01707192  1  0.4207  -0.000128  0.880776  0.0  0.389964  -0.000116  0.946653  0.0  0.399573  -0.000115  0.931943  0.0  0.288253  0.383241  -0.000104  0.956899  0.0
C  C30  1  0.09671746  0.69634636  0.90628690  1  0.66516  -0.003732  3.905078  -0.006  0.614343  -0.000543  4.21249  -0.003  0.65214  -0.00089  4.200995  -0.003  0.213005  0.58867  -0.000153  4.218862  -0.003
C  C31  1  0.40328711  0.69635032  0.40628630  1  0.665139  0.003727  3.905254  0.006  0.614285  0.000543  4.212738  0.003  0.652086  0.00089  4.201238  0.003  0.212945  0.58861  0.000152  4.2191  0.003
C  C32  1  0.90328129  0.30365512  0.09371126  1  0.665275  -0.003725  3.905072  -0.006  0.614413  -0.000544  4.212551  -0.003  0.652214  -0.00089  4.201054  -0.003  0.212984  0.588738  -0.000152  4.218918  -0.003
C  C33  1  0.59671164  0.30365209  0.59371529  1  0.665241  0.003732  3.905162  0.006  0.614381  0.000544  4.212657  0.003  0.652181  0.00089  4.20116  0.003  0.213006  0.58871  0.000152  4.219028  0.003
C  C34  1  0.22559040  0.79504287  0.87344857  1  -0.051376  0.005969  3.730182  0.006  -0.035267  0.003039  3.957618  0.004  -0.038674  0.001868  3.977436  0.002  -0.0029  -0.033008  0.00369  3.944479  0.004
C  C35  1  0.27441148  0.79504611  0.37344899  1  -0.051467  -0.005948  3.730058  -0.006  -0.035288  -0.003036  3.957503  -0.004  -0.038705  -0.001871  3.977341  -0.002  -0.002884  -0.033029  -0.00369  3.944359  -0.004
C  C36  1  0.77440987  0.20495584  0.12655069  1  -0.051382  0.006017  3.730093  0.006  -0.035195  0.003039  3.957537  0.004  -0.038613  0.001871  3.977379  0.002  -0.002848  -0.032937  0.003691  3.944385  0.004
C  C37  1  0.72559184  0.20495167  0.62655172  1  -0.051459  -0.006009  3.730029  -0.006  -0.035277  -0.003038  3.957468  -0.004  -0.038693  -0.00187  3.977312  -0.002  -0.002887  -0.033022  -0.003691  3.944324  -0.004
C  C38  1  0.21637831  0.91473552  0.93918973  1  -0.08836  0.001977  3.725153  0.002  -0.1101  0.001077  3.972373  0.001  -0.113563  0.000879  3.994045  0.001  -0.084476  -0.107824  0.001275  3.957803  0.001
C  C39  1  0.28362494  0.91474161  0.43919310  1  -0.088477  -0.002001  3.725061  -0.002  -0.110197  -0.00108  3.972298  -0.001  -0.113662  -0.000877  3.993978  -0.001  -0.084559  -0.107921  -0.001275  3.957732  -0.001
C  C40  1  0.78362043  0.08526132  0.06080674  1  -0.088453  0.00191  3.725099  0.002  -0.110165  0.001078  3.972315  0.001  -0.113629  0.000877  3.993988  0.001  -0.084508  -0.107888  0.001274  3.957743  0.001
C  C41  1  0.71637991  0.08525710  0.56080941  1  -0.088402  -0.001928  3.724987  -0.002  -0.110082  -0.001078  3.972232  -0.001  -0.113569  -0.000878  3.993901  -0.001  -0.084468  -0.107804  -0.001274  3.957658  -0.001
C  C42  1  0.32924128  0.01039109  0.91077258  1  -0.044338  -0.001873  3.743767  -0.002  -0.058872  -0.000684  3.994696  -0.001  -0.058893  -0.000653  4.014908  -0.001  -0.076874  -0.058437  -0.001221  3.980859  -0.001
C  C43  1  0.17075968  0.01039470  0.41077497  1  -0.044289  0.001931  3.743677  0.002  -0.058821  0.000686  3.994592  0.001  -0.058845  0.000651  4.014809  0.001  -0.076852  -0.058403  0.001221  3.980754  0.001
C  C44  1  0.67075442  0.98960669  0.08922732  1  -0.044301  -0.001812  3.743801  -0.002  -0.058808  -0.000686  3.994718  -0.001  -0.05883  -0.000651  4.014929  -0.001  -0.076854  -0.058379  -0.001221  3.98089  -0.001
C  C45  1  0.82924517  0.98960309  0.58922737  1  -0.044351  0.001842  3.743805  0.002  -0.058888  0.000686  3.994716  0.001  -0.058918  0.000652  4.014927  0.001  -0.076885  -0.058456  0.001221  3.980879  0.001
C  C46  1  0.45443564  0.98673511  0.81671310  1  -0.068718  0.004484  3.746371  0.004  -0.083378  0.001506  3.999253  0.001  -0.086956  0.001105  4.021199  0.001  -0.084043  -0.081119  0.001992  3.984477  0.002
C  C47  1  0.04556225  0.98673988  0.31671766  1  -0.068678  -0.00454  3.746114  -0.004  -0.083347  -0.001507  3.998961  -0.001  -0.086916  -0.001103  4.020909  -0.001  -0.083966  -0.081086  -0.001993  3.984197  -0.002
C  C48  1  0.54556463  0.01326452  0.18328715  1  -0.06872  0.004419  3.746434  0.004  -0.083367  0.001507  3.999267  0.001  -0.086944  0.001103  4.021213  0.001  -0.084028  -0.081109  0.001992  3.984504  0.002
C  C49  1  0.95443802  0.01326162  0.68328781  1  -0.068668  -0.004464  3.746257  -0.004  -0.08333  -0.001507  3.999107  -0.001  -0.086908  -0.001104  4.021055  -0.001  -0.084011  -0.081074  -0.001992  3.984339  -0.002
C  C50  1  0.46732612  0.86717204  0.75211954  1  -0.063652  -0.002958  3.724756  -0.003  -0.086842  -0.001287  3.973173  -0.001  -0.08539  -0.001035  3.992002  -0.001  -0.077657  -0.087852  -0.001228  3.960743  -0.001
C  C51  1  0.03267498  0.86717672  0.25211925  1  -0.063764  0.003018  3.724723  0.003  -0.086905  0.001287  3.973195  0.001  -0.085453  0.001033  3.992018  0.001  -0.077679  -0.087918  0.001228  3.96077  0.001
C  C52  1  0.53267568  0.13282483  0.24788425  1  -0.063717  -0.002902  3.724735  -0.003  -0.086829  -0.001288  3.973178  -0.001  -0.085379  -0.001033  3.992007  -0.001  -0.077679  -0.087845  -0.001228  3.960751  -0.001
C  C53  1  0.96732682  0.13282292  0.74788426  1  -0.063906  0.002954  3.724852  0.003  -0.087042  0.001288  3.973321  0.001  -0.085593  0.001034  3.992148  0.001  -0.077755  -0.088055  0.001228  3.960889  0.001
C  C54  1  0.35238227  0.77047978  0.77900822  1  -0.091932  -0.005123  3.73646  -0.006  -0.07748  -0.003119  3.964204  -0.004  -0.08581  -0.002049  3.985707  -0.003  -0.012884  -0.072137  -0.003987  3.950124  -0.005
C  C55  1  0.14762006  0.77048417  0.27900757  1  -0.09173  0.005094  3.736219  0.006  -0.077399  0.003121  3.964097  0.004  -0.085726  0.002051  3.985603  0.003  -0.012883  -0.072051  0.003989  3.950009  0.005
C  C56  1  0.64762106  0.22951801  0.22099493  1  -0.091847  -0.005166  3.736259  -0.006  -0.077536  -0.00312  3.964212  -0.004  -0.085864  -0.002051  3.98572  -0.003  -0.012939  -0.072178  -0.003988  3.950103  -0.005
C  C57  1  0.85238174  0.22951547  0.72099431  1  -0.091726  0.005149  3.736343  0.006  -0.077413  0.00312  3.964225  0.004  -0.08574  0.00205  3.985729  0.003  -0.0129  -0.07206  0.003988  3.950127  0.005
C  C58  1  0.35691164  0.64437455  0.70465929  1  0.668144  0.002233  3.89679  0.005  0.627578  -0.000871  4.192429  0.001  0.66554  -0.000352  4.181695  0.001  0.212801  0.601696  -0.001411  4.19857  0.001
C  C59  1  0.14308319  0.64437337  0.20465922  1  0.667887  -0.002241  3.89697  -0.005  0.627339  0.000873  4.192649  -0.001  0.665303  0.000352  4.181924  -0.001  0.212647  0.601455  0.001411  4.19878  -0.001
C  C60  1  0.64308863  0.35562786  0.29534230  1  0.668035  0.002233  3.89688  0.005  0.627432  -0.000871  4.192657  0.001  0.665395  -0.000352  4.181926  0.001  0.212761  0.601542  -0.001412  4.198785  0.001
C  C61  1  0.85691861  0.35562625  0.79533777  1  0.667899  -0.002233  3.89711  -0.005  0.627395  0.000872  4.192714  -0.001  0.665359  0.000352  4.181986  -0.001  0.212663  0.601508  0.001411  4.19885  -0.001
O  O62  1  0.90647398  0.70007660  0.89490319  1  -0.658451  -0.00052  1.952602  0.0  -0.61613  -0.000219  2.185969  0.001  -0.640044  -0.000749  2.172175  0.0  -0.340991  -0.598814  0.000247  2.194647  0.001
O  O63  1  0.59352578  0.70008441  0.39490901  1  -0.65847  0.000524  1.95277  0.0  -0.616119  0.000219  2.186138  -0.001  -0.640033  0.000749  2.172337  0.0  -0.340981  -0.598804  -0.000246  2.194811  -0.001
O  O64  1  0.09352476  0.29991467  0.10508655  1  -0.658506  -0.00052  1.952561  0.0  -0.616167  -0.000219  2.185927  0.001  -0.640079  -0.000748  2.172124  0.0  -0.340963  -0.598856  0.000247  2.194608  0.001
O  O65  1  0.40647143  0.29991336  0.60508927  1  -0.65854  0.000517  1.95272  0.0  -0.616186  0.00022  2.186096  -0.001  -0.640099  0.000749  2.172291  0.0  -0.340993  -0.598872  -0.000246  2.194776  -0.001
O  O66  1  0.19281884  0.61505714  0.94910628  1  -0.647495  0.079868  2.108311  0.105  -0.605399  0.054041  2.377066  0.077  -0.647158  0.042872  2.366453  0.065  -0.320239  -0.57632  0.060118  2.384468  0.083
O  O67  1  0.30718707  0.61505779  0.44910451  1  -0.647343  -0.079868  2.108291  -0.105  -0.60531  -0.054041  2.377145  -0.077  -0.647046  -0.042871  2.366492  -0.065  -0.32016  -0.576219  -0.060121  2.384538  -0.083
O  O68  1  0.80717533  0.38494249  0.05089478  1  -0.647509  0.07986  2.108329  0.105  -0.605414  0.054038  2.377138  0.077  -0.647162  0.042869  2.366496  0.065  -0.32021  -0.576334  0.060119  2.384532  0.083
O  O69  1  0.69281320  0.38494184  0.55089412  1  -0.647362  -0.079863  2.10829  -0.105  -0.605324  -0.05404  2.377143  -0.077  -0.647063  -0.04287  2.366499  -0.065  -0.320192  -0.576236  -0.060116  2.384543  -0.083
O  O70  1  0.51748354  0.62026588  0.64222398  1  -0.682004  -0.079133  2.116021  -0.103  -0.65153  -0.052468  2.406882  -0.074  -0.692023  -0.040785  2.3943  -0.061  -0.393646  -0.622929  -0.059629  2.41542  -0.081
O  O71  1  0.98251107  0.62026935  0.14222470  1  -0.681881  0.079133  2.116047  0.103  -0.651365  0.052468  2.406857  0.074  -0.691874  0.040787  2.394286  0.061  -0.39355  -0.622772  0.059633  2.415386  0.081
O  O72  1  0.48251368  0.37973468  0.35777564  1  -0.68194  -0.079129  2.116071  -0.103  -0.651428  -0.052467  2.406928  -0.074  -0.691922  -0.040785  2.39435  -0.061  -0.393601  -0.622827  -0.059632  2.415459  -0.081
O  O73  1  0.01748920  0.37973212  0.85777345  1  -0.681926  0.079134  2.116139  0.103  -0.651435  0.052468  2.406955  0.074  -0.691945  0.040787  2.394381  0.061  -0.393585  -0.622847  0.059633  2.415491  0.081
O  O74  1  0.21225552  0.56968165  0.70545534  1  -0.692829  -0.001105  1.954503  -0.002  -0.658388  -0.001168  2.196855  -0.002  -0.680406  -0.00046  2.18354  -0.001  -0.396458  -0.642947  -0.001657  2.205346  -0.003
O  O75  1  0.28773503  0.56968038  0.20546625  1  -0.692733  0.001109  1.954647  0.002  -0.658231  0.001167  2.19687  0.002  -0.68025  0.000458  2.183559  0.001  -0.396353  -0.642786  0.001658  2.205356  0.003
O  O76  1  0.78774628  0.43031796  0.29453841  1  -0.692792  -0.001111  1.954584  -0.002  -0.658303  -0.001168  2.196925  -0.002  -0.68032  -0.000461  2.18361  -0.001  -0.396447  -0.64286  -0.001658  2.20541  -0.003
O  O77  1  0.71226371  0.43032017  0.79453336  1  -0.692771  0.001108  1.954684  0.002  -0.658277  0.001168  2.19688  0.002  -0.680299  0.000458  2.18357  0.001  -0.396376  -0.642836  0.001658  2.20537  0.003
O  O78  1  0.91369320  0.66881503  0.53990765  1  -0.890687  -0.000561  1.751652  -0.001  -0.854135  -0.000282  1.914966  -0.001  -0.869161  -2.1e-05  1.882432  0.0  -0.670217  -0.842978  -0.000553  1.937726  -0.001
O  O79  1  0.58629701  0.66882557  0.03991075  1  -0.890737  0.000559  1.751598  0.001  -0.854194  0.000283  1.914914  0.001  -0.869216  2.1e-05  1.882384  0.0  -0.670274  -0.843038  0.000554  1.93768  0.001
O  O80  1  0.08630401  0.33118922  0.46009103  1  -0.890696  -0.00056  1.751655  -0.001  -0.854152  -0.000282  1.914967  -0.001  -0.869177  -2.1e-05  1.882431  0.0  -0.670217  -0.842986  -0.000553  1.93771  -0.001
O  O81  1  0.41370632  0.33117591  0.96008659  1  -0.890775  0.00056  1.751606  0.001  -0.854235  0.000283  1.914927  0.001  -0.869259  2.1e-05  1.882398  0.0  -0.670306  -0.843072  0.000553  1.937671  0.001
