# generated using pymatgen
data_SrH5C5O6
_symmetry_space_group_name_H-M   'P 1'
_cell_length_a   7.66973962
_cell_length_b   10.01630060
_cell_length_c   11.01724005
_cell_angle_alpha   97.71762446
_cell_angle_beta   90.00518170
_cell_angle_gamma   112.53050969
_symmetry_Int_Tables_number   1
_chemical_formula_structural   SrH5C5O6
_chemical_formula_sum   'Sr4 H20 C20 O24'
_cell_volume   773.46145307
_cell_formula_units_Z   4
loop_
 _symmetry_equiv_pos_site_id
 _symmetry_equiv_pos_as_xyz
  1  'x, y, z'
loop_
 _atom_site_type_symbol
 _atom_site_label
 _atom_site_symmetry_multiplicity
 _atom_site_fract_x
 _atom_site_fract_y
 _atom_site_fract_z
 _atom_site_occupancy
 _atom_site_hle17_bader_spin_density
 _atom_site_hle17_ddec_charge
 _atom_site_hle17_ddec_spin_density
 _atom_site_hle17_ddec_sum_bond_order
 _atom_site_hle17_magmom
 _atom_site_hse06_10hf_bader_spin_density
 _atom_site_hse06_10hf_ddec_charge
 _atom_site_hse06_10hf_ddec_spin_density
 _atom_site_hse06_10hf_ddec_sum_bond_order
 _atom_site_hse06_10hf_magmom
 _atom_site_hse06_bader_spin_density
 _atom_site_hse06_ddec_charge
 _atom_site_hse06_ddec_spin_density
 _atom_site_hse06_ddec_sum_bond_order
 _atom_site_hse06_magmom
 _atom_site_pbe_bader_spin_density
 _atom_site_pbe_cm5_charge
 _atom_site_pbe_ddec_charge
 _atom_site_pbe_ddec_spin_density
 _atom_site_pbe_ddec_sum_bond_order
 _atom_site_pbe_magmom
Sr  Sr0  1  0.60416652  0.48633219  0.68352711  1  0  1.623271  0  1.077011  0  0  1.480726  0  1.439504  0  0  1.518166  0  1.395699  0  0  0.943171  1.452575  0  1.471915  0
Sr  Sr1  1  0.11792161  0.51372570  0.81648847  1  0  1.623274  0  1.078027  0  0  1.480414  0  1.440932  0  0  1.5179  0  1.39707  0  0  0.943296  1.452985  0  1.471998  0
Sr  Sr2  1  0.39583547  0.51366441  0.31647229  1  0  1.623238  0  1.077064  0  0  1.480692  0  1.439559  0  0  1.518134  0  1.395758  0  0  0.94316  1.452552  0  1.47195  0
Sr  Sr3  1  0.88207942  0.48627418  0.18351221  1  0  1.623313  0  1.077959  0  0  1.480438  0  1.440896  0  0  1.517946  0  1.397011  0  0  0.943323  1.453014  0  1.471961  0
H  H4  1  0.01549436  0.69813474  0.60335470  1  0  0.439671  0  0.856462  0  0  0.406182  0  0.922989  0  0  0.417214  0  0.907099  0  0  0.305659  0.398315  0  0.934349  0
H  H5  1  0.31706746  0.30183833  0.89672462  1  0  0.439987  0  0.856037  0  0  0.407059  0  0.921704  0  0  0.418069  0  0.905829  0  0  0.306383  0.399283  0  0.932926  0
H  H6  1  0.98450090  0.30186403  0.39664404  1  0  0.439662  0  0.856471  0  0  0.406168  0  0.923009  0  0  0.417201  0  0.907119  0  0  0.305633  0.398301  0  0.93437  0
H  H7  1  0.68292738  0.69816482  0.10327553  1  0  0.439868  0  0.856209  0  0  0.40697  0  0.921823  0  0  0.417975  0  0.905953  0  0  0.306337  0.3992  0  0.933041  0
H  H8  1  0.86728064  0.77380338  0.63225076  1  0  0.434365  0  0.829947  0  0  0.412438  0  0.888738  0  0  0.421189  0  0.876367  0  0  0.324553  0.405984  0  0.896438  0
H  H9  1  0.09316391  0.22635397  0.86786121  1  0  0.433564  0  0.831004  0  0  0.411673  0  0.889652  0  0  0.42046  0  0.877313  0  0  0.324185  0.405369  0  0.897069  0
H  H10  1  0.13272224  0.22619761  0.36775095  1  0  0.434409  0  0.82989  0  0  0.412466  0  0.888718  0  0  0.42122  0  0.876335  0  0  0.324543  0.406011  0  0.89642  0
H  H11  1  0.90683298  0.77364806  0.13213609  1  0  0.433535  0  0.83106  0  0  0.411641  0  0.889711  0  0  0.420425  0  0.877363  0  0  0.324163  0.405337  0  0.897127  0
H  H12  1  0.14648727  0.26672316  0.67484478  1  0  0.421819  0  0.88821  0  0  0.392802  0  0.948309  0  0  0.403323  0  0.932833  0  0  0.303775  0.385267  0  0.959438  0
H  H13  1  0.88008314  0.73344675  0.82519092  1  0  0.421078  0  0.889563  0  0  0.392096  0  0.949434  0  0  0.402617  0  0.933964  0  0  0.303793  0.384638  0  0.960409  0
H  H14  1  0.85351375  0.73327671  0.32515408  1  0  0.421813  0  0.888215  0  0  0.392804  0  0.948303  0  0  0.403325  0  0.932827  0  0  0.303754  0.38527  0  0.959433  0
H  H15  1  0.11991549  0.26655094  0.17480860  1  0  0.421067  0  0.889577  0  0  0.392068  0  0.949468  0  0  0.402588  0  0.933998  0  0  0.303794  0.38461  0  0.960442  0
H  H16  1  0.21248135  0.34913464  0.56317878  1  0  0.440342  0  0.858054  0  0  0.410533  0  0.919695  0  0  0.421275  0  0.903904  0  0  0.308774  0.402746  0  0.931151  0
H  H17  1  0.86362892  0.65089656  0.93674637  1  0  0.440751  0  0.857441  0  0  0.410744  0  0.919433  0  0  0.421506  0  0.903608  0  0  0.309006  0.402948  0  0.930902  0
H  H18  1  0.78751870  0.65086851  0.43682137  1  0  0.440295  0  0.85813  0  0  0.410491  0  0.919758  0  0  0.421233  0  0.903967  0  0  0.30875  0.402704  0  0.931213  0
H  H19  1  0.13636710  0.34910113  0.06325224  1  0  0.440755  0  0.857432  0  0  0.410742  0  0.919434  0  0  0.421506  0  0.903606  0  0  0.308996  0.402947  0  0.930904  0
H  H20  1  0.72117004  0.06024483  0.83397188  1  0  0.111414  0  1.000552  0  0  0.115865  0  1.070372  0  0  0.119753  0  1.067909  0  0  0.105769  0.112734  0  1.073119  0
H  H21  1  0.66091408  0.93994790  0.66609804  1  0  0.110699  0  1.001168  0  0  0.115543  0  1.070529  0  0  0.11943  0  1.068083  0  0  0.105475  0.112433  0  1.073302  0
H  H22  1  0.27883348  0.93976265  0.16602513  1  0  0.111278  0  1.000581  0  0  0.115705  0  1.070467  0  0  0.11959  0  1.068002  0  0  0.105725  0.112575  0  1.073212  0
H  H23  1  0.33908410  0.06005411  0.33389653  1  0  0.110698  0  1.001103  0  0  0.115543  0  1.070465  0  0  0.119429  0  1.068015  0  0  0.105459  0.112432  0  1.073238  0
C  C24  1  0.59650607  0.77916007  0.85253535  1  0  0.670458  0  3.899959  0  0  0.617773  0  4.200142  0  0  0.65145  0  4.19127  0  0  0.221113  0.594822  0  4.205411  0
C  C25  1  0.81721294  0.22104865  0.64756014  1  0  0.668522  0  3.900624  0  0  0.616351  0  4.19981  0  0  0.650015  0  4.190926  0  0  0.220259  0.593331  0  4.205079  0
C  C26  1  0.40350023  0.22085295  0.14746957  1  0  0.670646  0  3.899569  0  0  0.617762  0  4.200053  0  0  0.651436  0  4.191176  0  0  0.221017  0.59481  0  4.205325  0
C  C27  1  0.18278788  0.77895344  0.35244261  1  0  0.668589  0  3.900768  0  0  0.616405  0  4.199982  0  0  0.650072  0  4.19109  0  0  0.220237  0.593386  0  4.205249  0
C  C28  1  0.54990497  0.89157073  0.93389297  1  0  -0.072914  0  3.733901  0  0  -0.061108  0  3.974083  0  0  -0.065952  0  3.993467  0  0  -0.009385  -0.057381  0  3.960955  0
C  C29  1  0.65828956  0.10850005  0.56612275  1  0  -0.073002  0  3.734078  0  0  -0.06086  0  3.973575  0  0  -0.06582  0  3.993096  0  0  -0.009445  -0.057229  0  3.960394  0
C  C30  1  0.45009604  0.10842912  0.06610408  1  0  -0.073246  0  3.733853  0  0  -0.061366  0  3.974059  0  0  -0.066199  0  3.993445  0  0  -0.009384  -0.057641  0  3.960933  0
C  C31  1  0.34170225  0.89149444  0.43388366  1  0  -0.072962  0  3.733957  0  0  -0.060817  0  3.973422  0  0  -0.065759  0  3.992962  0  0  -0.009402  -0.057186  0  3.960239  0
C  C32  1  0.42713530  0.85597917  0.02997931  1  0  -0.060498  0  3.709697  0  0  -0.047645  0  3.950209  0  0  -0.049681  0  3.966878  0  0  -0.001432  -0.045934  0  3.938749  0
C  C33  1  0.57113481  0.14399523  0.46998745  1  0  -0.05998  0  3.709546  0  0  -0.046999  0  3.950208  0  0  -0.048978  0  3.966845  0  0  -0.000684  -0.045641  0  3.939143  0
C  C34  1  0.57285591  0.14401412  0.97001698  1  0  -0.060338  0  3.70935  0  0  -0.047485  0  3.94982  0  0  -0.049544  0  3.966522  0  0  -0.001441  -0.045772  0  3.938356  0
C  C35  1  0.42887353  0.85600364  0.53002037  1  0  -0.05979  0  3.709425  0  0  -0.046753  0  3.949999  0  0  -0.048803  0  3.966728  0  0  -0.000602  -0.045396  0  3.938935  0
C  C36  1  0.62309134  0.03484747  0.90691339  1  0  -0.081309  0  3.691417  0  0  -0.115099  0  3.942481  0  0  -0.115636  0  3.960728  0  0  -0.078626  -0.11574  0  3.93198  0
C  C37  1  0.58822870  0.96524725  0.59315602  1  0  -0.08109  0  3.692789  0  0  -0.115494  0  3.94389  0  0  -0.116029  0  3.962205  0  0  -0.078644  -0.115635  0  3.93306  0
C  C38  1  0.37690157  0.96514140  0.09307695  1  0  -0.081004  0  3.691407  0  0  -0.114782  0  3.942462  0  0  -0.115321  0  3.960695  0  0  -0.078596  -0.115428  0  3.93197  0
C  C39  1  0.41177328  0.03474934  0.40684247  1  0  -0.08101  0  3.692556  0  0  -0.115401  0  3.943684  0  0  -0.115952  0  3.961972  0  0  -0.07859  -0.115542  0  3.932852  0
C  C40  1  0.35229010  0.70870401  0.07453448  1  0  0.705307  0  3.883909  0  0  0.648019  0  4.192918  0  0  0.683024  0  4.181174  0  0  0.238569  0.624241  0  4.19998  0
C  C41  1  0.64334894  0.29133305  0.42551655  1  0  0.706312  0  3.881175  0  0  0.648544  0  4.191022  0  0  0.683542  0  4.179258  0  0  0.2387  0.624615  0  4.198361  0
C  C42  1  0.64770929  0.29130565  0.92546096  1  0  0.705261  0  3.883629  0  0  0.648023  0  4.192575  0  0  0.683036  0  4.180831  0  0  0.238594  0.624246  0  4.199632  0
C  C43  1  0.35665503  0.70867012  0.57448542  1  0  0.706256  0  3.881304  0  0  0.648489  0  4.191132  0  0  0.683505  0  4.179371  0  0  0.2387  0.624562  0  4.198473  0
O  O44  1  0.48304961  0.64490163  0.84549578  1  0  -0.751511  0  1.986666  0  0  -0.684754  0  2.231684  0  0  -0.711571  0  2.222198  0  0  -0.396062  -0.666091  0  2.238146  0
O  O45  1  0.83789838  0.35523423  0.65451023  1  0  -0.750308  0  1.986778  0  0  -0.683809  0  2.231269  0  0  -0.710615  0  2.221909  0  0  -0.395517  -0.664775  0  2.237578  0
O  O46  1  0.51696327  0.35510370  0.15450371  1  0  -0.751532  0  1.986744  0  0  -0.684671  0  2.231797  0  0  -0.711524  0  2.222396  0  0  -0.395968  -0.666014  0  2.238262  0
O  O47  1  0.16210744  0.64477002  0.34549004  1  0  -0.750363  0  1.986794  0  0  -0.68388  0  2.231316  0  0  -0.71069  0  2.221954  0  0  -0.395543  -0.664848  0  2.237625  0
O  O48  1  0.74414058  0.82276573  0.79166434  1  0  -0.658979  0  1.975408  0  0  -0.600938  0  2.191579  0  0  -0.623781  0  2.179013  0  0  -0.318719  -0.584451  0  2.199861  0
O  O49  1  0.92116603  0.17755279  0.70859451  1  0  -0.658386  0  1.974813  0  0  -0.600451  0  2.190797  0  0  -0.62326  0  2.178231  0  0  -0.318455  -0.584267  0  2.199372  0
O  O50  1  0.25585992  0.17723310  0.20833985  1  0  -0.659015  0  1.97521  0  0  -0.600894  0  2.191454  0  0  -0.623736  0  2.178891  0  0  -0.318715  -0.584404  0  2.199735  0
O  O51  1  0.07884267  0.82244159  0.29140100  1  0  -0.658444  0  1.974972  0  0  -0.60049  0  2.190942  0  0  -0.623301  0  2.178375  0  0  -0.318435  -0.584308  0  2.199519  0
O  O52  1  0.17863985  0.62792506  0.04932090  1  0  -0.726998  0  1.971406  0  0  -0.663798  0  2.220968  0  0  -0.690564  0  2.210616  0  0  -0.368943  -0.644437  0  2.227311  0
O  O53  1  0.55015945  0.37182755  0.45067870  1  0  -0.726536  0  1.969657  0  0  -0.663538  0  2.220067  0  0  -0.690181  0  2.209538  0  0  -0.369045  -0.644308  0  2.226986  0
O  O54  1  0.82136987  0.37207917  0.95067756  1  0  -0.726976  0  1.97115  0  0  -0.663887  0  2.220854  0  0  -0.690653  0  2.210498  0  0  -0.368991  -0.644528  0  2.227199  0
O  O55  1  0.44983140  0.62817025  0.54933081  1  0  -0.72654  0  1.969672  0  0  -0.663567  0  2.220112  0  0  -0.690207  0  2.20957  0  0  -0.369087  -0.644338  0  2.227034  0
O  O56  1  0.46409678  0.67870575  0.14140220  1  0  -0.687614  0  1.958857  0  0  -0.624752  0  2.190532  0  0  -0.65162  0  2.179196  0  0  -0.335607  -0.60621  0  2.19832  0
O  O57  1  0.78524968  0.32154498  0.35869623  1  0  -0.688713  0  1.958118  0  0  -0.625502  0  2.190137  0  0  -0.652291  0  2.178692  0  0  -0.336068  -0.606292  0  2.197648  0
O  O58  1  0.53589829  0.32129525  0.85860042  1  0  -0.687578  0  1.958896  0  0  -0.624711  0  2.190562  0  0  -0.651578  0  2.179224  0  0  -0.335581  -0.606169  0  2.198343  0
O  O59  1  0.21475177  0.67845052  0.64130304  1  0  -0.688703  0  1.958127  0  0  -0.625513  0  2.190167  0  0  -0.652299  0  2.178713  0  0  -0.336084  -0.606302  0  2.197677  0
O  O60  1  0.88243780  0.68888365  0.58561828  1  0  -0.854779  0  1.836134  0  0  -0.791587  0  2.010965  0  0  -0.811726  0  1.981238  0  0  -0.580557  -0.777026  0  2.030911  0
O  O61  1  0.19336395  0.31126842  0.91450049  1  0  -0.854664  0  1.837286  0  0  -0.79177  0  2.011633  0  0  -0.811865  0  1.981972  0  0  -0.581056  -0.7773  0  2.031187  0
O  O62  1  0.11756486  0.31111951  0.41438278  1  0  -0.854808  0  1.83609  0  0  -0.791623  0  2.01094  0  0  -0.811759  0  1.9812  0  0  -0.58053  -0.77706  0  2.030887  0
O  O63  1  0.80663187  0.68873148  0.08550201  1  0  -0.854534  0  1.837386  0  0  -0.791682  0  2.011762  0  0  -0.811772  0  1.982108  0  0  -0.581022  -0.777222  0  2.031291  0
O  O64  1  0.25177914  0.35196301  0.65010915  1  0  -0.951984  0  1.883337  0  0  -0.894575  0  2.077278  0  0  -0.914951  0  2.044272  0  0  -0.661845  -0.880013  0  2.101031  0
O  O65  1  0.90019682  0.64821419  0.84984072  1  0  -0.951761  0  1.883815  0  0  -0.894241  0  2.078187  0  0  -0.914536  0  2.045007  0  0  -0.662407  -0.879712  0  2.101851  0
O  O66  1  0.74822299  0.64803908  0.34989360  1  0  -0.951907  0  1.883393  0  0  -0.894525  0  2.077363  0  0  -0.914902  0  2.044357  0  0  -0.661786  -0.879965  0  2.101116  0
O  O67  1  0.09980105  0.35178460  0.15015984  1  0  -0.951742  0  1.883764  0  0  -0.894202  0  2.078163  0  0  -0.914498  0  2.044983  0  0  -0.662407  -0.879676  0  2.101826  0
