# generated using pymatgen
data_MnH8C16(NO2)4
_symmetry_space_group_name_H-M   'P 1'
_cell_length_a   8.29003663
_cell_length_b   11.82940868
_cell_length_c   16.45000000
_cell_angle_alpha   90.00000000
_cell_angle_beta   90.00000000
_cell_angle_gamma   93.10106195
_symmetry_Int_Tables_number   1
_chemical_formula_structural   MnH8C16(NO2)4
_chemical_formula_sum   'Mn4 H32 C64 N16 O32'
_cell_volume   1610.82726011
_cell_formula_units_Z   4
loop_
 _symmetry_equiv_pos_site_id
 _symmetry_equiv_pos_as_xyz
  1  'x, y, z'
loop_
 _atom_site_type_symbol
 _atom_site_label
 _atom_site_symmetry_multiplicity
 _atom_site_fract_x
 _atom_site_fract_y
 _atom_site_fract_z
 _atom_site_occupancy
 _atom_site_hle17_ddec_charge
 _atom_site_hle17_ddec_spin_density
 _atom_site_hle17_ddec_sum_bond_order
 _atom_site_hle17_magmom
 _atom_site_hse06_10hf_ddec_charge
 _atom_site_hse06_10hf_ddec_spin_density
 _atom_site_hse06_10hf_ddec_sum_bond_order
 _atom_site_hse06_10hf_magmom
 _atom_site_hse06_ddec_charge
 _atom_site_hse06_ddec_spin_density
 _atom_site_hse06_ddec_sum_bond_order
 _atom_site_hse06_magmom
 _atom_site_pbe_bader_charge
 _atom_site_pbe_bader_spin_density
 _atom_site_pbe_cm5_charge
 _atom_site_pbe_ddec_charge
 _atom_site_pbe_ddec_spin_density
 _atom_site_pbe_ddec_sum_bond_order
 _atom_site_pbe_magmom
Mn  Mn0  1  0.99808940  0.81899586  0.43676960  1  1.164061  4.784598  1.79008  4.658  1.000329  4.703468  2.296232  4.501  1.059621  4.753703  2.221464  4.574  1.516438  4.512483  0.64031  0.95585  4.648065  2.351463  4.425
Mn  Mn1  1  0.00191698  0.68100500  0.93676900  1  1.16407  4.784592  1.789929  4.658  1.000356  4.703485  2.296052  4.501  1.059648  4.753714  2.221285  4.574  1.516403  4.512626  0.640247  0.955792  4.648167  2.351298  4.425
Mn  Mn2  1  0.00187939  0.18100189  0.56325046  1  1.164054  4.784534  1.790022  4.658  1.000399  4.703391  2.29611  4.501  1.059683  4.753628  2.221347  4.574  1.516499  4.512555  0.640318  0.955854  4.64807  2.351351  4.425
Mn  Mn3  1  0.99808832  0.31899699  0.06323708  1  1.163994  4.784543  1.79007  4.658  1.000294  4.703415  2.296156  4.501  1.059576  4.753651  2.221393  4.574  1.51652  4.512397  0.640226  0.955646  4.647894  2.351442  4.425
H  H4  1  0.62899942  0.90037945  0.35698055  1  0.326466  0.000354  0.893435  0.0  0.301846  0.000593  0.963364  0.001  0.311782  0.000427  0.954561  0.0  0.551602  0.000841  0.315886  0.29478  0.000768  0.969653  0.001
H  H5  1  0.37099845  0.59962057  0.85697994  1  0.326517  0.000355  0.893355  0.0  0.301872  0.000593  0.963316  0.001  0.311819  0.000427  0.954507  0.0  0.55158  0.000838  0.315875  0.2948  0.000764  0.969604  0.001
H  H6  1  0.37100562  0.09961915  0.64301641  1  0.326459  0.000354  0.893459  0.0  0.301832  0.000593  0.963414  0.001  0.311765  0.000427  0.954611  0.0  0.551653  0.000839  0.315905  0.294763  0.000764  0.9697  0.001
H  H7  1  0.62899104  0.40037973  0.14301702  1  0.326497  0.000353  0.893393  0.0  0.30187  0.000593  0.963355  0.001  0.311805  0.000427  0.95455  0.0  0.551674  0.000842  0.315902  0.294792  0.000769  0.969645  0.001
H  H8  1  0.14130455  0.66656302  0.14312340  1  0.334721  -3.1e-05  0.867272  0.0  0.307631  -6e-06  0.93978  0.0  0.317428  -0.000118  0.93063  0.0  0.548988  0.000749  0.329862  0.300675  0.000117  0.946382  0.001
H  H9  1  0.85869058  0.83343277  0.64312523  1  0.334621  -3.2e-05  0.867231  0.0  0.307545  -6e-06  0.939733  0.0  0.31734  -0.000118  0.930587  0.0  0.5484  0.000749  0.329834  0.300562  0.000115  0.946354  0.001
H  H10  1  0.85869192  0.33343389  0.85687903  1  0.33469  -3.4e-05  0.867297  0.0  0.307601  -6e-06  0.939795  0.0  0.317397  -0.000118  0.930648  0.0  0.5488  0.000746  0.329836  0.300644  0.000113  0.946396  0.001
H  H11  1  0.14130735  0.16656752  0.35687234  1  0.334624  -3e-05  0.867277  0.0  0.307551  -6e-06  0.939768  0.0  0.317349  -0.000118  0.930617  0.0  0.5482  0.00075  0.329822  0.300589  0.000116  0.94638  0.001
H  H12  1  0.46574930  0.79010427  0.61721641  1  0.384699  0.000174  0.92108  0.0  0.354113  0.000305  0.99933  0.0  0.367166  0.000231  0.984653  0.0  0.650259  0.000311  0.293687  0.345189  0.00037  1.007635  0.0
H  H13  1  0.53424977  0.70989575  0.11721884  1  0.384768  0.000174  0.92107  0.0  0.354247  0.000304  0.999195  0.0  0.3673  0.000231  0.984477  0.0  0.650214  0.000312  0.293693  0.345319  0.000372  1.0075  0.0
H  H14  1  0.53423979  0.20989095  0.38278298  1  0.384613  0.000173  0.921192  0.0  0.354073  0.000304  0.999382  0.0  0.367127  0.000231  0.984704  0.0  0.650463  0.000311  0.293645  0.345145  0.000372  1.00769  0.0
H  H15  1  0.46575077  0.29010709  0.88277994  1  0.384784  0.000173  0.92105  0.0  0.354245  0.000304  0.9992  0.0  0.3673  0.000231  0.984476  0.0  0.650218  0.000311  0.29367  0.345311  0.00037  1.007504  0.0
H  H16  1  0.76923918  0.46706143  0.30647112  1  0.39281  8.5e-05  0.893951  0.0  0.361811  0.000183  0.973018  0.0  0.37443  0.000128  0.960424  0.0  0.647088  0.000305  0.297817  0.353026  0.000241  0.981653  0.0
H  H17  1  0.23075347  0.03293237  0.80647356  1  0.392759  8.4e-05  0.894  0.0  0.361798  0.000183  0.973004  0.0  0.374418  0.000128  0.960397  0.0  0.64711  0.000302  0.297808  0.353012  0.000237  0.981634  0.0
H  H18  1  0.23076834  0.53293802  0.69353191  1  0.392737  8.4e-05  0.894011  0.0  0.361781  0.000183  0.973004  0.0  0.374398  0.000128  0.960418  0.0  0.64708  0.000302  0.297825  0.352994  0.000238  0.981638  0.0
H  H19  1  0.76923690  0.96706369  0.19352462  1  0.392791  8.4e-05  0.894049  0.0  0.361783  0.000183  0.973115  0.0  0.3744  0.000128  0.960518  0.0  0.64714  0.000304  0.297783  0.352998  0.000241  0.981753  0.0
H  H20  1  0.51291363  0.05604090  0.28284802  1  0.097516  -1.7e-05  0.960748  0.0  0.105371  -3e-06  1.027061  0.0  0.108537  -1.8e-05  1.025425  0.0  0.10698  0.000102  0.104163  0.103096  1.8e-05  1.02833  0.0
H  H21  1  0.48708551  0.44395882  0.78284924  1  0.0975  -2e-05  0.960716  0.0  0.105376  -3e-06  1.027004  0.0  0.108541  -1.8e-05  1.025369  0.0  0.106964  9.4e-05  0.104175  0.103105  1.2e-05  1.028261  0.0
H  H22  1  0.48708290  0.94395685  0.71715015  1  0.097561  -2.8e-05  0.960635  0.0  0.105399  -3e-06  1.026958  0.0  0.108592  -1.8e-05  1.02529  0.0  0.106862  9.4e-05  0.104169  0.103114  1.2e-05  1.028234  0.0
H  H23  1  0.51291288  0.55604740  0.21715015  1  0.097592  -2.4e-05  0.960592  0.0  0.10538  -3e-06  1.026987  0.0  0.108566  -1.8e-05  1.025323  0.0  0.106903  0.000103  0.104171  0.103105  1.8e-05  1.02825  0.0
H  H24  1  0.46562594  0.12459949  0.14363647  1  0.091636  -0.000109  0.940462  0.0  0.103084  -9.8e-05  0.996994  0.0  0.105292  -0.000101  0.996778  0.0  0.065037  8.1e-05  0.102127  0.101503  -9.1e-05  0.997246  0.0
H  H25  1  0.53437421  0.37539769  0.64363830  1  0.091595  -0.000109  0.940496  0.0  0.103076  -9.8e-05  0.996997  0.0  0.105284  -0.000101  0.996781  0.0  0.065365  7e-05  0.102128  0.101485  -9.8e-05  0.997257  0.0
H  H26  1  0.53437039  0.87539572  0.85636292  1  0.091569  -0.000103  0.94052  0.0  0.103055  -9.8e-05  0.997019  0.0  0.105264  -0.000101  0.996802  0.0  0.064902  7e-05  0.102144  0.101474  -9.8e-05  0.99726  0.0
H  H27  1  0.46562982  0.62460345  0.35636413  1  0.091591  -0.000112  0.940521  0.0  0.103075  -9.8e-05  0.997013  0.0  0.105284  -0.000101  0.996797  0.0  0.064955  7.9e-05  0.102131  0.101482  -9.2e-05  0.99728  0.0
H  H28  1  0.25530405  0.02442414  0.05597325  1  0.105964  -9.9e-05  0.931988  0.0  0.116558  -4.6e-05  0.988129  0.0  0.120037  -8.7e-05  0.986031  0.0  0.103854  0.000261  0.108729  0.114016  -2e-06  0.989768  0.0
H  H29  1  0.74469743  0.47557474  0.55597447  1  0.106001  -0.000108  0.931942  0.0  0.116585  -4.6e-05  0.988092  0.0  0.120064  -8.6e-05  0.985995  0.0  0.103872  0.000259  0.108743  0.11403  -3e-06  0.989744  0.0
H  H30  1  0.74469610  0.97557362  0.94402553  1  0.105986  -0.000107  0.931964  0.0  0.116577  -4.6e-05  0.988107  0.0  0.120056  -8.7e-05  0.98601  0.0  0.10386  0.000258  0.108758  0.114024  -3e-06  0.989761  0.0
H  H31  1  0.25530412  0.52442555  0.44402675  1  0.105994  -0.000111  0.931962  0.0  0.116589  -4.6e-05  0.988106  0.0  0.120068  -8.6e-05  0.986009  0.0  0.103836  0.000261  0.108748  0.114034  -2e-06  0.989764  0.0
H  H32  1  0.09517920  0.86008005  0.11043283  1  0.11552  -0.000482  0.954124  0.0  0.123073  -0.000598  1.018906  0.0  0.126718  -0.000578  1.016528  0.0  0.122431  -5e-06  0.111183  0.12041  -0.000603  1.020734  0.0
H  H33  1  0.90482470  0.63991997  0.61043465  1  0.115518  -0.000481  0.954172  0.0  0.123082  -0.000598  1.018942  0.0  0.126729  -0.000578  1.016562  0.0  0.122427  -8e-06  0.11118  0.120405  -0.000606  1.020778  0.0
H  H34  1  0.90482350  0.13991940  0.88956717  1  0.115523  -0.000474  0.954132  0.0  0.123107  -0.000598  1.018879  0.0  0.126753  -0.000578  1.016501  0.0  0.122443  -1e-05  0.111179  0.12044  -0.000608  1.020708  0.0
H  H35  1  0.09517819  0.36008202  0.38956596  1  0.115534  -0.000478  0.954119  0.0  0.123096  -0.000598  1.018879  0.0  0.126742  -0.000578  1.0165  0.0  0.122445  -6e-06  0.111182  0.120427  -0.000604  1.020708  0.0
C  C36  1  0.65607449  0.84351990  0.52522553  1  0.649623  0.009289  3.934407  0.01  0.594745  0.013972  4.239262  0.013  0.630944  0.010351  4.228755  0.01  1.627869  0.019675  0.223826  0.569284  0.018579  4.246396  0.017
C  C37  1  0.34392814  0.65647928  0.02522371  1  0.649616  0.009272  3.934492  0.01  0.594702  0.013966  4.239389  0.013  0.630894  0.010345  4.228881  0.01  1.627941  0.01967  0.223774  0.569231  0.018573  4.24651  0.017
C  C38  1  0.34393029  0.15647532  0.47477690  1  0.649649  0.00926  3.934439  0.01  0.594761  0.013951  4.239279  0.013  0.63095  0.010333  4.228774  0.01  1.627825  0.019653  0.223799  0.56929  0.018555  4.246416  0.017
C  C39  1  0.65606396  0.34352356  0.97477933  1  0.649612  0.009267  3.934686  0.01  0.594712  0.013962  4.239529  0.013  0.630903  0.010343  4.229025  0.01  1.627856  0.019666  0.223907  0.569224  0.018568  4.246661  0.017
C  C40  1  0.51568824  0.84975927  0.47054772  1  0.016137  -0.000865  3.713904  0.0  -0.002077  0.00071  3.980157  0.0  -0.002915  -0.000387  3.998324  0.0  0.400697  0.003226  0.091971  -0.001643  0.002006  3.968567  0.001
C  C41  1  0.48431293  0.65023652  0.97054894  1  0.016054  -0.00084  3.713961  0.0  -0.002169  0.000708  3.980193  0.0  -0.002983  -0.000383  3.998348  0.0  0.4006  0.003221  0.091969  -0.001733  0.002001  3.968585  0.001
C  C42  1  0.48431534  0.15023595  0.52945046  1  0.015954  -0.000832  3.713676  0.0  -0.00223  0.000707  3.97998  0.0  -0.003064  -0.000386  3.998131  0.0  0.400306  0.00322  0.091914  -0.001803  0.002  3.968393  0.001
C  C43  1  0.51568139  0.34976378  0.02945046  1  0.015885  -0.000827  3.71389  0.0  -0.002283  0.000712  3.980076  0.0  -0.003114  -0.000383  3.998221  0.0  0.400491  0.003227  0.091871  -0.001855  0.002007  3.968473  0.001
C  C44  1  0.35194261  0.82776146  0.48629179  1  -0.024201  0.002518  3.810273  0.002  -0.030433  0.005146  4.06921  0.004  -0.033444  0.003761  4.090621  0.003  0.441872  0.008829  0.082734  -0.028829  0.00705  4.055145  0.006
C  C45  1  0.64805748  0.67223602  0.98629240  1  -0.023948  0.002502  3.810108  0.002  -0.030147  0.005145  4.068965  0.004  -0.033155  0.003758  4.090366  0.003  0.441864  0.008827  0.082804  -0.02856  0.007048  4.054885  0.006
C  C46  1  0.64806592  0.17223545  0.51370395  1  -0.023951  0.002496  3.809783  0.002  -0.030325  0.00515  4.068827  0.004  -0.033335  0.003764  4.090235  0.003  0.442161  0.008831  0.082726  -0.02874  0.007052  4.054759  0.006
C  C47  1  0.35193018  0.32777190  0.01370395  1  -0.023928  0.002489  3.810008  0.002  -0.030163  0.005144  4.068881  0.004  -0.033179  0.00376  4.09029  0.003  0.441888  0.008832  0.082751  -0.02857  0.007052  4.0548  0.006
C  C48  1  0.26057347  0.78861173  0.55871793  1  0.653925  0.003416  3.836181  0.003  0.600403  0.007697  4.136342  0.007  0.635847  0.005606  4.126097  0.005  1.545484  0.010332  0.239672  0.575891  0.010191  4.143027  0.009
C  C49  1  0.73943010  0.71138406  0.05871915  1  0.653516  0.003423  3.836559  0.003  0.600046  0.007692  4.136637  0.007  0.635483  0.005606  4.126397  0.005  1.545838  0.010328  0.239501  0.575543  0.010188  4.1433  0.009
C  C50  1  0.73943626  0.21138518  0.44127903  1  0.653626  0.003423  3.836582  0.003  0.60029  0.007691  4.136546  0.007  0.635731  0.005604  4.126306  0.005  1.5455  0.010327  0.239618  0.575794  0.010186  4.143204  0.009
C  C51  1  0.26056689  0.28861963  0.94128207  1  0.653914  0.003426  3.836295  0.003  0.60045  0.007697  4.13637  0.007  0.635889  0.005608  4.126122  0.005  1.545847  0.01033  0.239674  0.575907  0.010189  4.143063  0.009
C  C52  1  0.36947526  0.88215151  0.35985775  1  0.365691  0.003895  3.67815  0.004  0.32979  0.006737  3.949283  0.007  0.345843  0.005353  3.961889  0.005  0.970113  0.010348  0.238945  0.318856  0.008292  3.940749  0.008
C  C53  1  0.63052395  0.61785020  0.85985836  1  0.365745  0.003916  3.678108  0.004  0.329871  0.006734  3.949196  0.007  0.345937  0.005352  3.961802  0.005  0.970115  0.010338  0.238997  0.318909  0.008284  3.940683  0.008
C  C54  1  0.63053239  0.11784963  0.64014347  1  0.365624  0.003912  3.678095  0.004  0.329736  0.006743  3.9492  0.007  0.345783  0.00536  3.96181  0.005  0.969908  0.010348  0.238934  0.318784  0.008293  3.940678  0.008
C  C55  1  0.36946707  0.38215433  0.14013982  1  0.365801  0.003888  3.677933  0.004  0.329798  0.006738  3.949214  0.007  0.345846  0.005355  3.961818  0.005  0.97092  0.010353  0.238897  0.318817  0.008299  3.940709  0.008
C  C56  1  0.33153702  0.91860909  0.27724863  1  -0.027323  9.5e-05  3.733331  0.0  -0.015483  0.000472  3.969742  0.001  -0.017869  0.000249  3.990881  0.0  -0.000466  0.001478  0.001135  -0.013913  0.000773  3.955581  0.001
C  C57  1  0.66846567  0.58139093  0.77724863  1  -0.02731  6.1e-05  3.733439  0.0  -0.015507  0.000472  3.969851  0.001  -0.017891  0.000248  3.990985  0.0  -0.000482  0.001467  0.001145  -0.013925  0.000766  3.955683  0.001
C  C58  1  0.66846541  0.08138698  0.72275198  1  -0.027407  4.1e-05  3.733446  0.0  -0.015592  0.000473  3.96984  0.001  -0.017978  0.000247  3.990985  0.0  -0.000836  0.001467  0.001053  -0.014017  0.000766  3.955672  0.001
C  C59  1  0.33153366  0.41861190  0.22275076  1  -0.027469  7.3e-05  3.733368  0.0  -0.015594  0.000473  3.969777  0.001  -0.017982  0.000248  3.990921  0.0  -0.000826  0.001482  0.001113  -0.014002  0.000776  3.955601  0.001
C  C60  1  0.42126228  0.01250076  0.24515319  1  -0.07527  0.000117  3.707897  0.0  -0.10268  0.000654  3.965487  0.0  -0.103314  0.000424  3.984035  0.0  0.023113  0.00118  -0.084427  -0.102174  0.000946  3.952927  0.001
C  C61  1  0.57873927  0.48749897  0.74515502  1  -0.075284  0.000159  3.707959  0.0  -0.102687  0.000654  3.965565  0.0  -0.103323  0.000423  3.984115  0.0  0.023115  0.001166  -0.084457  -0.102177  0.000936  3.952984  0.001
C  C62  1  0.57873177  0.98749615  0.75484681  1  -0.075286  0.000194  3.707766  0.0  -0.102631  0.000654  3.96531  0.0  -0.103287  0.000427  3.983848  0.0  0.02351  0.001167  -0.084357  -0.102125  0.000937  3.952752  0.001
C  C63  1  0.42126013  0.51250471  0.25484620  1  -0.07528  0.000157  3.707769  0.0  -0.10262  0.000653  3.965315  0.0  -0.103268  0.000425  3.983861  0.0  0.023503  0.001182  -0.084405  -0.102115  0.000948  3.952746  0.001
C  C64  1  0.39402461  0.05156498  0.16675988  1  -0.039766  0.000553  3.736026  0.0  -0.056553  0.000775  3.993671  0.001  -0.057191  0.000584  4.013342  0.0  -0.102699  0.00144  -0.082399  -0.056075  0.001034  3.980245  0.001
C  C65  1  0.60597687  0.44843390  0.66676170  1  -0.039727  0.000518  3.736072  0.0  -0.05656  0.000775  3.993725  0.001  -0.057195  0.000584  4.013394  0.0  -0.103216  0.001428  -0.08242  -0.056091  0.001024  3.980318  0.001
C  C66  1  0.60596957  0.94843362  0.83324134  1  -0.039674  0.000486  3.73601  0.0  -0.056524  0.000776  3.993627  0.001  -0.057161  0.000583  4.013304  0.0  -0.102671  0.001428  -0.082449  -0.05605  0.001025  3.980223  0.001
C  C67  1  0.39402595  0.55156724  0.33324073  1  -0.039715  0.000525  3.735989  0.0  -0.056526  0.000777  3.993583  0.001  -0.057163  0.000583  4.01326  0.0  -0.10284  0.00144  -0.082397  -0.056062  0.001034  3.980198  0.001
C  C68  1  0.27689901  0.99638028  0.11795988  1  -0.042805  3.6e-05  3.722205  0.0  -0.059659  0.000574  3.97863  0.0  -0.060808  0.000289  3.997877  0.0  0.019938  0.001367  -0.078971  -0.058887  0.00093  3.965623  0.001
C  C69  1  0.72310356  0.50361805  0.61796170  1  -0.04281  8.7e-05  3.722119  0.0  -0.059649  0.000574  3.97856  0.0  -0.060797  0.000289  3.997805  0.0  0.020132  0.001358  -0.078982  -0.058897  0.000924  3.965586  0.001
C  C70  1  0.72309759  0.00361833  0.88204012  1  -0.042784  0.000112  3.722129  0.0  -0.059641  0.000575  3.978583  0.0  -0.060791  0.000292  3.99783  0.0  0.019918  0.001358  -0.078988  -0.058881  0.000924  3.965595  0.001
C  C71  1  0.27689907  0.49638055  0.38204012  1  -0.042824  9.1e-05  3.72223  0.0  -0.059695  0.000574  3.978686  0.0  -0.060845  0.00029  3.997933  0.0  0.020067  0.001367  -0.079029  -0.058947  0.00093  3.965721  0.001
C  C72  1  0.18718370  0.90291330  0.14846565  1  -0.078241  0.000482  3.700521  0.0  -0.107598  0.000674  3.961221  0.001  -0.108951  0.000512  3.980853  0.001  -0.067404  0.001323  -0.079786  -0.10661  0.000902  3.948072  0.001
C  C73  1  0.81281766  0.59708503  0.64846748  1  -0.078269  0.000445  3.700554  0.0  -0.107656  0.000675  3.961252  0.001  -0.109009  0.000511  3.980878  0.001  -0.067451  0.001316  -0.079823  -0.106677  0.000897  3.948121  0.001
C  C74  1  0.81281766  0.09708446  0.85153556  1  -0.078286  0.000406  3.700493  0.0  -0.107684  0.000676  3.961195  0.001  -0.109036  0.00051  3.98082  0.001  -0.067158  0.001314  -0.079799  -0.106693  0.000895  3.948033  0.001
C  C75  1  0.18718503  0.40291442  0.35153435  1  -0.078254  0.000438  3.7005  0.0  -0.107619  0.000676  3.961226  0.001  -0.10897  0.000511  3.980852  0.001  -0.067389  0.001324  -0.079801  -0.106635  0.000902  3.948086  0.001
C  C76  1  0.21144883  0.86290767  0.22784498  1  -0.030169  -0.000539  3.732664  0.0  -0.018443  0.000178  3.970635  0.0  -0.020584  -0.000144  3.992069  0.0  0.033048  0.001126  0.002353  -0.01719  0.000525  3.956311  0.0
C  C77  1  0.78855145  0.63709235  0.72784681  1  -0.0302  -0.000499  3.732694  0.0  -0.018409  0.000177  3.970661  0.0  -0.02054  -0.000143  3.992094  0.0  0.027714  0.001118  0.002377  -0.017161  0.000517  3.956341  0.0
C  C78  1  0.78855145  0.13709178  0.77215562  1  -0.030173  -0.000458  3.73268  0.0  -0.018424  0.000178  3.970644  0.0  -0.020556  -0.00014  3.992079  0.0  0.032887  0.001114  0.002371  -0.017167  0.000516  3.956304  0.0
C  C79  1  0.21144883  0.36290710  0.27215380  1  -0.0301  -0.000506  3.732687  0.0  -0.018426  0.000177  3.970637  0.0  -0.020561  -0.000143  3.992069  0.0  0.033093  0.001128  0.002359  -0.017177  0.000526  3.956309  0.0
C  C80  1  0.11297911  0.76135491  0.25130395  1  0.372861  0.005629  3.663859  0.006  0.334829  0.008645  3.934146  0.008  0.350217  0.007279  3.947891  0.007  1.012808  0.012765  0.242418  0.324582  0.010166  3.92446  0.01
C  C81  1  0.88702473  0.73864427  0.75130334  1  0.373087  0.005613  3.663631  0.006  0.334937  0.008644  3.934074  0.008  0.350299  0.007278  3.947859  0.007  1.018111  0.012754  0.242516  0.324687  0.010159  3.924389  0.01
C  C82  1  0.88702111  0.23864370  0.74869666  1  0.372965  0.005616  3.663738  0.006  0.334906  0.008654  3.934055  0.008  0.350266  0.007287  3.947846  0.007  1.01292  0.012767  0.242501  0.324658  0.010167  3.924356  0.01
C  C83  1  0.11298051  0.26135687  0.24869240  1  0.372657  0.005632  3.664114  0.006  0.334779  0.00865  3.934197  0.008  0.350153  0.007284  3.947966  0.007  1.013612  0.012771  0.242393  0.324535  0.010172  3.924505  0.01
C  C84  1  0.91138611  0.49728810  0.18575258  1  0.632805  0.006068  3.946635  0.006  0.576166  0.010534  4.256412  0.009  0.610685  0.008004  4.248528  0.007  1.620534  0.013296  0.219148  0.552322  0.013345  4.26087  0.011
C  C85  1  0.08860325  0.00270994  0.68575258  1  0.632678  0.006072  3.946791  0.006  0.576072  0.010542  4.256563  0.009  0.610593  0.008009  4.248686  0.007  1.620481  0.013303  0.219066  0.552229  0.013347  4.261021  0.011
C  C86  1  0.08860814  0.50271135  0.81424620  1  0.632724  0.006076  3.946793  0.006  0.576049  0.010533  4.256623  0.009  0.610567  0.008003  4.248742  0.007  1.620668  0.013289  0.219096  0.55222  0.013336  4.261064  0.011
C  C87  1  0.91139468  0.99729036  0.31424377  1  0.632583  0.00607  3.946926  0.006  0.576026  0.01053  4.256611  0.009  0.610544  0.008  4.248737  0.007  1.620488  0.013287  0.21913  0.552203  0.013335  4.261058  0.011
C  C88  1  0.97365508  0.59784781  0.23074650  1  0.042102  0.001105  3.709261  0.001  0.022009  0.001932  3.973157  0.001  0.022449  0.000764  3.991012  0.001  0.40252  0.004611  0.099421  0.021646  0.003161  3.961454  0.002
C  C89  1  0.02634500  0.90214968  0.73074711  1  0.042243  0.001107  3.709353  0.001  0.022085  0.001932  3.973314  0.001  0.022524  0.000763  3.991166  0.001  0.402491  0.004599  0.099513  0.021731  0.003151  3.961588  0.002
C  C90  1  0.02634044  0.40215249  0.76925471  1  0.042149  0.001107  3.709313  0.001  0.022111  0.001934  3.973152  0.001  0.02255  0.000767  3.991005  0.001  0.402722  0.004602  0.099432  0.02172  0.003154  3.961468  0.002
C  C91  1  0.97365782  0.09785147  0.26925046  1  0.042338  0.001107  3.70934  0.001  0.022159  0.001934  3.973301  0.001  0.022598  0.000767  3.991156  0.001  0.402569  0.004611  0.099471  0.021797  0.003161  3.961589  0.002
C  C92  1  0.94103302  0.63910470  0.30769666  1  -0.024141  0.003046  3.818527  0.003  -0.030165  0.006088  4.076697  0.005  -0.033986  0.004841  4.098374  0.005  0.499304  0.008978  0.081297  -0.027898  0.007516  4.062189  0.007
C  C93  1  0.05896974  0.86089617  0.80769422  1  -0.024141  0.003041  3.818652  0.003  -0.030123  0.006087  4.076803  0.005  -0.033939  0.004842  4.098476  0.005  0.499714  0.00897  0.081362  -0.02786  0.007509  4.062288  0.007
C  C94  1  0.05896866  0.36089729  0.69230517  1  -0.024117  0.003036  3.818585  0.003  -0.030161  0.006094  4.076771  0.005  -0.033979  0.004845  4.098441  0.005  0.499093  0.008975  0.081364  -0.027888  0.007513  4.062258  0.007
C  C95  1  0.94104166  0.13910667  0.19230213  1  -0.024159  0.003045  3.818748  0.003  -0.030179  0.006089  4.076937  0.005  -0.033999  0.004843  4.098616  0.005  0.499571  0.00898  0.081301  -0.027909  0.007518  4.062425  0.007
C  C96  1  0.84590705  0.59213501  0.37597568  1  0.636288  0.001321  3.864826  0.001  0.587708  0.004169  4.161413  0.004  0.622236  0.002922  4.152196  0.003  1.532223  0.005219  0.235807  0.564082  0.005474  4.166943  0.004
C  C97  1  0.15409571  0.90786585  0.87597629  1  0.636355  0.00132  3.864744  0.001  0.587761  0.00417  4.16134  0.004  0.622287  0.002922  4.152125  0.003  1.531978  0.005214  0.235858  0.564125  0.005468  4.166875  0.004
C  C98  1  0.15409509  0.40787290  0.62402796  1  0.636494  0.001318  3.864623  0.001  0.58788  0.004169  4.161264  0.004  0.622409  0.002922  4.152042  0.003  1.532295  0.005214  0.23586  0.564249  0.005468  4.166795  0.004
C  C99  1  0.84592267  0.09213360  0.12402006  1  0.636271  0.001317  3.865131  0.001  0.587684  0.00417  4.1617  0.004  0.622211  0.002923  4.152484  0.003  1.532256  0.00522  0.235778  0.56405  0.005475  4.167244  0.004
N  N100  1  0.52365776  0.88343071  0.39045593  1  -0.321869  0.000846  3.343281  0.001  -0.26402  0.002362  3.57733  0.002  -0.279935  0.001509  3.589387  0.002  -1.247688  0.005797  -0.349654  -0.25347  0.003573  3.569463  0.003
N  N101  1  0.47634379  0.61657015  0.89045593  1  -0.321934  0.000832  3.343295  0.001  -0.264054  0.002361  3.57731  0.002  -0.280017  0.001507  3.589398  0.002  -1.247686  0.005783  -0.349711  -0.253506  0.003565  3.569439  0.003
N  N102  1  0.47634829  0.11656535  0.60954407  1  -0.321837  0.000838  3.343259  0.001  -0.264007  0.002362  3.577334  0.002  -0.279914  0.001508  3.589382  0.002  -1.247568  0.005786  -0.349747  -0.253458  0.003567  3.569463  0.003
N  N103  1  0.52364818  0.38343099  0.10954286  1  -0.321899  0.00085  3.343278  0.001  -0.264059  0.00236  3.577373  0.002  -0.279964  0.001508  3.589413  0.002  -1.247875  0.005802  -0.349725  -0.25352  0.003575  3.569508  0.003
N  N104  1  0.26443406  0.84840557  0.41787112  1  -0.417342  0.029323  3.184423  0.018  -0.367938  0.033708  3.469562  0.018  -0.387501  0.02984  3.483198  0.015  -1.217486  0.05236  -0.324314  -0.353813  0.037552  3.460347  0.021
N  N105  1  0.73556609  0.65159276  0.91787173  1  -0.417431  0.02931  3.184447  0.018  -0.368064  0.033707  3.469577  0.018  -0.387626  0.029838  3.483207  0.015  -1.217568  0.052362  -0.324369  -0.353932  0.037549  3.46036  0.021
N  N106  1  0.73556723  0.15159134  0.58212644  1  -0.417356  0.029332  3.184548  0.018  -0.367882  0.033717  3.469697  0.018  -0.387451  0.029847  3.483337  0.015  -1.217433  0.052386  -0.324322  -0.353751  0.03756  3.460483  0.021
N  N107  1  0.26442634  0.34841431  0.08212644  1  -0.417417  0.029335  3.184364  0.018  -0.367969  0.033712  3.469507  0.018  -0.387532  0.029842  3.483149  0.015  -1.218171  0.052389  -0.324333  -0.353842  0.037557  3.460292  0.021
N  N108  1  0.02753410  0.73983373  0.31935866  1  -0.441258  0.031549  3.227966  0.016  -0.390669  0.034411  3.521464  0.014  -0.411947  0.030072  3.535632  0.01  -1.220017  0.055109  -0.336374  -0.375097  0.038701  3.511463  0.018
N  N109  1  0.97247349  0.76016714  0.81935745  1  -0.44144  0.031564  3.228063  0.016  -0.390845  0.034413  3.521639  0.014  -0.412117  0.030076  3.535812  0.01  -1.220089  0.055097  -0.336498  -0.375252  0.038695  3.511618  0.018
N  N110  1  0.97247476  0.26016741  0.68064438  1  -0.441395  0.031583  3.228186  0.016  -0.390839  0.03442  3.521792  0.014  -0.412111  0.030082  3.53596  0.01  -1.220202  0.05513  -0.336569  -0.375254  0.038703  3.511772  0.018
N  N111  1  0.02753905  0.23983485  0.18063708  1  -0.441138  0.031558  3.228053  0.016  -0.39058  0.034408  3.521483  0.014  -0.411855  0.030071  3.535656  0.01  -1.22036  0.055113  -0.336317  -0.374971  0.038691  3.511455  0.018
N  N112  1  0.08270053  0.67515845  0.19763891  1  -0.306372  0.000356  3.40056  0.001  -0.247418  0.001957  3.63459  0.002  -0.262735  0.001176  3.646963  0.002  -1.260733  0.005754  -0.350011  -0.23718  0.002806  3.626338  0.003
N  N113  1  0.91729975  0.82484157  0.69764073  1  -0.306382  0.000366  3.4004  0.001  -0.247365  0.001957  3.634449  0.002  -0.262677  0.001177  3.646835  0.002  -1.260176  0.005741  -0.350072  -0.237125  0.0028  3.626222  0.003
N  N114  1  0.91729372  0.32484100  0.80236049  1  -0.306329  0.000378  3.40066  0.001  -0.247378  0.001958  3.634684  0.002  -0.262686  0.001177  3.647062  0.002  -1.260621  0.005742  -0.349977  -0.237138  0.002799  3.626426  0.003
N  N115  1  0.08270193  0.17516042  0.30235745  1  -0.306264  0.000354  3.400425  0.001  -0.247371  0.001958  3.634471  0.002  -0.262683  0.001176  3.646846  0.002  -1.260674  0.005751  -0.350018  -0.237151  0.002805  3.626234  0.003
O  O116  1  0.79497825  0.87019004  0.49810091  1  -0.60973  0.026831  2.092763  0.013  -0.547827  0.033587  2.371797  0.016  -0.575427  0.029614  2.352679  0.013  -1.194626  0.057203  -0.306135  -0.527637  0.037573  2.384836  0.02
O  O117  1  0.20503048  0.62980998  0.99810456  1  -0.609671  0.026833  2.092825  0.013  -0.54778  0.033584  2.371895  0.016  -0.575374  0.02961  2.352785  0.013  -1.194614  0.057195  -0.306146  -0.527595  0.03757  2.384926  0.02
O  O118  1  0.20502956  0.12979756  0.50189483  1  -0.609706  0.026803  2.092366  0.013  -0.547834  0.033557  2.371403  0.016  -0.575417  0.029588  2.352277  0.013  -1.194471  0.057133  -0.306128  -0.527662  0.037537  2.384441  0.02
O  O119  1  0.79496296  0.37019455  0.00189605  1  -0.609656  0.026821  2.092737  0.013  -0.547824  0.033577  2.371848  0.016  -0.575413  0.029604  2.352737  0.013  -1.194729  0.057176  -0.306219  -0.527654  0.037558  2.38489  0.02
O  O120  1  0.62758934  0.81463762  0.59923404  1  -0.591994  0.005421  2.020489  0.006  -0.538936  0.009409  2.242426  0.011  -0.56477  0.006967  2.234194  0.008  -1.162619  0.017215  -0.301127  -0.52133  0.012522  2.247476  0.014
O  O121  1  0.37242053  0.68536156  0.09923465  1  -0.592065  0.005423  2.020418  0.006  -0.539015  0.009406  2.242333  0.011  -0.56485  0.006965  2.234089  0.008  -1.162639  0.017222  -0.301149  -0.521448  0.012526  2.247396  0.014
O  O122  1  0.37241798  0.18535929  0.40076717  1  -0.592013  0.005416  2.020546  0.006  -0.53893  0.009395  2.24241  0.011  -0.564779  0.006957  2.234203  0.008  -1.162609  0.017203  -0.30113  -0.521348  0.012512  2.247456  0.014
O  O123  1  0.62757747  0.31463959  0.90076717  1  -0.592095  0.005425  2.020506  0.006  -0.539005  0.009404  2.24237  0.011  -0.564844  0.006964  2.234128  0.008  -1.162562  0.017207  -0.30121  -0.52144  0.012516  2.247414  0.014
O  O124  1  0.33696081  0.77408509  0.62704438  1  -0.508689  0.002036  2.051016  0.003  -0.460339  0.004683  2.258454  0.005  -0.481718  0.003337  2.243114  0.004  -1.164538  0.009236  -0.31273  -0.445789  0.006271  2.267634  0.007
O  O125  1  0.66303928  0.72591239  0.12704742  1  -0.508589  0.002029  2.050994  0.003  -0.460311  0.004683  2.258368  0.005  -0.481696  0.003335  2.243014  0.004  -1.16453  0.009251  -0.312671  -0.445803  0.006281  2.267553  0.007
O  O126  1  0.66303881  0.22590590  0.37295441  1  -0.50846  0.002031  2.051168  0.003  -0.460211  0.004681  2.258532  0.005  -0.481592  0.003335  2.243206  0.004  -1.164798  0.00925  -0.312635  -0.445692  0.00628  2.267706  0.007
O  O127  1  0.33695765  0.27409044  0.87295441  1  -0.508714  0.002033  2.050859  0.003  -0.460437  0.004685  2.258246  0.005  -0.481823  0.003337  2.242886  0.004  -1.164499  0.009237  -0.312736  -0.445936  0.006273  2.267438  0.007
O  O128  1  0.11066465  0.77112625  0.55209666  1  -0.561118  0.025796  2.019248  0.015  -0.503  0.031541  2.273231  0.017  -0.529015  0.02825  2.258653  0.015  -1.139487  0.052178  -0.270257  -0.484138  0.034959  2.282881  0.02
O  O129  1  0.88932921  0.72886869  0.05209909  1  -0.560977  0.02579  2.019636  0.015  -0.502878  0.031539  2.273571  0.017  -0.528873  0.028244  2.258988  0.015  -1.13987  0.05218  -0.270241  -0.484032  0.034959  2.283215  0.02
O  O130  1  0.88933765  0.22886812  0.44790213  1  -0.561017  0.025784  2.019352  0.015  -0.50299  0.03154  2.273272  0.017  -0.528993  0.028245  2.258688  0.015  -1.139667  0.052181  -0.270261  -0.484158  0.034957  2.282921  0.02
O  O131  1  0.11066423  0.27113584  0.94790881  1  -0.561109  0.025789  2.01931  0.015  -0.503035  0.031542  2.273277  0.017  -0.529015  0.028246  2.258676  0.015  -1.140149  0.05219  -0.270317  -0.484189  0.034954  2.282937  0.02
O  O132  1  0.98170684  0.47850733  0.11942006  1  -0.594649  0.03294  2.076585  0.023  -0.537203  0.03919  2.351748  0.025  -0.566308  0.034307  2.338359  0.02  -1.176787  0.063883  -0.294037  -0.515386  0.044051  2.360088  0.029
O  O133  1  0.01827981  0.02150255  0.61942492  1  -0.594589  0.032946  2.076518  0.023  -0.537205  0.039199  2.351785  0.025  -0.566276  0.034314  2.338318  0.02  -1.176607  0.063885  -0.294112  -0.51543  0.044064  2.360146  0.029
O  O134  1  0.01828907  0.52149804  0.88057751  1  -0.5946  0.032938  2.076583  0.023  -0.537109  0.039189  2.351678  0.025  -0.566212  0.034308  2.338291  0.02  -1.176611  0.063869  -0.29402  -0.515303  0.044052  2.360003  0.029
O  O135  1  0.98172200  0.97850113  0.38057082  1  -0.594525  0.032933  2.076623  0.023  -0.537101  0.03919  2.351787  0.025  -0.56618  0.034305  2.338346  0.02  -1.176717  0.063871  -0.294038  -0.515313  0.044054  2.360133  0.029
O  O136  1  0.79139708  0.43838656  0.21618359  1  -0.619864  0.002866  1.981235  0.003  -0.567993  0.006069  2.205696  0.006  -0.59263  0.004527  2.195597  0.005  -1.180817  0.010999  -0.306327  -0.550641  0.007787  2.212138  0.008
O  O137  1  0.20860153  0.06160639  0.71618055  1  -0.619802  0.002871  1.981403  0.003  -0.567936  0.006072  2.2058  0.006  -0.592591  0.004531  2.195726  0.005  -1.180937  0.010984  -0.306243  -0.550582  0.007778  2.212237  0.008
O  O138  1  0.20860871  0.56160611  0.78381945  1  -0.61985  0.002861  1.981433  0.003  -0.567992  0.006067  2.205897  0.006  -0.592631  0.004525  2.195804  0.005  -1.181109  0.010976  -0.306306  -0.550648  0.007773  2.212334  0.008
O  O139  1  0.79139634  0.93839306  0.28381581  1  -0.619814  0.002865  1.981343  0.003  -0.567976  0.006066  2.205765  0.006  -0.592618  0.004525  2.195673  0.005  -1.180793  0.010991  -0.306278  -0.550619  0.007781  2.212208  0.008
O  O140  1  0.76230844  0.49513268  0.36645775  1  -0.515382  0.000782  2.091931  0.001  -0.46848  0.002382  2.303994  0.003  -0.490478  0.001586  2.290551  0.002  -1.152556  0.005231  -0.31558  -0.453116  0.003255  2.31268  0.004
O  O141  1  0.23769204  0.00486874  0.86645775  1  -0.515328  0.000787  2.091887  0.001  -0.468419  0.002381  2.303873  0.003  -0.490416  0.001587  2.290436  0.002  -1.152618  0.005213  -0.315569  -0.45306  0.003245  2.312554  0.004
O  O142  1  0.23768989  0.50487270  0.63354347  1  -0.515384  0.000786  2.091926  0.001  -0.468462  0.00238  2.30397  0.003  -0.490457  0.001587  2.290528  0.002  -1.152697  0.005216  -0.315585  -0.453118  0.003247  2.312662  0.004
O  O143  1  0.76231441  0.99513240  0.13354043  1  -0.515374  0.000788  2.092055  0.001  -0.468466  0.002381  2.30411  0.003  -0.490462  0.001586  2.290665  0.002  -1.15255  0.00523  -0.315558  -0.453106  0.003254  2.312809  0.004
O  O144  1  0.84836662  0.64449917  0.44189362  1  -0.552644  0.020633  1.955455  0.013  -0.502539  0.027989  2.192567  0.019  -0.527711  0.024856  2.180773  0.016  -1.153991  0.044892  -0.270095  -0.484104  0.031384  2.20002  0.022
O  O145  1  0.15164224  0.85550254  0.94189483  1  -0.55272  0.020628  1.955446  0.013  -0.502649  0.02799  2.192606  0.019  -0.52782  0.024854  2.180811  0.016  -1.154016  0.044887  -0.27018  -0.484212  0.031379  2.200062  0.022
O  O146  1  0.15162535  0.35550197  0.55810638  1  -0.552783  0.020628  1.955153  0.013  -0.502704  0.027987  2.192291  0.019  -0.527877  0.02485  2.180497  0.016  -1.153826  0.044878  -0.270161  -0.484271  0.031374  2.199742  0.022
O  O147  1  0.84837708  0.14449352  0.05810578  1  -0.55272  0.020633  1.955709  0.013  -0.502568  0.027989  2.192767  0.019  -0.527737  0.024854  2.180972  0.016  -1.154131  0.044895  -0.270102  -0.484097  0.031375  2.200216  0.022
