# generated using pymatgen
data_CuH16C18S2(NCl)2
_symmetry_space_group_name_H-M   'P 1'
_cell_length_a   8.72373398
_cell_length_b   11.01376052
_cell_length_c   12.08431592
_cell_angle_alpha   97.05715175
_cell_angle_beta   103.04105690
_cell_angle_gamma   111.97003380
_symmetry_Int_Tables_number   1
_chemical_formula_structural   CuH16C18S2(NCl)2
_chemical_formula_sum   'Cu2 H32 C36 S4 N4 Cl4'
_cell_volume   1021.00477495
_cell_formula_units_Z   2
loop_
 _symmetry_equiv_pos_site_id
 _symmetry_equiv_pos_as_xyz
  1  'x, y, z'
loop_
 _atom_site_type_symbol
 _atom_site_label
 _atom_site_symmetry_multiplicity
 _atom_site_fract_x
 _atom_site_fract_y
 _atom_site_fract_z
 _atom_site_occupancy
 _atom_site_hle17_ddec_charge
 _atom_site_hle17_ddec_spin_density
 _atom_site_hle17_ddec_sum_bond_order
 _atom_site_hle17_magmom
 _atom_site_hse06_10hf_ddec_charge
 _atom_site_hse06_10hf_ddec_spin_density
 _atom_site_hse06_10hf_ddec_sum_bond_order
 _atom_site_hse06_10hf_magmom
 _atom_site_hse06_ddec_charge
 _atom_site_hse06_ddec_spin_density
 _atom_site_hse06_ddec_sum_bond_order
 _atom_site_hse06_magmom
 _atom_site_pbe_cm5_charge
 _atom_site_pbe_ddec_charge
 _atom_site_pbe_ddec_spin_density
 _atom_site_pbe_ddec_sum_bond_order
 _atom_site_pbe_magmom
Cu  Cu0  1  0.50000033  0.99999963  0.50000278  1  0.701417  -0.634081  1.96872  -0.422  0.666751  -0.720797  2.394502  -0.527  0.751573  -0.80349  2.317419  -0.605  0.593961  0.620411  -0.66935  2.443214  -0.483
Cu  Cu1  1  0.50000005  0.50000052  0.00000059  1  0.686132  0.642418  2.029477  0.43  0.650231  0.728597  2.456485  0.536  0.736159  0.811691  2.379751  0.615  0.597074  0.603652  0.676684  2.503783  0.491
H  H2  1  0.72269822  0.32233874  0.48170870  1  0.074308  9.8e-05  0.993788  0.0  0.075664  0.000105  1.078257  0.0  0.077739  0.000113  1.077879  0.0  0.085795  0.073882  9e-05  1.079133  0.0
H  H3  1  0.27729688  0.67765891  0.51828373  1  0.074339  9.8e-05  0.993824  0.0  0.075691  0.000105  1.078287  0.0  0.077767  0.000113  1.077906  0.0  0.085795  0.073909  9e-05  1.079161  0.0
H  H4  1  0.63638355  0.39274538  0.64817318  1  0.084533  -5.8e-05  1.000121  0.0  0.095731  -0.000126  1.062739  0.0  0.098698  -9e-05  1.061013  0.0  0.085587  0.093736  -0.000152  1.063795  0.0
H  H5  1  0.36361915  0.60725325  0.35182639  1  0.084581  -5.8e-05  1.000088  0.0  0.095782  -0.000126  1.062704  0.0  0.09875  -9e-05  1.06098  0.0  0.085609  0.09379  -0.000152  1.063761  0.0
H  H6  1  0.67923076  0.63404025  0.70709676  1  0.082509  -4.4e-05  0.968866  0.0  0.090449  -9e-06  1.036599  0.0  0.092737  -1.3e-05  1.036453  0.0  0.091907  0.088609  -9e-06  1.03707  0.0
H  H7  1  0.32077546  0.36595838  0.29290338  1  0.082576  -4.3e-05  0.968813  0.0  0.090521  -9e-06  1.036536  0.0  0.092807  -1.3e-05  1.036397  0.0  0.091939  0.088682  -9e-06  1.037009  0.0
H  H8  1  0.78610776  0.79160603  0.58300106  1  0.091926  0.000111  0.985342  0.0  0.100327  7.3e-05  1.051366  0.0  0.101996  6.4e-05  1.052588  0.0  0.09306  0.099216  7.3e-05  1.050421  0.0
H  H9  1  0.21389068  0.20839563  0.41699816  1  0.091897  0.00012  0.985416  0.0  0.100294  7.3e-05  1.051437  0.0  0.101972  6.4e-05  1.05265  0.0  0.093058  0.099177  7.3e-05  1.050501  0.0
H  H10  1  0.80326349  0.81102225  0.38906544  1  0.114988  -0.000686  0.969272  0.0  0.129261  -0.000754  1.030776  0.0  0.132073  -0.000588  1.02853  0.0  0.088029  0.12744  -0.000885  1.032171  0.0
H  H11  1  0.19673676  0.18897841  0.61092982  1  0.114969  -0.000689  0.969254  0.0  0.129193  -0.000754  1.030809  0.0  0.131999  -0.000589  1.02857  0.0  0.088004  0.127375  -0.000885  1.032198  0.0
H  H12  1  0.84875242  0.69586016  0.29859499  1  0.098641  -0.000152  0.963003  0.0  0.108618  -0.000129  1.033012  0.0  0.10979  -0.000103  1.032932  0.0  0.093394  0.107759  -0.000165  1.033092  0.0
H  H13  1  0.15125018  0.30414049  0.70140313  1  0.09862  -0.000154  0.962991  0.0  0.108609  -0.000129  1.032974  0.0  0.109781  -0.000103  1.032893  0.0  0.093401  0.107749  -0.000165  1.033055  0.0
H  H14  1  0.89469911  0.89762710  0.24433579  1  0.123064  -0.000557  0.962492  -0.001  0.133031  -0.000585  1.020367  -0.001  0.136861  -0.000442  1.018321  -0.001  0.104574  0.130348  -0.0007  1.021857  -0.001
H  H15  1  0.10530123  0.10237154  0.75566340  1  0.123026  -0.000556  0.962512  -0.001  0.133  -0.000585  1.020374  -0.001  0.136836  -0.000442  1.01833  -0.001  0.104557  0.130314  -0.0007  1.021863  -0.001
H  H16  1  0.99545044  0.03534733  0.10685253  1  0.09561  6e-05  0.926858  -0.001  0.111049  0.000472  0.977867  0.0  0.113503  0.000407  0.976034  0.0  0.109818  0.109336  0.000523  0.979085  0.0
H  H17  1  0.00455966  0.96465633  0.89315046  1  0.095617  6e-05  0.926855  -0.001  0.111084  0.000472  0.977846  0.0  0.11354  0.000407  0.976007  0.0  0.109806  0.109369  0.000523  0.979061  0.0
H  H18  1  0.31607984  0.16064859  0.13772138  1  0.105705  -0.000284  1.001274  -0.001  0.108861  -0.000152  1.07345  -0.001  0.113164  -0.000116  1.07103  0.0  0.089862  0.105993  -0.000186  1.074984  -0.001
H  H19  1  0.68392864  0.83935205  0.86228349  1  0.105683  -0.000279  1.001284  0.0  0.108866  -0.000152  1.073443  -0.001  0.113169  -0.000116  1.071023  0.0  0.089849  0.105998  -0.000186  1.074977  -0.001
H  H20  1  0.52070584  0.13838142  0.30840749  1  0.075568  -0.00114  0.937214  -0.002  0.082378  -0.001025  1.004904  -0.001  0.084408  -0.000764  1.002311  -0.001  0.113286  0.080568  -0.001225  1.007218  -0.002
H  H21  1  0.47929985  0.86161620  0.69159824  1  0.07554  -0.00114  0.937257  -0.002  0.082352  -0.001025  1.004928  -0.001  0.084391  -0.000764  1.002334  -0.001  0.113271  0.080541  -0.001225  1.007243  -0.002
H  H22  1  0.87836946  0.37827798  0.34362633  1  0.100496  -1.8e-05  0.933951  0.0  0.116609  -5.9e-05  0.99263  0.0  0.118051  -5.7e-05  0.992205  0.0  0.10023  0.115613  -5.1e-05  0.99287  0.0
H  H23  1  0.12162040  0.62171866  0.65637176  1  0.100612  -1.4e-05  0.933948  0.0  0.116657  -5.9e-05  0.992687  0.0  0.118099  -5.7e-05  0.99226  0.0  0.100247  0.115658  -5.1e-05  0.992929  0.0
H  H24  1  0.95805400  0.54216540  0.31539113  1  0.101872  5.1e-05  0.945087  0.0  0.115471  6.2e-05  1.009352  0.0  0.116481  5e-05  1.009656  0.0  0.098705  0.114697  6.3e-05  1.009191  0.0
H  H25  1  0.04194066  0.45782923  0.68460503  1  0.101844  5e-05  0.945108  0.0  0.115462  6.2e-05  1.009359  0.0  0.116473  5e-05  1.009664  0.0  0.098698  0.114688  6.3e-05  1.009198  0.0
H  H26  1  0.91335518  0.30421796  0.16865717  1  0.111791  0.000602  0.945964  0.001  0.125219  0.000636  0.999575  0.001  0.127958  0.000477  0.99956  0.001  0.109176  0.12324  0.000769  0.999671  0.001
H  H27  1  0.08664316  0.69578572  0.83134392  1  0.111804  0.000602  0.945897  0.001  0.125218  0.000636  0.999528  0.001  0.127956  0.000478  0.999517  0.001  0.10918  0.123239  0.000769  0.999619  0.001
H  H28  1  0.99216997  0.25990057  0.98594302  1  0.097723  0.000802  0.979517  0.001  0.108117  0.000617  1.042388  0.0  0.111356  0.000441  1.039724  0.0  0.09238  0.105845  0.000772  1.044233  0.0
H  H29  1  0.00782738  0.74009908  0.01405745  1  0.097712  0.000799  0.979552  0.001  0.108104  0.000617  1.042432  0.0  0.111321  0.000441  1.039794  0.0  0.092394  0.105832  0.000772  1.044275  0.0
H  H30  1  0.83879087  0.30360380  0.80265462  1  0.108385  0.000647  0.942726  0.001  0.117795  0.000628  1.003069  0.001  0.120571  0.000475  1.002685  0.0  0.104908  0.115701  0.000749  1.003614  0.001
H  H31  1  0.16120359  0.69639485  0.19734444  1  0.108363  0.000645  0.942811  0.001  0.117818  0.000628  1.003094  0.001  0.120595  0.000475  1.00271  0.0  0.104908  0.115724  0.000748  1.00364  0.001
H  H32  1  0.63221074  0.40950170  0.81547139  1  0.080481  0.000805  0.942804  0.002  0.089358  0.000551  1.008193  0.001  0.091045  0.000376  1.005687  0.001  0.116783  0.087937  0.000688  1.010315  0.002
H  H33  1  0.36778824  0.59050097  0.18453051  1  0.080384  0.000808  0.942837  0.002  0.089264  0.00055  1.008227  0.001  0.090952  0.000377  1.005722  0.001  0.116743  0.087847  0.000688  1.010351  0.002
C  C34  1  0.81683312  0.64770851  0.46351042  1  0.0512  -0.000235  3.717521  0.0  0.071415  -0.000146  3.947079  0.0  0.070105  -0.00011  3.97113  0.0  -0.018775  0.072518  -0.000126  3.930637  0.0
C  C35  1  0.18316433  0.35228913  0.53648735  1  0.051173  -0.000236  3.717479  0.0  0.071331  -0.000144  3.947121  0.0  0.07002  -0.000113  3.971175  0.0  -0.018788  0.072435  -0.000126  3.930679  0.0
C  C36  1  0.80281410  0.51507104  0.43582474  1  0.045972  0.000259  3.736503  0.0  0.065448  0.000108  3.967239  0.0  0.063856  9.3e-05  3.992533  0.0  -0.019134  0.066367  0.000117  3.950381  0.0
C  C37  1  0.19718144  0.48492962  0.56417141  1  0.046031  0.000265  3.736335  0.0  0.065487  0.000109  3.967158  0.0  0.063893  9.4e-05  3.992453  0.0  -0.019142  0.066405  0.000117  3.950296  0.0
C  C38  1  0.73723756  0.42586867  0.50379977  1  -0.112562  -7e-06  3.753286  0.0  -0.132214  9.6e-05  4.005289  0.0  -0.135549  8.3e-05  4.028938  0.0  -0.097443  -0.130133  7.1e-05  3.989704  0.0
C  C39  1  0.26275916  0.57413200  0.49619658  1  -0.112653  -2.1e-05  3.753246  0.0  -0.132274  9.3e-05  4.005217  0.0  -0.135608  8.2e-05  4.028868  0.0  -0.097424  -0.130191  7e-05  3.989629  0.0
C  C40  1  0.69176365  0.46720266  0.60036474  1  -0.064694  5.2e-05  3.777606  0.0  -0.079644  -3.5e-05  4.02427  0.0  -0.081664  6e-06  4.046553  0.0  -0.09562  -0.078258  -7.3e-05  4.009161  0.0
C  C41  1  0.30823787  0.53279598  0.39963215  1  -0.064703  6.8e-05  3.777482  0.0  -0.079664  -3.4e-05  4.024145  0.0  -0.081683  8e-06  4.046419  0.0  -0.095661  -0.078281  -7.4e-05  4.009041  0.0
C  C42  1  0.71331718  0.60007139  0.63130738  1  -0.071699  -8.5e-05  3.783628  0.0  -0.085112  1.2e-05  4.035087  0.0  -0.087602  6e-06  4.057811  0.0  -0.096639  -0.082974  5.8e-05  4.019605  0.0
C  C43  1  0.28668434  0.39992725  0.36869117  1  -0.071752  -9.4e-05  3.783571  0.0  -0.085164  1.4e-05  4.035032  0.0  -0.087657  3e-06  4.057757  0.0  -0.09664  -0.083029  5.8e-05  4.019556  0.0
C  C44  1  0.77441245  0.68890929  0.56237834  1  -0.108099  0.00017  3.740059  0.0  -0.129064  4.6e-05  3.987324  0.0  -0.131221  5.3e-05  4.009924  0.0  -0.094801  -0.127496  3.7e-05  3.971475  0.0
C  C45  1  0.22558382  0.31108835  0.43762007  1  -0.108079  0.000152  3.740065  0.0  -0.129029  4.2e-05  3.98736  0.0  -0.131188  5.7e-05  4.009951  0.0  -0.094816  -0.127457  3.7e-05  3.971521  0.0
C  C46  1  0.87299907  0.74597310  0.38905484  1  -0.187442  -0.000836  3.65619  -0.001  -0.223072  -0.000749  3.896531  -0.001  -0.221567  -0.000432  3.905237  0.0  -0.14887  -0.223875  -0.000998  3.890186  -0.001
C  C47  1  0.12699892  0.25402555  0.61094396  1  -0.187481  -0.000827  3.656209  -0.001  -0.223023  -0.000749  3.896468  -0.001  -0.221516  -0.000432  3.905173  0.0  -0.148881  -0.223826  -0.000998  3.890123  -0.001
C  C48  1  0.15527898  0.94516928  0.35078174  1  0.194547  0.00615  3.769772  0.007  0.194967  0.000439  4.036418  0.002  0.20752  0.001678  4.055136  0.003  0.115071  0.186627  -0.000521  4.024178  0.001
C  C49  1  0.84472706  0.05483338  0.64922130  1  0.19449  0.006145  3.769859  0.007  0.194895  0.000439  4.036469  0.002  0.20745  0.001678  4.055189  0.003  0.115041  0.186559  -0.000521  4.024224  0.001
C  C50  1  0.03235428  0.95212814  0.25711735  1  -0.152812  -0.009316  3.701321  -0.01  -0.169341  -0.003376  3.944763  -0.004  -0.176583  -0.003416  3.96282  -0.004  -0.087438  -0.164742  -0.003285  3.932566  -0.004
C  C51  1  0.96765121  0.04787352  0.74288384  1  -0.152719  -0.009313  3.701446  -0.01  -0.169251  -0.003376  3.944862  -0.004  -0.176495  -0.003417  3.962909  -0.004  -0.087385  -0.164653  -0.003284  3.932653  -0.004
C  C52  1  0.08997530  0.02941626  0.17997611  1  0.01158  0.010327  3.715271  0.009  -0.004967  0.003728  3.959604  0.003  0.000647  0.004001  3.975163  0.003  -0.065361  -0.008549  0.003445  3.948975  0.003
C  C53  1  0.91003073  0.97058640  0.82002527  1  0.011668  0.010323  3.715138  0.009  -0.004903  0.003728  3.959479  0.003  0.000712  0.004002  3.975044  0.003  -0.065315  -0.008486  0.003446  3.948842  0.003
C  C54  1  0.26727345  0.09866622  0.19646907  1  -0.137838  -0.010385  3.741053  -0.01  -0.148947  -0.004004  3.988962  -0.005  -0.155826  -0.003906  4.007792  -0.004  -0.092316  -0.144421  -0.004004  3.976143  -0.005
C  C55  1  0.73273439  0.90133543  0.80353664  1  -0.137864  -0.010404  3.740828  -0.01  -0.149014  -0.004004  3.988777  -0.005  -0.155897  -0.003908  4.00761  -0.004  -0.092333  -0.144493  -0.004003  3.975962  -0.005
C  C56  1  0.38111368  0.08780118  0.29150302  1  0.143013  0.008317  3.697594  0.009  0.112817  0.001204  3.950489  0.002  0.122442  0.002374  3.968738  0.003  0.04802  0.106697  0.000289  3.938829  0.001
C  C57  1  0.61889191  0.91219845  0.70850374  1  0.143063  0.008327  3.69744  0.009  0.112853  0.001203  3.950318  0.002  0.122468  0.002375  3.968581  0.003  0.048032  0.106734  0.000289  3.93866  0.001
C  C58  1  0.84799289  0.46484938  0.33184081  1  -0.180315  -0.000721  3.683375  -0.001  -0.220966  -0.000443  3.936114  -0.001  -0.218996  -0.000445  3.945476  -0.001  -0.145334  -0.22212  -0.000428  3.929511  -0.001
C  C59  1  0.15199967  0.53515230  0.66815580  1  -0.180382  -0.000721  3.683283  -0.001  -0.221006  -0.000442  3.936063  -0.001  -0.219036  -0.000446  3.945422  -0.001  -0.145346  -0.222158  -0.000428  3.929462  -0.001
C  C60  1  0.73427723  0.38324267  0.08794144  1  0.195308  -0.006975  3.771512  -0.008  0.196711  -0.000768  4.031525  -0.002  0.208245  -0.001979  4.051524  -0.003  0.114392  0.189067  0.000277  4.018384  -0.001
C  C61  1  0.26572193  0.61675597  0.91205673  1  0.195258  -0.006971  3.771558  -0.008  0.196684  -0.000767  4.031541  -0.002  0.20822  -0.001981  4.051537  -0.003  0.114385  0.189046  0.000277  4.01839  -0.001
C  C62  1  0.85474010  0.32755668  0.08924099  1  -0.154115  0.01001  3.714125  0.01  -0.168024  0.003763  3.951898  0.004  -0.17612  0.003652  3.972266  0.004  -0.085388  -0.162363  0.003541  3.937696  0.004
C  C63  1  0.14525824  0.67244700  0.91076010  1  -0.154146  0.01002  3.714028  0.01  -0.168041  0.003763  3.951804  0.004  -0.176137  0.003654  3.972165  0.004  -0.085349  -0.162379  0.003542  3.937598  0.004
C  C64  1  0.89605101  0.30064509  0.98685322  1  0.011733  -0.009283  3.709304  -0.008  -0.00629  -0.002551  3.95261  -0.002  -0.001476  -0.003073  3.969424  -0.003  -0.066277  -0.009281  -0.002027  3.940618  -0.002
C  C65  1  0.10394517  0.69935457  0.01314457  1  0.011808  -0.009283  3.709287  -0.008  -0.006227  -0.002551  3.952637  -0.002  -0.001394  -0.003074  3.969455  -0.003  -0.066337  -0.009217  -0.002027  3.940644  -0.002
C  C66  1  0.81471906  0.32755262  0.88541210  1  -0.109243  0.010736  3.70978  0.011  -0.123311  0.004265  3.961832  0.005  -0.129543  0.004103  3.981284  0.005  -0.085338  -0.118982  0.004089  3.948562  0.005
C  C67  1  0.18527712  0.67244704  0.11458900  1  -0.109299  0.010744  3.709812  0.011  -0.123401  0.004264  3.961889  0.005  -0.129632  0.004104  3.981334  0.005  -0.085344  -0.119072  0.004088  3.948624  0.005
C  C68  1  0.69858215  0.38482068  0.89103646  1  0.14975  -0.008747  3.684732  -0.009  0.117365  -0.001637  3.939971  -0.002  0.127464  -0.002698  3.957321  -0.003  0.051892  0.110627  -0.000721  3.929131  -0.001
C  C69  1  0.30141448  0.61518200  0.10896505  1  0.1499  -0.008759  3.684611  -0.009  0.117524  -0.001636  3.939862  -0.002  0.127618  -0.002699  3.957216  -0.003  0.051964  0.110786  -0.000721  3.929029  -0.001
S  S70  1  0.10451240  0.85073431  0.45400315  1  -0.019942  -0.000167  2.422962  -0.002  -0.02559  -0.000495  2.772227  -0.002  -0.035083  0.000295  2.771445  -0.002  0.019441  -0.01945  -0.001175  2.772951  -0.003
S  S71  1  0.89548442  0.14926434  0.54599878  1  -0.019834  -0.000166  2.423076  -0.002  -0.025501  -0.000495  2.772305  -0.002  -0.034991  0.000297  2.771514  -0.002  0.019475  -0.019365  -0.001174  2.773031  -0.003
S  S72  1  0.65675738  0.41382818  0.20576018  1  -0.031076  0.000289  2.436232  0.003  -0.032538  0.000372  2.784608  0.002  -0.041265  -0.000279  2.783203  0.002  0.022026  -0.027121  0.000793  2.786308  0.003
S  S73  1  0.34324105  0.58617348  0.79423738  1  -0.030995  0.000284  2.436103  0.003  -0.03244  0.000372  2.784458  0.002  -0.041167  -0.000279  2.783054  0.002  0.022076  -0.027019  0.000793  2.78615  0.003
N  N74  1  0.32682003  0.01358778  0.36693186  1  -0.336428  -0.087828  3.379708  -0.105  -0.277507  -0.063405  3.656369  -0.081  -0.308607  -0.055832  3.678657  -0.074  -0.355766  -0.259273  -0.066796  3.643503  -0.082
N  N75  1  0.67318131  0.98641488  0.63307290  1  -0.3366  -0.087827  3.37963  -0.105  -0.277602  -0.063406  3.656224  -0.081  -0.308701  -0.055833  3.678506  -0.074  -0.355826  -0.259382  -0.066799  3.643374  -0.082
N  N76  1  0.66221128  0.41403488  0.99039424  1  -0.324107  0.08532  3.397752  0.102  -0.264374  0.060413  3.671777  0.077  -0.295763  0.053076  3.695018  0.071  -0.354913  -0.246353  0.063818  3.658399  0.079
N  N77  1  0.33778887  0.58596779  0.00960454  1  -0.324125  0.085321  3.397704  0.102  -0.264411  0.060415  3.671736  0.077  -0.295802  0.053079  3.694982  0.071  -0.354935  -0.246394  0.063818  3.658362  0.079
Cl  Cl78  1  0.45282351  0.13706080  0.63052116  1  -0.526027  -0.130333  0.945049  -0.142  -0.515405  -0.091022  1.217143  -0.105  -0.544814  -0.076037  1.195676  -0.091  -0.314899  -0.497707  -0.098866  1.232214  -0.111
Cl  Cl79  1  0.54717674  0.86293986  0.36948237  1  -0.526053  -0.130328  0.94501  -0.142  -0.515443  -0.091021  1.217108  -0.105  -0.544851  -0.076036  1.195637  -0.091  -0.314911  -0.497739  -0.098859  1.232181  -0.111
Cl  Cl80  1  0.71366881  0.70865054  0.02862997  1  -0.528059  0.128887  0.919153  0.141  -0.518781  0.089981  1.181743  0.104  -0.54889  0.074457  1.160041  0.089  -0.319529  -0.500747  0.098466  1.196533  0.111
Cl  Cl81  1  0.28632737  0.29134911  0.97137113  1  -0.528068  0.128884  0.919138  0.141  -0.518791  0.089978  1.181736  0.104  -0.548906  0.074454  1.160035  0.089  -0.319535  -0.500756  0.098464  1.196526  0.111
