# generated using pymatgen
data_NiP2H28C18S4(NO2)2
_symmetry_space_group_name_H-M   'P 1'
_cell_length_a   11.18934208
_cell_length_b   11.18933892
_cell_length_c   12.83022357
_cell_angle_alpha   70.53823526
_cell_angle_beta   70.53828160
_cell_angle_gamma   63.55505560
_symmetry_Int_Tables_number   1
_chemical_formula_structural   NiP2H28C18S4(NO2)2
_chemical_formula_sum   'Ni2 P4 H56 C36 S8 N4 O8'
_cell_volume   1323.20818457
_cell_formula_units_Z   2
loop_
 _symmetry_equiv_pos_site_id
 _symmetry_equiv_pos_as_xyz
  1  'x, y, z'
loop_
 _atom_site_type_symbol
 _atom_site_label
 _atom_site_symmetry_multiplicity
 _atom_site_fract_x
 _atom_site_fract_y
 _atom_site_fract_z
 _atom_site_occupancy
 _atom_site_pbe_cm5_charge
 _atom_site_pbe_ddec_charge
 _atom_site_pbe_ddec_spin_density
 _atom_site_pbe_ddec_sum_bond_order
 _atom_site_pbe_magmom
Ni  Ni0  1  0.00000236  0.49999721  0.99999917  1  0.474182  0.403761  1.612789  2.90257  1.311
Ni  Ni1  1  0.49999748  0.00000225  0.49999939  1  0.474176  0.403726  1.612792  2.902573  1.311
P  P2  1  0.78482176  0.68750833  0.88018941  1  0.245443  0.829267  0.001502  5.400066  0.0
P  P3  1  0.31249029  0.21518059  0.61981054  1  0.245413  0.829244  0.001502  5.400157  0.0
P  P4  1  0.21518069  0.31248970  0.11981000  1  0.245415  0.829274  0.001503  5.400007  0.0
P  P5  1  0.68750873  0.78482153  0.38018867  1  0.245423  0.829246  0.001503  5.400188  0.0
H  H6  1  0.13721391  0.30561374  0.84934051  1  0.106546  0.088709  0.00081  1.054676  0.001
H  H7  1  0.69437888  0.86279381  0.65065876  1  0.106557  0.088759  0.00081  1.054657  0.001
H  H8  1  0.86279369  0.69437815  0.15065840  1  0.106545  0.088741  0.00081  1.054671  0.001
H  H9  1  0.30561404  0.13721444  0.34934044  1  0.106554  0.088711  0.00081  1.054674  0.001
H  H10  1  0.15011915  0.08407502  0.84280621  1  0.098109  0.106721  0.001439  1.072717  0.001
H  H11  1  0.91591995  0.84988304  0.65719405  1  0.098077  0.106706  0.001439  1.072797  0.001
H  H12  1  0.84988333  0.91591789  0.15719466  1  0.098071  0.106691  0.001439  1.07282  0.001
H  H13  1  0.08407528  0.15011908  0.34280470  1  0.09811  0.106712  0.001439  1.072693  0.001
H  H14  1  0.84214237  0.09597083  0.15698293  1  0.105569  0.111715  0.000412  1.03296  0.0
H  H15  1  0.90402623  0.15786129  0.34301518  1  0.105566  0.111719  0.000412  1.033027  0.0
H  H16  1  0.15786047  0.90402617  0.84301588  1  0.105555  0.111699  0.000412  1.032987  0.0
H  H17  1  0.09597012  0.84214287  0.65698343  1  0.105569  0.111717  0.000412  1.032958  0.0
H  H18  1  0.84537492  0.31845337  0.14960589  1  0.105072  0.07613  0.000844  1.035317  0.001
H  H19  1  0.68154164  0.15463097  0.35039367  1  0.105087  0.076106  0.000844  1.035367  0.001
H  H20  1  0.15463020  0.68154261  0.85039333  1  0.105084  0.07609  0.000844  1.035344  0.001
H  H21  1  0.31845261  0.84537626  0.64960623  1  0.105068  0.076124  0.000844  1.035326  0.001
H  H22  1  0.67497376  0.56426649  0.75291839  1  0.092985  0.064092  0.000512  1.003974  0.0
H  H23  1  0.43573459  0.32502648  0.74708380  1  0.092974  0.064087  0.000512  1.00398  0.0
H  H24  1  0.32502602  0.43573358  0.24708276  1  0.092979  0.064089  0.000512  1.004  0.0
H  H25  1  0.56426481  0.67497461  0.25291716  1  0.092968  0.064072  0.000512  1.003994  0.0
H  H26  1  0.67513744  0.51060021  0.90104665  1  0.094717  0.052679  -0.00011  1.018078  0.0
H  H27  1  0.48940146  0.32486247  0.59895471  1  0.094728  0.052683  -0.00011  1.018097  0.0
H  H28  1  0.32486101  0.48940088  0.09895381  1  0.094714  0.052665  -0.00011  1.018099  0.0
H  H29  1  0.51059889  0.67513863  0.40104598  1  0.094708  0.052637  -0.00011  1.018115  0.0
H  H30  1  0.43209293  0.73137811  0.79778857  1  0.081107  0.124473  0.000181  1.026392  0.0
H  H31  1  0.26862221  0.56790688  0.70221306  1  0.081149  0.124509  0.000181  1.026297  0.0
H  H32  1  0.56790703  0.26862401  0.20221115  1  0.081116  0.124492  0.000181  1.026404  0.0
H  H33  1  0.73137757  0.43209319  0.29778886  1  0.081126  0.124505  0.000181  1.026401  0.0
H  H34  1  0.44452495  0.56045714  0.86901173  1  0.085341  0.123964  0.000301  1.024243  0.0
H  H35  1  0.43954268  0.55547648  0.63098963  1  0.085335  0.123957  0.000301  1.024233  0.0
H  H36  1  0.55547502  0.43954498  0.13098799  1  0.085331  0.123948  0.000301  1.024232  0.0
H  H37  1  0.56045577  0.44452461  0.36901082  1  0.08533  0.12395  0.000301  1.024249  0.0
H  H38  1  0.43257290  0.67438462  0.94480917  1  0.088533  0.125641  0.000276  0.99694  0.0
H  H39  1  0.32561632  0.56742649  0.55519320  1  0.088529  0.125647  0.000276  0.996943  0.0
H  H40  1  0.56742706  0.32561750  0.05519055  1  0.088534  0.125636  0.000276  0.996939  0.0
H  H41  1  0.67438213  0.43257461  0.44480881  1  0.088539  0.125648  0.000276  0.996946  0.0
H  H42  1  0.56097319  0.95270241  0.88184809  1  0.093703  0.061664  0.000548  1.01019  0.0
H  H43  1  0.04729627  0.43902749  0.61815297  1  0.093686  0.061641  0.000548  1.010192  0.0
H  H44  1  0.43902603  0.04729664  0.11815352  1  0.093688  0.061638  0.000548  1.010192  0.0
H  H45  1  0.95270313  0.56097360  0.38184800  1  0.093709  0.061665  0.000548  1.010193  0.0
H  H46  1  0.63719306  0.91013269  0.99906088  1  0.094335  0.054065  0.000638  1.00899  0.0
H  H47  1  0.08986731  0.36280640  0.50094174  1  0.094355  0.054099  0.000638  1.008943  0.0
H  H48  1  0.36280806  0.08986636  0.00094096  1  0.094343  0.054091  0.000638  1.008923  0.0
H  H49  1  0.91013209  0.63719470  0.49906000  1  0.094331  0.054073  0.000638  1.008945  0.0
H  H50  1  0.68405495  0.11146719  0.77127793  1  0.08928  0.126019  -8.1e-05  1.002955  0.0
H  H51  1  0.88853303  0.31594392  0.72872348  1  0.08927  0.126009  -8.1e-05  1.00293  0.0
H  H52  1  0.31594484  0.88853288  0.22872399  1  0.08928  0.126035  -8.1e-05  1.002929  0.0
H  H53  1  0.11146676  0.68405615  0.27127766  1  0.089279  0.126018  -8.1e-05  1.002944  0.0
H  H54  1  0.75997361  0.07097027  0.88729779  1  0.087914  0.125881  -5e-05  1.009363  0.0
H  H55  1  0.92902993  0.24002624  0.61270339  1  0.087927  0.125899  -5e-05  1.009335  0.0
H  H56  1  0.24002712  0.92902980  0.11270309  1  0.087917  0.125886  -5e-05  1.009331  0.0
H  H57  1  0.07097080  0.75997383  0.38729749  1  0.087914  0.125885  -5e-05  1.009351  0.0
H  H58  1  0.57946984  0.15890045  0.90148157  1  0.088288  0.120008  0.001032  1.025915  0.0
H  H59  1  0.84109942  0.42052947  0.59851977  1  0.088304  0.120017  0.001032  1.025911  0.0
H  H60  1  0.42053128  0.84109860  0.09851948  1  0.088296  0.120009  0.001032  1.025908  0.0
H  H61  1  0.15890074  0.57946958  0.40148156  1  0.088293  0.120011  0.001032  1.025901  0.0
C  C62  1  0.07366605  0.25570378  0.91617657  1  0.042315  0.100394  -0.003835  3.915738  -0.003
C  C63  1  0.74428931  0.92634010  0.58382224  1  0.042316  0.100439  -0.003836  3.915655  -0.003
C  C64  1  0.92634061  0.74428811  0.08382262  1  0.042328  0.100466  -0.003835  3.915663  -0.003
C  C65  1  0.25570438  0.07366611  0.41617577  1  0.042285  0.100376  -0.003835  3.915755  -0.003
C  C66  1  0.07986473  0.13018655  0.91353507  1  -0.083897  -0.16151  0.003455  3.918228  0.004
C  C67  1  0.86980893  0.92013600  0.58646309  1  -0.083857  -0.161556  0.003455  3.918256  0.004
C  C68  1  0.92013604  0.86980841  0.08646337  1  -0.083855  -0.161548  0.003455  3.918252  0.004
C  C69  1  0.13018668  0.07986510  0.41353428  1  -0.08389  -0.161489  0.003455  3.918157  0.004
C  C70  1  0.99744891  0.06690794  0.00022030  1  0.008382  0.096182  -0.004693  3.985971  -0.003
C  C71  1  0.93308592  0.00255605  0.49977998  1  0.008352  0.096194  -0.004693  3.986056  -0.003
C  C72  1  0.00255641  0.93308497  0.99978053  1  0.008362  0.096216  -0.004693  3.986064  -0.003
C  C73  1  0.06690854  0.99744812  0.50021919  1  0.00838  0.09618  -0.004693  3.985991  -0.003
C  C74  1  0.91030990  0.13730475  0.08666232  1  -0.08458  -0.1675  0.002572  3.920481  0.003
C  C75  1  0.86269172  0.08969355  0.41333603  1  -0.084587  -0.167539  0.002572  3.920617  0.003
C  C76  1  0.08969370  0.86269021  0.91333686  1  -0.084585  -0.167544  0.002572  3.920581  0.003
C  C77  1  0.13730501  0.91030960  0.58666199  1  -0.084586  -0.167527  0.002571  3.920525  0.003
C  C78  1  0.91096835  0.26221122  0.08341152  1  0.041755  0.090562  -0.00304  3.958991  -0.002
C  C79  1  0.73778411  0.08903712  0.41658733  1  0.041718  0.09064  -0.00304  3.958984  -0.002
C  C80  1  0.08903792  0.73778169  0.91658826  1  0.041745  0.09071  -0.003041  3.958975  -0.002
C  C81  1  0.26221148  0.91096909  0.58341092  1  0.041776  0.090607  -0.00304  3.959001  -0.002
C  C82  1  0.62974599  0.59568724  0.83441365  1  -0.066061  0.116613  0.000359  3.859398  0.0
C  C83  1  0.40431366  0.37025395  0.66558788  1  -0.066101  0.116529  0.000359  3.859455  0.0
C  C84  1  0.37025397  0.40431488  0.16558607  1  -0.066072  0.116592  0.000359  3.85941  0.0
C  C85  1  0.59568574  0.62974715  0.33441308  1  -0.066052  0.116663  0.000359  3.859419  0.0
C  C86  1  0.47560365  0.64324520  0.86320398  1  -0.249933  -0.390808  0.000638  3.94069  0.001
C  C87  1  0.35675467  0.52439722  0.63679752  1  -0.249952  -0.390783  0.000638  3.940561  0.001
C  C88  1  0.52439708  0.35675487  0.13679689  1  -0.249922  -0.39078  0.000638  3.940658  0.001
C  C89  1  0.64324473  0.47560387  0.36320344  1  -0.249952  -0.390837  0.000638  3.9407  0.001
C  C90  1  0.64969400  0.94516427  0.90648330  1  -0.06471  0.115455  0.000394  3.855349  0.0
C  C91  1  0.05483510  0.35030631  0.59351847  1  -0.064709  0.115463  0.000394  3.855256  0.0
C  C92  1  0.35030845  0.05483375  0.09351845  1  -0.064679  0.115533  0.000394  3.855115  0.0
C  C93  1  0.94516430  0.64969479  0.40648249  1  -0.064709  0.115458  0.000395  3.855274  0.0
C  C94  1  0.67019203  0.07947593  0.86387266  1  -0.246748  -0.389954  0.000525  3.94639  0.001
C  C95  1  0.92052347  0.32980831  0.63612935  1  -0.246759  -0.389966  0.000525  3.946311  0.001
C  C96  1  0.32980852  0.92052210  0.13612963  1  -0.246765  -0.38999  0.000525  3.946279  0.001
C  C97  1  0.07947632  0.67019176  0.36387179  1  -0.246749  -0.389968  0.000525  3.946366  0.001
S  S98  1  0.97215149  0.58681029  0.80021318  1  -0.166352  -0.451161  0.074462  2.3558  0.08
S  S99  1  0.41318825  0.02785047  0.69978699  1  -0.166366  -0.451169  0.074465  2.35576  0.081
S  S100  1  0.02785057  0.41318876  0.19978604  1  -0.166351  -0.451171  0.074463  2.355758  0.08
S  S101  1  0.58681210  0.97215062  0.30021214  1  -0.166338  -0.451144  0.074461  2.355807  0.08
S  S102  1  0.74621714  0.60274066  0.04481024  1  -0.169432  -0.479967  0.074638  2.408834  0.08
S  S103  1  0.39725558  0.25378725  0.45519084  1  -0.169425  -0.47997  0.074636  2.408862  0.08
S  S104  1  0.25378665  0.39725635  0.95518985  1  -0.169419  -0.479968  0.074637  2.408835  0.08
S  S105  1  0.60274172  0.74621691  0.54480828  1  -0.169423  -0.479954  0.074637  2.408894  0.08
N  N106  1  0.99146339  0.32129509  0.00004603  1  -0.332624  -0.195698  0.037448  3.650866  0.053
N  N107  1  0.67869759  0.00854183  0.49995288  1  -0.332617  -0.195791  0.037448  3.650893  0.053
N  N108  1  0.00854232  0.67869680  0.99995343  1  -0.332668  -0.195901  0.037449  3.651021  0.053
N  N109  1  0.32129515  0.99146438  0.50004541  1  -0.332621  -0.1957  0.037448  3.650874  0.053
O  O110  1  0.66596253  0.71024920  0.82284322  1  -0.211676  -0.336828  0.003001  2.528592  0.004
O  O111  1  0.28975227  0.33403719  0.67715819  1  -0.211653  -0.33679  0.003001  2.528596  0.004
O  O112  1  0.33403915  0.28975087  0.17715738  1  -0.211661  -0.336798  0.003001  2.528493  0.004
O  O113  1  0.71024808  0.66596391  0.32284172  1  -0.21169  -0.336865  0.003001  2.528632  0.004
O  O114  1  0.77166039  0.84281522  0.85479408  1  -0.210445  -0.338664  -0.000574  2.546419  0.0
O  O115  1  0.15718478  0.22834182  0.64520702  1  -0.210423  -0.338652  -0.000574  2.546422  0.0
O  O116  1  0.22834072  0.15718383  0.14520698  1  -0.210448  -0.33872  -0.000574  2.546376  0.0
O  O117  1  0.84281462  0.77165927  0.35479394  1  -0.210416  -0.338616  -0.000574  2.546396  0.0
