# generated using pymatgen
data_KH4C6S(NO)3
_symmetry_space_group_name_H-M   'P 1'
_cell_length_a   5.32891964
_cell_length_b   8.22749062
_cell_length_c   19.77550358
_cell_angle_alpha   89.99944850
_cell_angle_beta   90.00026518
_cell_angle_gamma   90.00450147
_symmetry_Int_Tables_number   1
_chemical_formula_structural   KH4C6S(NO)3
_chemical_formula_sum   'K4 H16 C24 S4 N12 O12'
_cell_volume   867.02998500
_cell_formula_units_Z   4
loop_
 _symmetry_equiv_pos_site_id
 _symmetry_equiv_pos_as_xyz
  1  'x, y, z'
loop_
 _atom_site_type_symbol
 _atom_site_label
 _atom_site_symmetry_multiplicity
 _atom_site_fract_x
 _atom_site_fract_y
 _atom_site_fract_z
 _atom_site_occupancy
 _atom_site_pbe_bader_spin_density
 _atom_site_pbe_cm5_charge
 _atom_site_pbe_ddec_charge
 _atom_site_pbe_ddec_spin_density
 _atom_site_pbe_ddec_sum_bond_order
 _atom_site_pbe_magmom
K  K0  1  0.99129126  0.65192189  0.26508163  1  0  0.808209  0.876858  0  0.68146  0
K  K1  1  0.50872311  0.34807675  0.76508369  1  0  0.80821  0.876848  0  0.681494  0
K  K2  1  0.49132731  0.84808615  0.73493159  1  0  0.808281  0.876845  0  0.681571  0
K  K3  1  0.00865731  0.15192029  0.23492559  1  0  0.808255  0.876831  0  0.681573  0
H  H4  1  0.04135445  0.06978063  0.39752871  1  0  0.11142  0.116167  0  1.029122  0
H  H5  1  0.45867103  0.93022358  0.89752525  1  0  0.111363  0.116079  0  1.029223  0
H  H6  1  0.54135253  0.43023364  0.60247128  1  0  0.111368  0.116138  0  1.029285  0
H  H7  1  0.95860785  0.56980125  0.10247501  1  0  0.111404  0.116176  0  1.029043  0
H  H8  1  0.94748712  0.15605544  0.51510233  1  0  0.101815  0.109381  0  1.037349  0
H  H9  1  0.55253096  0.84394289  0.01509645  1  0  0.101855  0.10947  0  1.037246  0
H  H10  1  0.44743890  0.34397265  0.48489838  1  0  0.101861  0.109403  0  1.037356  0
H  H11  1  0.05250823  0.65605475  0.98489753  1  0  0.101829  0.109406  0  1.037288  0
H  H12  1  0.62239876  0.91721931  0.58428893  1  0  0.109506  0.105452  0  1.025361  0
H  H13  1  0.87760836  0.08276274  0.08428560  1  0  0.109508  0.105458  0  1.025254  0
H  H14  1  0.12244175  0.58277117  0.41571173  1  0  0.10946  0.105379  0  1.025366  0
H  H15  1  0.37755199  0.41719959  0.91571349  1  0  0.109418  0.105302  0  1.025462  0
H  H16  1  0.71811723  0.83495433  0.46649344  1  0  0.106155  0.111711  0  1.02041  0
H  H17  1  0.78188419  0.16503375  0.96648740  1  0  0.106168  0.111706  0  1.02055  0
H  H18  1  0.21819173  0.66502359  0.53350717  1  0  0.106111  0.11162  0  1.020525  0
H  H19  1  0.28181147  0.33495086  0.03351172  1  0  0.106081  0.111601  0  1.020556  0
C  C20  1  0.39032915  0.95224822  0.42457387  1  0  -0.021786  -0.096385  0  3.949158  0
C  C21  1  0.10967498  0.04774893  0.92456872  1  0  -0.021832  -0.096481  0  3.949183  0
C  C22  1  0.89035918  0.54774964  0.57542677  1  0  -0.021649  -0.096171  0  3.948965  0
C  C23  1  0.60961316  0.45224855  0.07543341  1  0  -0.021529  -0.096229  0  3.949127  0
C  C24  1  0.17127948  0.03989914  0.43825840  1  0  -0.080691  -0.076424  0  3.98439  0
C  C25  1  0.32874120  0.96010544  0.93825341  1  0  -0.080685  -0.076312  0  3.9845  0
C  C26  1  0.67128505  0.46010390  0.56174288  1  0  -0.080737  -0.076465  0  3.984757  0
C  C27  1  0.82868576  0.53991483  0.06174405  1  0  -0.080807  -0.076557  0  3.984388  0
C  C28  1  0.11713907  0.08652355  0.50448030  1  0  -0.095409  -0.17453  0  3.959486  0
C  C29  1  0.38287775  0.91348451  0.00447585  1  0  -0.095465  -0.174744  0  3.959852  0
C  C30  1  0.61713334  0.41347951  0.49552027  1  0  -0.09544  -0.17467  0  3.959685  0
C  C31  1  0.88283007  0.58653331  0.99552080  1  0  -0.095444  -0.174523  0  3.959429  0
C  C32  1  0.28148201  0.04430964  0.55700039  1  0  0.103264  0.202666  0  4.068889  0
C  C33  1  0.21852759  0.95568778  0.05699531  1  0  0.103403  0.20301  0  4.068862  0
C  C34  1  0.78148179  0.45569201  0.44300076  1  0  0.103343  0.202813  0  4.069148  0
C  C35  1  0.71849071  0.54430227  0.94300025  1  0  0.103285  0.20248  0  4.069053  0
C  C36  1  0.49797889  0.95332608  0.54326838  1  0  -0.086857  -0.16536  0  3.972113  0
C  C37  1  0.00203291  0.04666149  0.04326304  1  0  -0.086883  -0.165559  0  3.972123  0
C  C38  1  0.99800261  0.54667421  0.45673266  1  0  -0.086899  -0.16542  0  3.972345  0
C  C39  1  0.50198644  0.45331047  0.95673364  1  0  -0.086809  -0.16518  0  3.972031  0
C  C40  1  0.55146636  0.90711494  0.47720576  1  0  -0.080857  -0.067857  0  3.974378  0
C  C41  1  0.94854377  0.09287783  0.97719957  1  0  -0.080857  -0.067798  0  3.974416  0
C  C42  1  0.05150299  0.59288399  0.52279378  1  0  -0.080849  -0.067727  0  3.974457  0
C  C43  1  0.44848962  0.40710278  0.02279861  1  0  -0.080854  -0.067736  0  3.974448  0
S  S44  1  0.47979268  0.90527287  0.33983351  1  0  0.487417  1.201298  0  6.264704  0
S  S45  1  0.02021878  0.09472323  0.83982870  1  0  0.487387  1.201263  0  6.264518  0
S  S46  1  0.97985125  0.59475053  0.66016461  1  0  0.487222  1.200756  0  6.264581  0
S  S47  1  0.52014753  0.40525722  0.16016888  1  0  0.487252  1.200953  0  6.26448  0
N  N48  1  0.24086961  0.09010598  0.62521362  1  0  -0.163098  -0.241474  0  3.28067  0
N  N49  1  0.25914017  0.90988479  0.12520946  1  0  -0.163003  -0.2414  0  3.280532  0
N  N50  1  0.74086572  0.40991422  0.37478372  1  0  -0.163236  -0.241553  0  3.280483  0
N  N51  1  0.75912348  0.59008184  0.87478840  1  0  -0.163241  -0.2415  0  3.280355  0
N  N52  1  0.02702707  0.12220170  0.64417769  1  0  0.15403  0.401714  0  4.273227  0
N  N53  1  0.47298486  0.87779944  0.14417564  1  0  0.153934  0.401555  0  4.273292  0
N  N54  1  0.52700056  0.37779895  0.35582036  1  0  0.154041  0.401626  0  4.27352  0
N  N55  1  0.97298463  0.62219647  0.85582201  1  0  0.153965  0.401614  0  4.273294  0
N  N56  1  0.83783299  0.15208860  0.66892836  1  0  -0.105358  -0.246744  0  2.645739  0
N  N57  1  0.66217804  0.84792123  0.16892984  1  0  -0.105375  -0.246709  0  2.645746  0
N  N58  1  0.33781782  0.34790559  0.33107702  1  0  -0.105268  -0.246552  0  2.646339  0
N  N59  1  0.16216451  0.65208722  0.83108121  1  0  -0.105187  -0.246521  0  2.646333  0
O  O60  1  0.57963306  0.73885309  0.34153489  1  0  -0.414414  -0.674739  0  2.234072  0
O  O61  1  0.92036928  0.26114213  0.84153071  1  0  -0.414421  -0.6747  0  2.233975  0
O  O62  1  0.07971170  0.76117431  0.65845792  1  0  -0.414476  -0.674558  0  2.233846  0
O  O63  1  0.42027932  0.23883796  0.15846712  1  0  -0.41449  -0.67457  0  2.233878  0
O  O64  1  0.24909329  0.91798607  0.29908410  1  0  -0.515536  -0.715763  0  2.299656  0
O  O65  1  0.25092484  0.08201331  0.79908233  1  0  -0.515521  -0.715743  0  2.29972  0
O  O66  1  0.74914944  0.58203594  0.70091483  1  0  -0.515249  -0.715493  0  2.299621  0
O  O67  1  0.75086333  0.41796975  0.20091090  1  0  -0.515317  -0.715562  0  2.299604  0
O  O68  1  0.66862456  0.02777931  0.32176452  1  0  -0.417836  -0.665974  0  2.235995  0
O  O69  1  0.83139619  0.97221639  0.82175518  1  0  -0.417881  -0.665974  0  2.235969  0
O  O70  1  0.16868563  0.47226644  0.67823828  1  0  -0.417771  -0.665937  0  2.235943  0
O  O71  1  0.33132826  0.52774535  0.17824429  1  0  -0.417803  -0.66598  0  2.235808  0
