# generated using pymatgen
data_CdP2H32C31(ClO)2
_symmetry_space_group_name_H-M   'P 1'
_cell_length_a   10.11365918
_cell_length_b   11.17084144
_cell_length_c   13.73335193
_cell_angle_alpha   89.99999506
_cell_angle_beta   90.00035252
_cell_angle_gamma   108.36553280
_symmetry_Int_Tables_number   1
_chemical_formula_structural   CdP2H32C31(ClO)2
_chemical_formula_sum   'Cd2 P4 H64 C62 Cl4 O4'
_cell_volume   1472.53979320
_cell_formula_units_Z   2
loop_
 _symmetry_equiv_pos_site_id
 _symmetry_equiv_pos_as_xyz
  1  'x, y, z'
loop_
 _atom_site_type_symbol
 _atom_site_label
 _atom_site_symmetry_multiplicity
 _atom_site_fract_x
 _atom_site_fract_y
 _atom_site_fract_z
 _atom_site_occupancy
 _atom_site_hle17_bader_spin_density
 _atom_site_hle17_ddec_charge
 _atom_site_hle17_ddec_spin_density
 _atom_site_hle17_ddec_sum_bond_order
 _atom_site_hle17_magmom
 _atom_site_hse06_10hf_bader_spin_density
 _atom_site_hse06_10hf_ddec_charge
 _atom_site_hse06_10hf_ddec_spin_density
 _atom_site_hse06_10hf_ddec_sum_bond_order
 _atom_site_hse06_10hf_magmom
 _atom_site_hse06_bader_spin_density
 _atom_site_hse06_ddec_charge
 _atom_site_hse06_ddec_spin_density
 _atom_site_hse06_ddec_sum_bond_order
 _atom_site_hse06_magmom
 _atom_site_pbe_bader_spin_density
 _atom_site_pbe_cm5_charge
 _atom_site_pbe_ddec_charge
 _atom_site_pbe_ddec_spin_density
 _atom_site_pbe_ddec_sum_bond_order
 _atom_site_pbe_magmom
Cd  Cd0  1  0.88388176  0.79221796  0.74885994  1  0  0.591882  0  2.190752  0  0  0.425587  0  2.669372  0  0  0.456539  0  2.639335  0  0  0.515155  0.404392  0  2.690092  0
Cd  Cd1  1  0.11611878  0.20778083  0.24886011  1  0  0.591891  0  2.190763  0  0  0.425603  0  2.66939  0  0  0.456557  0  2.63935  0  0  0.515149  0.404408  0  2.690115  0
P  P2  1  0.26220755  0.16969628  0.10081283  1  0  0.316722  0  3.525113  0  0  0.291637  0  3.938257  0  0  0.297128  0  3.943708  0  0  0.030384  0.287878  0  3.934528  0
P  P3  1  0.73779359  0.83030496  0.60080908  1  0  0.316695  0  3.525013  0  0  0.291609  0  3.938157  0  0  0.29709  0  3.943623  0  0  0.030357  0.287853  0  3.93443  0
P  P4  1  0.77815528  0.87866887  0.89349663  1  0  0.349623  0  3.579468  0  0  0.323054  0  3.998867  0  0  0.329588  0  4.001744  0  0  0.034491  0.318141  0  3.996683  0
P  P5  1  0.22184430  0.12132935  0.39350021  1  0  0.349634  0  3.579489  0  0  0.323032  0  3.998959  0  0  0.329558  0  4.001829  0  0  0.034491  0.318118  0  3.996773  0
H  H6  1  0.09509126  0.33189381  0.06027245  1  0  0.082015  0  0.992671  0  0  0.089315  0  1.064791  0  0  0.092123  0  1.063084  0  0  0.089884  0.087044  0  1.066585  0
H  H7  1  0.90490622  0.66810639  0.56027456  1  0  0.082052  0  0.992731  0  0  0.089357  0  1.064837  0  0  0.092163  0  1.063133  0  0  0.089904  0.087081  0  1.066627  0
H  H8  1  0.02552474  0.41404022  0.90695561  1  0  0.09004  0  0.967198  0  0  0.102475  0  1.026128  0  0  0.104698  0  1.026068  0  0  0.10304  0.10078  0  1.02646  0
H  H9  1  0.97447958  0.58596273  0.40695964  1  0  0.090075  0  0.96713  0  0  0.102478  0  1.026095  0  0  0.104699  0  1.026036  0  0  0.103054  0.100783  0  1.026423  0
H  H10  1  0.10518265  0.35917444  0.74753295  1  0  0.095423  0  0.95549  0  0  0.10818  0  1.012037  0  0  0.110908  0  1.010619  0  0  0.106331  0.10611  0  1.013254  0
H  H11  1  0.89482776  0.64082716  0.24753661  1  0  0.095483  0  0.955442  0  0  0.108218  0  1.011997  0  0  0.110957  0  1.010564  0  0  0.106343  0.10614  0  1.013227  0
H  H12  1  0.25862479  0.22267387  0.74022846  1  0  0.096573  0  0.9429  0  0  0.108922  0  0.998196  0  0  0.111638  0  0.99768  0  0  0.102485  0.106892  0  0.998769  0
H  H13  1  0.74138357  0.77732487  0.24022487  1  0  0.096556  0  0.94284  0  0  0.1089  0  0.998146  0  0  0.111617  0  0.997629  0  0  0.102458  0.106866  0  0.998718  0
H  H14  1  0.32782963  0.13976021  0.89197962  1  0  0.079441  0  0.995429  0  0  0.088498  0  1.066203  0  0  0.09064  0  1.065639  0  0  0.096383  0.08694  0  1.066796  0
H  H15  1  0.67217059  0.86023988  0.39197353  1  0  0.079539  0  0.995321  0  0  0.088577  0  1.066113  0  0  0.090719  0  1.06555  0  0  0.096419  0.087017  0  1.066704  0
H  H16  1  0.41176931  0.36252395  0.23631176  1  0  0.074345  0  0.994382  0  0  0.08215  0  1.067825  0  0  0.084394  0  1.066736  0  0  0.089415  0.079935  0  1.069677  0
H  H17  1  0.58823804  0.63747762  0.73630589  1  0  0.074348  0  0.994407  0  0  0.082169  0  1.067821  0  0  0.084415  0  1.066729  0  0  0.089409  0.079946  0  1.069683  0
H  H18  1  0.65979559  0.44865572  0.28272051  1  0  0.087366  0  0.963611  0  0  0.098672  0  1.02216  0  0  0.100593  0  1.023203  0  0  0.098827  0.097175  0  1.02165  0
H  H19  1  0.34021449  0.55134690  0.78271789  1  0  0.087367  0  0.963646  0  0  0.098714  0  1.022155  0  0  0.100633  0  1.023204  0  0  0.098865  0.097211  0  1.021649  0
H  H20  1  0.83897092  0.37730369  0.19542103  1  0  0.088075  0  0.965141  0  0  0.096707  0  1.030512  0  0  0.09918  0  1.029564  0  0  0.097547  0.094202  0  1.032449  0
H  H21  1  0.16103539  0.62269872  0.69542343  1  0  0.088054  0  0.965198  0  0  0.09668  0  1.030583  0  0  0.099151  0  1.029634  0  0  0.09753  0.094175  0  1.032518  0
H  H22  1  0.76739191  0.22520980  0.05858320  1  0  0.089153  0  0.951388  0  0  0.100397  0  1.01018  0  0  0.102744  0  1.01014  0  0  0.09725  0.098226  0  1.011031  0
H  H23  1  0.23260984  0.77479416  0.55858664  1  0  0.08914  0  0.951398  0  0  0.100376  0  1.01019  0  0  0.102723  0  1.010154  0  0  0.097228  0.098203  0  1.011044  0
H  H24  1  0.52075649  0.13894169  0.01123150  1  0  0.083314  0  0.971485  0  0  0.093985  0  1.036602  0  0  0.09585  0  1.036925  0  0  0.097011  0.092527  0  1.036409  0
H  H25  1  0.47924318  0.86106310  0.51123094  1  0  0.083469  0  0.971363  0  0  0.094118  0  1.03649  0  0  0.095982  0  1.036811  0  0  0.097085  0.09265  0  1.036307  0
H  H26  1  0.31044479  0.99620812  0.01327929  1  0  0.112972  0  0.939635  0  0  0.129502  0  1.001269  0  0  0.131281  0  1.000493  0  0  0.103575  0.128165  0  1.002031  0
H  H27  1  0.68955291  0.00379101  0.51327829  1  0  0.112977  0  0.939718  0  0  0.129496  0  1.001353  0  0  0.131275  0  1.000575  0  0  0.103584  0.128162  0  1.002113  0
H  H28  1  0.31216284  0.98321399  0.14189101  1  0  0.13014  0  0.939152  0  0  0.146079  0  0.998009  0  0  0.146906  0  1.000347  0  0  0.109278  0.14549  0  0.996445  0
H  H29  1  0.68783769  0.01678452  0.64188928  1  0  0.13007  0  0.939192  0  0  0.146048  0  0.998003  0  0  0.146875  0  1.000339  0  0  0.109235  0.145459  0  0.996439  0
H  H30  1  0.04738953  0.92132324  0.14188241  1  0  0.038424  0  0.925847  0  0  0.045419  0  0.994172  0  0  0.046512  0  0.992975  0  0  0.094058  0.044538  0  0.995162  0
H  H31  1  0.95261068  0.07867716  0.64188186  1  0  0.038403  0  0.925846  0  0  0.045439  0  0.994128  0  0  0.046532  0  0.992931  0  0  0.094066  0.044556  0  0.99512  0
H  H32  1  0.09863698  0.93602517  0.92223535  1  0  0.029271  0  0.958077  0  0  0.035676  0  1.032539  0  0  0.03653  0  1.032011  0  0  0.088198  0.034902  0  1.033103  0
H  H33  1  0.90135957  0.06397218  0.42223398  1  0  0.029293  0  0.958132  0  0  0.035683  0  1.032576  0  0  0.036536  0  1.032049  0  0  0.088208  0.034909  0  1.03314  0
H  H34  1  0.21693944  0.79137349  0.90256162  1  0  0.119788  0  0.953178  0  0  0.138696  0  1.017946  0  0  0.140318  0  1.017524  0  0  0.086556  0.137359  0  1.018536  0
H  H35  1  0.78305561  0.20862570  0.40256117  1  0  0.119753  0  0.953217  0  0  0.138685  0  1.017956  0  0  0.140308  0  1.017535  0  0  0.086555  0.137348  0  1.018545  0
H  H36  1  0.10091404  0.64185795  0.86809490  1  0  0.117508  0  0.97704  0  0  0.133025  0  1.048554  0  0  0.134438  0  1.048564  0  0  0.082017  0.131866  0  1.048918  0
H  H37  1  0.89908069  0.35814115  0.36809278  1  0  0.117512  0  0.977086  0  0  0.133026  0  1.048583  0  0  0.134437  0  1.048596  0  0  0.082004  0.131866  0  1.048947  0
H  H38  1  0.23177857  0.65227179  0.95841401  1  0  0.121516  0  0.969097  0  0  0.141566  0  1.030071  0  0  0.142531  0  1.031712  0  0  0.087835  0.141143  0  1.028594  0
H  H39  1  0.76821832  0.34772848  0.45841348  1  0  0.121542  0  0.96904  0  0  0.141585  0  1.030028  0  0  0.142551  0  1.031668  0  0  0.087824  0.14116  0  1.028553  0
H  H40  1  0.03431399  0.53230696  0.08622009  1  0  0.126694  0  0.959532  0  0  0.145342  0  1.023308  0  0  0.146496  0  1.023802  0  0  0.087258  0.144497  0  1.022971  0
H  H41  1  0.96568636  0.46769519  0.58621739  1  0  0.12667  0  0.959515  0  0  0.145316  0  1.023291  0  0  0.146473  0  1.023785  0  0  0.087253  0.14447  0  1.022954  0
H  H42  1  0.91332533  0.51740514  0.98765823  1  0  0.12059  0  0.946698  0  0  0.141818  0  1.006198  0  0  0.142998  0  1.006442  0  0  0.092226  0.140941  0  1.005945  0
H  H43  1  0.08667478  0.48259237  0.48765607  1  0  0.120597  0  0.946729  0  0  0.141802  0  1.006246  0  0  0.142981  0  1.006495  0  0  0.092232  0.140926  0  1.005993  0
H  H44  1  0.88974701  0.59086462  0.09769118  1  0  0.118265  0  0.956735  0  0  0.136219  0  1.021775  0  0  0.138059  0  1.021054  0  0  0.091834  0.13496  0  1.022167  0
H  H45  1  0.11025411  0.40913377  0.59769045  1  0  0.11822  0  0.956718  0  0  0.136191  0  1.021741  0  0  0.138032  0  1.021019  0  0  0.091809  0.134927  0  1.022137  0
H  H46  1  0.95465601  0.06035556  0.96261857  1  0  0.116376  0  0.965634  0  0  0.1338  0  1.024149  0  0  0.134251  0  1.026432  0  0  0.10178  0.133622  0  1.022477  0
H  H47  1  0.04534124  0.93964283  0.46261765  1  0  0.116404  0  0.965633  0  0  0.133799  0  1.024159  0  0  0.134249  0  1.026442  0  0  0.101793  0.133625  0  1.022477  0
H  H48  1  0.86245791  0.95647646  0.05481665  1  0  0.128064  0  0.957777  0  0  0.141333  0  1.021964  0  0  0.143479  0  1.021244  0  0  0.095587  0.139666  0  1.022641  0
H  H49  1  0.13753918  0.04351995  0.55481898  1  0  0.12809  0  0.957782  0  0  0.141339  0  1.021977  0  0  0.143483  0  1.021253  0  0  0.095589  0.139668  0  1.022657  0
H  H50  1  0.56743998  0.89018506  0.03928299  1  0  0.091107  0  0.944682  0  0  0.104291  0  1.001672  0  0  0.106726  0  1.001263  0  0  0.100831  0.102575  0  1.001911  0
H  H51  1  0.43256290  0.10981696  0.53928374  1  0  0.091089  0  0.944698  0  0  0.104286  0  1.001677  0  0  0.106724  0  1.001268  0  0  0.10082  0.102569  0  1.001915  0
H  H52  1  0.37774121  0.72226835  0.11942906  1  0  0.095568  0  0.966942  0  0  0.104655  0  1.029312  0  0  0.107397  0  1.028359  0  0  0.101705  0.102715  0  1.029961  0
H  H53  1  0.62226538  0.27773387  0.61942774  1  0  0.095536  0  0.966905  0  0  0.104646  0  1.02926  0  0  0.107387  0  1.02831  0  0  0.101721  0.102733  0  1.029876  0
H  H54  1  0.35271766  0.49765567  0.09185964  1  0  0.082847  0  0.981059  0  0  0.088952  0  1.052846  0  0  0.091119  0  1.052407  0  0  0.089807  0.087477  0  1.052888  0
H  H55  1  0.64728275  0.50234650  0.59185914  1  0  0.082855  0  0.981072  0  0  0.088951  0  1.052866  0  0  0.09112  0  1.052426  0  0  0.089793  0.087476  0  1.052907  0
H  H56  1  0.51518535  0.43812561  0.97790589  1  0  0.088397  0  0.960171  0  0  0.09946  0  1.01816  0  0  0.101333  0  1.019427  0  0  0.096747  0.09798  0  1.017529  0
H  H57  1  0.48480809  0.56187567  0.47791135  1  0  0.088425  0  0.960122  0  0  0.099478  0  1.018132  0  0  0.101352  0  1.019397  0  0  0.096725  0.097997  0  1.017503  0
H  H58  1  0.70021641  0.60496283  0.89273190  1  0  0.08263  0  0.997259  0  0  0.090787  0  1.066881  0  0  0.093665  0  1.064837  0  0  0.087097  0.088522  0  1.068567  0
H  H59  1  0.29977657  0.39503634  0.39273654  1  0  0.08264  0  0.997196  0  0  0.090794  0  1.066831  0  0  0.093671  0  1.064789  0  0  0.087101  0.088529  0  1.068515  0
H  H60  1  0.88214741  0.15403376  0.86082970  1  0  0.079713  0  0.996368  0  0  0.090958  0  1.05928  0  0  0.092695  0  1.060212  0  0  0.095199  0.089658  0  1.058922  0
H  H61  1  0.11784890  0.84596721  0.36083349  1  0  0.079698  0  0.996326  0  0  0.090934  0  1.059235  0  0  0.092671  0  1.060167  0  0  0.095179  0.089636  0  1.058874  0
H  H62  1  0.76756197  0.30635328  0.80434651  1  0  0.096157  0  0.960577  0  0  0.104448  0  1.024836  0  0  0.107415  0  1.023381  0  0  0.09564  0.102173  0  1.026059  0
H  H63  1  0.23242954  0.69364661  0.30434572  1  0  0.096195  0  0.960538  0  0  0.104476  0  1.024795  0  0  0.107453  0  1.023331  0  0  0.095645  0.102199  0  1.026023  0
H  H64  1  0.51451098  0.23374645  0.76626128  1  0  0.085437  0  0.963517  0  0  0.098247  0  1.020886  0  0  0.100434  0  1.020633  0  0  0.101538  0.096584  0  1.021302  0
H  H65  1  0.48547884  0.76624957  0.26626018  1  0  0.08548  0  0.963525  0  0  0.098279  0  1.020909  0  0  0.100467  0  1.020653  0  0  0.101549  0.096616  0  1.021323  0
H  H66  1  0.37809859  0.00430303  0.77728742  1  0  0.09781  0  0.988967  0  0  0.1067  0  1.053674  0  0  0.109697  0  1.052339  0  0  0.088217  0.104747  0  1.054273  0
H  H67  1  0.62189430  0.99569018  0.27728983  1  0  0.0978  0  0.988999  0  0  0.106726  0  1.053647  0  0  0.109727  0  1.052308  0  0  0.088222  0.104772  0  1.054247  0
H  H68  1  0.49073674  0.85248805  0.83740189  1  0  0.092246  0  0.969425  0  0  0.104192  0  1.029167  0  0  0.106038  0  1.030385  0  0  0.099672  0.102721  0  1.028671  0
H  H69  1  0.50926330  0.14750719  0.33740676  1  0  0.092249  0  0.969408  0  0  0.104166  0  1.029181  0  0  0.106015  0  1.030397  0  0  0.099673  0.102694  0  1.028685  0
C  C70  1  0.21651323  0.23008590  0.98658774  1  0  -0.10299  0  3.761658  0  0  -0.065048  0  3.996394  0  0  -0.070336  0  4.023082  0  0  -0.029126  -0.06159  0  3.978245  0
C  C71  1  0.78348853  0.76991349  0.48658579  1  0  -0.102957  0  3.761544  0  0  -0.065061  0  3.996331  0  0  -0.07035  0  4.023016  0  0  -0.029127  -0.061604  0  3.978171  0
C  C72  1  0.13113348  0.30788211  0.99019118  1  0  -0.086  0  3.760962  0  0  -0.103904  0  4.002387  0  0  -0.105265  0  4.024318  0  0  -0.087178  -0.102446  0  3.987069  0
C  C73  1  0.86886929  0.69211729  0.49019254  1  0  -0.086034  0  3.760803  0  0  -0.103925  0  4.002233  0  0  -0.105286  0  4.024162  0  0  -0.087158  -0.102462  0  3.98691  0
C  C74  1  0.09265920  0.35469988  0.90420990  1  0  -0.066019  0  3.752728  0  0  -0.076309  0  3.994807  0  0  -0.079212  0  4.016755  0  0  -0.086676  -0.074462  0  3.9797  0
C  C75  1  0.90734212  0.64529741  0.40421070  1  0  -0.066035  0  3.752683  0  0  -0.076309  0  3.994766  0  0  -0.079212  0  4.016717  0  0  -0.086683  -0.074463  0  3.979657  0
C  C76  1  0.13836651  0.32436519  0.81431934  1  0  -0.057533  0  3.741393  0  0  -0.070898  0  3.985915  0  0  -0.070908  0  4.004971  0  0  -0.080389  -0.070589  0  3.972812  0
C  C77  1  0.86164156  0.67563658  0.31432140  1  0  -0.057589  0  3.741466  0  0  -0.070908  0  3.985942  0  0  -0.070925  0  4.005007  0  0  -0.080408  -0.070602  0  3.97284  0
C  C78  1  0.22392406  0.24771647  0.81028047  1  0  -0.064404  0  3.751632  0  0  -0.076902  0  3.999036  0  0  -0.079489  0  4.01971  0  0  -0.085823  -0.075075  0  3.985149  0
C  C79  1  0.77608265  0.75228152  0.31027995  1  0  -0.064377  0  3.751736  0  0  -0.076877  0  3.999101  0  0  -0.079465  0  4.019778  0  0  -0.085817  -0.075052  0  3.985211  0
C  C80  1  0.26261408  0.20068769  0.89608408  1  0  -0.070036  0  3.7508  0  0  -0.091768  0  3.996873  0  0  -0.092392  0  4.018502  0  0  -0.085047  -0.091465  0  3.982525  0
C  C81  1  0.73738914  0.79930958  0.39608047  1  0  -0.070175  0  3.750944  0  0  -0.091879  0  3.997025  0  0  -0.092498  0  4.018648  0  0  -0.085107  -0.091583  0  3.982698  0
C  C82  1  0.48947701  0.33217176  0.19704986  1  0  -0.085022  0  3.779132  0  0  -0.104071  0  4.023847  0  0  -0.105394  0  4.046611  0  0  -0.087503  -0.102987  0  4.00855  0
C  C83  1  0.51052964  0.66783160  0.69704436  1  0  -0.085063  0  3.77928  0  0  -0.104136  0  4.024005  0  0  -0.105461  0  4.046772  0  0  -0.087512  -0.103047  0  4.0087  0
C  C84  1  0.62970589  0.38123831  0.22298703  1  0  -0.065102  0  3.744827  0  0  -0.073501  0  3.982623  0  0  -0.07651  0  4.004732  0  0  -0.088174  -0.071483  0  3.967622  0
C  C85  1  0.37030034  0.61876606  0.72298454  1  0  -0.06506  0  3.744848  0  0  -0.073504  0  3.982684  0  0  -0.076517  0  4.004791  0  0  -0.088214  -0.071486  0  3.967687  0
C  C86  1  0.72973184  0.34216472  0.17382155  1  0  -0.044913  0  3.731039  0  0  -0.056525  0  3.971503  0  0  -0.05713  0  3.992731  0  0  -0.078839  -0.05582  0  3.956948  0
C  C87  1  0.27027229  0.65784047  0.67382298  1  0  -0.044949  0  3.731098  0  0  -0.05657  0  3.971552  0  0  -0.057167  0  3.992772  0  0  -0.078866  -0.055864  0  3.956994  0
C  C88  1  0.68959908  0.25614840  0.09695166  1  0  -0.059532  0  3.752575  0  0  -0.07087  0  3.996327  0  0  -0.073777  0  4.018309  0  0  -0.086413  -0.068647  0  3.980833  0
C  C89  1  0.31040269  0.74385755  0.59695327  1  0  -0.059483  0  3.75255  0  0  -0.0708  0  3.996281  0  0  -0.07371  0  4.018265  0  0  -0.086342  -0.068581  0  3.980786  0
C  C90  1  0.54975951  0.20688931  0.07072759  1  0  -0.074432  0  3.74203  0  0  -0.094578  0  3.986469  0  0  -0.095362  0  4.008515  0  0  -0.085863  -0.093405  0  3.970931  0
C  C91  1  0.45024301  0.79311656  0.57072546  1  0  -0.074592  0  3.741986  0  0  -0.094736  0  3.986423  0  0  -0.095522  0  4.008466  0  0  -0.085935  -0.093557  0  3.970885  0
C  C92  1  0.44810924  0.24332349  0.12175861  1  0  -0.106809  0  3.773509  0  0  -0.070764  0  4.012146  0  0  -0.076062  0  4.038668  0  0  -0.030477  -0.067066  0  3.993648  0
C  C93  1  0.55189375  0.75667968  0.62175548  1  0  -0.106762  0  3.773563  0  0  -0.070667  0  4.012113  0  0  -0.075963  0  4.038632  0  0  -0.030456  -0.066969  0  3.993609  0
C  C94  1  0.25391609  0.00454100  0.08014270  1  0  -0.32775  0  3.636007  0  0  -0.359606  0  3.887547  0  0  -0.363417  0  3.897528  0  0  -0.164748  -0.357029  0  3.880732  0
C  C95  1  0.74608454  0.99546208  0.58014043  1  0  -0.327748  0  3.636123  0  0  -0.359642  0  3.887718  0  0  -0.36345  0  3.897693  0  0  -0.164767  -0.357074  0  3.880915  0
C  C96  1  0.10923384  0.90688862  0.07928749  1  0  0.184261  0  3.586622  0  0  0.159342  0  3.839637  0  0  0.165789  0  3.8482  0  0  -0.000804  0.1551  0  3.833743  0
C  C97  1  0.89076611  0.09311256  0.57928666  1  0  0.184359  0  3.586649  0  0  0.159358  0  3.839659  0  0  0.165803  0  3.848223  0  0  -0.000793  0.155116  0  3.833768  0
C  C98  1  0.02671438  0.89949613  0.98375185  1  0  0.172312  0  3.608223  0  0  0.146268  0  3.856116  0  0  0.152223  0  3.865882  0  0  -0.006244  0.142244  0  3.849441  0
C  C99  1  0.97328306  0.10050515  0.48374935  1  0  0.172329  0  3.608358  0  0  0.146383  0  3.856078  0  0  0.152338  0  3.865837  0  0  -0.006242  0.142354  0  3.849404  0
C  C100  1  0.05472788  0.70482548  0.00817290  1  0  0.550506  0  3.558625  0  0  0.541211  0  3.814245  0  0  0.55591  0  3.819551  0  0  0.152851  0.531059  0  3.810658  0
C  C101  1  0.94527240  0.29517269  0.50817012  1  0  0.550517  0  3.558704  0  0  0.541217  0  3.814308  0  0  0.555915  0  3.819618  0  0  0.152893  0.53106  0  3.810723  0
C  C102  1  0.15805061  0.69718993  0.92957238  1  0  -0.430541  0  3.653994  0  0  -0.517397  0  3.890875  0  0  -0.521281  0  3.89831  0  0  -0.26026  -0.514691  0  3.885985  0
C  C103  1  0.84194699  0.30281027  0.42957145  1  0  -0.430564  0  3.654027  0  0  -0.517422  0  3.89089  0  0  -0.52131  0  3.898328  0  0  -0.260257  -0.514716  0  3.886002  0
C  C104  1  0.96823368  0.57784708  0.04748366  1  0  -0.408997  0  3.655202  0  0  -0.497556  0  3.897758  0  0  -0.5013  0  3.90502  0  0  -0.250057  -0.494557  0  3.892343  0
C  C105  1  0.03176631  0.42215214  0.54748111  1  0  -0.408923  0  3.655206  0  0  -0.497477  0  3.897752  0  0  -0.501209  0  3.904987  0  0  -0.250053  -0.494478  0  3.892341  0
C  C106  1  0.91197119  0.96071843  0.98305773  1  0  -0.323222  0  3.601862  0  0  -0.354914  0  3.847148  0  0  -0.359242  0  3.857235  0  0  -0.167592  -0.351934  0  3.840296  0
C  C107  1  0.08802559  0.03928096  0.48305925  1  0  -0.32328  0  3.60197  0  0  -0.354923  0  3.847155  0  0  -0.359238  0  3.857227  0  0  -0.167574  -0.351935  0  3.840298  0
C  C108  1  0.64536620  0.75844293  0.95975984  1  0  -0.100889  0  3.765053  0  0  -0.066048  0  4.00431  0  0  -0.071085  0  4.030214  0  0  -0.026969  -0.062819  0  3.9866  0
C  C109  1  0.35463464  0.24155734  0.45976255  1  0  -0.100992  0  3.765091  0  0  -0.066125  0  4.004286  0  0  -0.071167  0  4.030213  0  0  -0.027048  -0.062911  0  3.986613  0
C  C110  1  0.55610714  0.79122501  0.02543348  1  0  -0.071479  0  3.746537  0  0  -0.090754  0  3.988254  0  0  -0.091604  0  4.009812  0  0  -0.083854  -0.090147  0  3.974122  0
C  C111  1  0.44389397  0.20877509  0.52543718  1  0  -0.071397  0  3.746467  0  0  -0.090682  0  3.988196  0  0  -0.091534  0  4.009746  0  0  -0.083828  -0.090074  0  3.974068  0
C  C112  1  0.45061982  0.69688049  0.07170235  1  0  -0.077011  0  3.772526  0  0  -0.08649  0  4.016239  0  0  -0.089505  0  4.037556  0  0  -0.090516  -0.084781  0  4.002208  0
C  C113  1  0.54938237  0.30311879  0.57170215  1  0  -0.076979  0  3.772374  0  0  -0.086483  0  4.016121  0  0  -0.089495  0  4.037435  0  0  -0.090518  -0.084795  0  4.002076  0
C  C114  1  0.43567186  0.56991767  0.05480186  1  0  -0.057953  0  3.752472  0  0  -0.071085  0  3.99626  0  0  -0.071839  0  4.017975  0  0  -0.087503  -0.070641  0  3.981069  0
C  C115  1  0.56432787  0.43008062  0.55480391  1  0  -0.05808  0  3.752472  0  0  -0.07121  0  3.996283  0  0  -0.071966  0  4.017995  0  0  -0.087567  -0.070768  0  3.981098  0
C  C116  1  0.52585815  0.53702488  0.99084303  1  0  -0.063409  0  3.745657  0  0  -0.071298  0  3.983632  0  0  -0.074769  0  4.00688  0  0  -0.089915  -0.068643  0  3.967458  0
C  C117  1  0.47413739  0.46297359  0.49084772  1  0  -0.063303  0  3.745662  0  0  -0.071178  0  3.983606  0  0  -0.07465  0  4.006858  0  0  -0.089778  -0.068522  0  3.967427  0
C  C118  1  0.63002393  0.63092785  0.94290522  1  0  -0.067794  0  3.744753  0  0  -0.085432  0  3.982224  0  0  -0.086086  0  4.003514  0  0  -0.084766  -0.084554  0  3.967312  0
C  C119  1  0.36997249  0.36907427  0.44291090  1  0  -0.067815  0  3.74481  0  0  -0.085451  0  3.982282  0  0  -0.086107  0  4.003571  0  0  -0.084786  -0.084571  0  3.967364  0
C  C120  1  0.69353798  0.99292693  0.85692926  1  0  -0.114834  0  3.782368  0  0  -0.080063  0  4.024314  0  0  -0.08462  0  4.049933  0  0  -0.031019  -0.077296  0  4.007297  0
C  C121  1  0.30646059  0.00706931  0.35693540  1  0  -0.114919  0  3.782193  0  0  -0.080211  0  4.024236  0  0  -0.084764  0  4.049846  0  0  -0.031092  -0.077443  0  4.007218  0
C  C122  1  0.77094709  0.12064196  0.84517268  1  0  -0.07774  0  3.746514  0  0  -0.093648  0  3.985189  0  0  -0.095108  0  4.007163  0  0  -0.088959  -0.093061  0  3.97079  0
C  C123  1  0.22904908  0.87935613  0.34517623  1  0  -0.077713  0  3.746338  0  0  -0.09358  0  3.985007  0  0  -0.09504  0  4.006982  0  0  -0.088899  -0.092995  0  3.970609  0
C  C124  1  0.70671759  0.20708799  0.81290073  1  0  -0.057763  0  3.747005  0  0  -0.070941  0  3.995793  0  0  -0.072694  0  4.015734  0  0  -0.086051  -0.069152  0  3.98216  0
C  C125  1  0.29327531  0.79291003  0.31290240  1  0  -0.0578  0  3.746921  0  0  -0.070962  0  3.995687  0  0  -0.072725  0  4.015624  0  0  -0.086068  -0.069175  0  3.982053  0
C  C126  1  0.56486657  0.16598780  0.79048200  1  0  -0.069587  0  3.767186  0  0  -0.083655  0  4.013258  0  0  -0.084539  0  4.033537  0  0  -0.088786  -0.083262  0  3.999587  0
C  C127  1  0.43512810  0.83401016  0.29048284  1  0  -0.06965  0  3.767181  0  0  -0.08371  0  4.013249  0  0  -0.084598  0  4.03354  0  0  -0.088835  -0.083313  0  3.999564  0
C  C128  1  0.48802004  0.03806029  0.79785293  1  0  -0.086568  0  3.767066  0  0  -0.096189  0  4.012813  0  0  -0.09879  0  4.033392  0  0  -0.097381  -0.09456  0  3.998693  0
C  C129  1  0.51197535  0.96193674  0.29785849  1  0  -0.086591  0  3.767037  0  0  -0.096228  0  4.01278  0  0  -0.098831  0  4.033356  0  0  -0.097335  -0.094598  0  3.99866  0
C  C130  1  0.55170110  0.95182764  0.83130518  1  0  -0.085438  0  3.765195  0  0  -0.105029  0  4.010396  0  0  -0.106603  0  4.032885  0  0  -0.090485  -0.103334  0  3.994902  0
C  C131  1  0.44829559  0.04816948  0.33130906  1  0  -0.085358  0  3.76498  0  0  -0.104909  0  4.010201  0  0  -0.106483  0  4.032687  0  0  -0.090477  -0.103214  0  3.994706  0
Cl  Cl132  1  0.85738763  0.56322104  0.74779751  1  0  -0.547235  0  0.857253  0  0  -0.476928  0  1.092843  0  0  -0.491753  0  1.074508  0  0  -0.323446  -0.465637  0  1.106585  0
Cl  Cl133  1  0.14260862  0.43677681  0.24779633  1  0  -0.547231  0  0.857257  0  0  -0.476936  0  1.092854  0  0  -0.491755  0  1.074506  0  0  -0.323438  -0.465642  0  1.106598  0
Cl  Cl134  1  0.12578402  0.92835432  0.72241311  1  0  -0.554606  0  0.915961  0  0  -0.493173  0  1.175367  0  0  -0.508521  0  1.158404  0  0  -0.329233  -0.480981  0  1.186083  0
Cl  Cl135  1  0.87421496  0.07164629  0.22241308  1  0  -0.554607  0  0.915936  0  0  -0.493183  0  1.175336  0  0  -0.508539  0  1.158383  0  0  -0.329242  -0.48099  0  1.186054  0
O  O136  1  0.96024674  0.76653067  0.97209840  1  0  -0.401522  0  2.186923  0  0  -0.327437  0  2.417028  0  0  -0.345123  0  2.41814  0  0  -0.207251  -0.314918  0  2.415541  0
O  O137  1  0.03974862  0.23346776  0.47209677  1  0  -0.401497  0  2.187024  0  0  -0.327505  0  2.417178  0  0  -0.345193  0  2.418289  0  0  -0.207284  -0.314977  0  2.415681  0
O  O138  1  0.12580752  0.78376372  0.08826786  1  0  -0.395433  0  2.059802  0  0  -0.33477  0  2.288504  0  0  -0.350536  0  2.287736  0  0  -0.22032  -0.323877  0  2.288691  0
O  O139  1  0.87419120  0.21623655  0.58826622  1  0  -0.395489  0  2.059855  0  0  -0.334754  0  2.28853  0  0  -0.350519  0  2.287764  0  0  -0.220301  -0.323857  0  2.28872  0
