# generated using pymatgen
data_CdH20C20SN4O5
_symmetry_space_group_name_H-M   'P 1'
_cell_length_a   7.41303820
_cell_length_b   10.69580112
_cell_length_c   31.69873361
_cell_angle_alpha   90.00254117
_cell_angle_beta   89.99889571
_cell_angle_gamma   90.00084003
_symmetry_Int_Tables_number   1
_chemical_formula_structural   CdH20C20SN4O5
_chemical_formula_sum   'Cd4 H80 C80 S4 N16 O20'
_cell_volume   2513.34130508
_cell_formula_units_Z   4
loop_
 _symmetry_equiv_pos_site_id
 _symmetry_equiv_pos_as_xyz
  1  'x, y, z'
loop_
 _atom_site_type_symbol
 _atom_site_label
 _atom_site_symmetry_multiplicity
 _atom_site_fract_x
 _atom_site_fract_y
 _atom_site_fract_z
 _atom_site_occupancy
 _atom_site_pbe_bader_charge
 _atom_site_pbe_bader_spin_density
 _atom_site_pbe_cm5_charge
 _atom_site_pbe_ddec_charge
 _atom_site_pbe_ddec_spin_density
 _atom_site_pbe_ddec_sum_bond_order
 _atom_site_pbe_magmom
Cd  Cd0  1  0.46199852  0.32126882  0.74999576  1  1.330161  0  0.807095  1.002077  0  2.207388  0
Cd  Cd1  1  0.03803456  0.82124841  0.25000718  1  1.330198  0  0.807042  1.001902  0  2.207564  0
Cd  Cd2  1  0.96194314  0.17875555  0.74999034  1  1.330212  0  0.807088  1.002048  0  2.207352  0
Cd  Cd3  1  0.53804393  0.67872860  0.25000301  1  1.330075  0  0.807023  1.001889  0  2.207562  0
H  H4  1  0.38767547  0.49427470  0.66113191  1  0.181947  0  0.145554  0.12153  0  0.97649  0
H  H5  1  0.11231551  0.99426710  0.33886933  1  0.182148  0  0.145585  0.121584  0  0.976382  0
H  H6  1  0.88765911  0.00570032  0.83886873  1  0.181565  0  0.145544  0.12151  0  0.976432  0
H  H7  1  0.61233095  0.50575085  0.16112854  1  0.182142  0  0.145524  0.121588  0  0.976436  0
H  H8  1  0.61231168  0.50571057  0.33886813  1  0.181856  0  0.145594  0.121582  0  0.976323  0
H  H9  1  0.88770806  0.00574621  0.66113040  1  0.182352  0  0.145569  0.121471  0  0.97638  0
H  H10  1  0.11230645  0.99429336  0.16113163  1  0.181839  0  0.145579  0.121651  0  0.976273  0
H  H11  1  0.38770341  0.49428397  0.83887150  1  0.182086  0  0.145533  0.121612  0  0.976374  0
H  H12  1  0.50612980  0.10927521  0.66979805  1  0.195299  0  0.116369  0.126442  0  1.064349  0
H  H13  1  0.99387061  0.60926283  0.33019705  1  0.195152  0  0.116408  0.126534  0  1.06431  0
H  H14  1  0.00614113  0.39069135  0.83021097  1  0.194735  0  0.116309  0.126365  0  1.064423  0
H  H15  1  0.49389077  0.89074113  0.16980378  1  0.19519  0  0.116398  0.126525  0  1.06429  0
H  H16  1  0.49385195  0.89071099  0.33020514  1  0.194438  0  0.116354  0.126468  0  1.064436  0
H  H17  1  0.00615296  0.39075703  0.66980425  1  0.194852  0  0.11636  0.126425  0  1.064358  0
H  H18  1  0.99389458  0.60927895  0.16978749  1  0.195381  0  0.11635  0.126444  0  1.064345  0
H  H19  1  0.50614629  0.10928714  0.83020667  1  0.194343  0  0.116348  0.126456  0  1.064451  0
H  H20  1  0.45465839  0.17218495  0.58442774  1  0.098029  0  0.106519  0.104009  0  1.054578  0
H  H21  1  0.04531751  0.67218537  0.41556782  1  0.098062  0  0.106502  0.104021  0  1.05461  0
H  H22  1  0.95471705  0.32777390  0.91558141  1  0.105873  0  0.106587  0.104099  0  1.054654  0
H  H23  1  0.54533801  0.82782630  0.08442815  1  0.097986  0  0.106509  0.103981  0  1.054497  0
H  H24  1  0.54530178  0.82779283  0.41557450  1  0.097509  0  0.106527  0.104007  0  1.054792  0
H  H25  1  0.95464266  0.32783355  0.58443191  1  0.097865  0  0.106488  0.103979  0  1.054539  0
H  H26  1  0.04534294  0.67221510  0.08442115  1  0.100916  0  0.106508  0.104016  0  1.054794  0
H  H27  1  0.45467747  0.17220477  0.91557378  1  0.097633  0  0.106483  0.103994  0  1.054752  0
H  H28  1  0.33338806  0.51781516  0.58216786  1  0.095662  0  0.117971  0.102935  0  0.965073  0
H  H29  1  0.16658583  0.01782185  0.41783222  1  0.095465  0  0.117925  0.102896  0  0.965091  0
H  H30  1  0.83341213  0.98214331  0.91783896  1  0.094928  0  0.117936  0.102965  0  0.964895  0
H  H31  1  0.66660446  0.48218271  0.08216640  1  0.095679  0  0.117962  0.102893  0  0.964995  0
H  H32  1  0.66658694  0.48217010  0.41783375  1  0.095273  0  0.117982  0.102989  0  0.965383  0
H  H33  1  0.83339592  0.98218959  0.58216940  1  0.095707  0  0.117953  0.102913  0  0.965069  0
H  H34  1  0.16657232  0.01784569  0.08216644  1  0.09519  0  0.117968  0.102969  0  0.965471  0
H  H35  1  0.33342720  0.51784275  0.91783648  1  0.095181  0  0.117974  0.103008  0  0.965343  0
H  H36  1  0.30298729  0.37983748  0.55198426  1  0.069888  0  0.1075  0.091635  0  0.998488  0
H  H37  1  0.19695939  0.87985470  0.44801613  1  0.069646  0  0.107491  0.091641  0  0.998527  0
H  H38  1  0.80300242  0.12013108  0.94802024  1  0.068463  0  0.107449  0.091526  0  0.998434  0
H  H39  1  0.69700496  0.62015006  0.05198481  1  0.068555  0  0.107519  0.091632  0  0.998572  0
H  H40  1  0.69695939  0.62014310  0.44801988  1  0.070068  0  0.107426  0.091508  0  0.998353  0
H  H41  1  0.80299134  0.12016048  0.55198770  1  0.068665  0  0.107507  0.09159  0  0.998491  0
H  H42  1  0.19698742  0.87988035  0.05198138  1  0.068541  0  0.107496  0.091605  0  0.998559  0
H  H43  1  0.30301996  0.37987072  0.94802216  1  0.069957  0  0.107446  0.091576  0  0.998516  0
H  H44  1  0.54497527  0.29595818  0.50852768  1  0.069293  0  0.095159  0.090006  0  1.049713  0
H  H45  1  0.95494420  0.79597218  0.49145962  1  0.058432  0  0.095172  0.090178  0  1.049921  0
H  H46  1  0.04501952  0.20403588  0.99147328  1  0.069403  0  0.095119  0.090001  0  1.049553  0
H  H47  1  0.45501102  0.70404636  0.00853508  1  0.069242  0  0.095139  0.089971  0  1.049658  0
H  H48  1  0.45496061  0.70402241  0.49146416  1  0.058399  0  0.095122  0.089982  0  1.049878  0
H  H49  1  0.04498899  0.20404581  0.50853317  1  0.069202  0  0.095122  0.089993  0  1.049616  0
H  H50  1  0.95496762  0.79596060  0.00853496  1  0.069384  0  0.095192  0.090125  0  1.049666  0
H  H51  1  0.54503548  0.29598378  0.99146432  1  0.058345  0  0.095162  0.090074  0  1.04998  0
H  H52  1  0.83333789  0.32844772  0.47329905  1  0.03397  0  0.097157  0.087955  0  1.042622  0
H  H53  1  0.66658903  0.82845767  0.52669065  1  0.033964  0  0.097173  0.087933  0  1.042586  0
H  H54  1  0.33338502  0.17153886  0.02669533  1  0.034452  0  0.097188  0.08795  0  1.042683  0
H  H55  1  0.16664887  0.67155526  0.97330811  1  0.033968  0  0.097153  0.087922  0  1.042664  0
H  H56  1  0.16660609  0.67153848  0.52669279  1  0.034088  0  0.097164  0.08791  0  1.042711  0
H  H57  1  0.33334821  0.17154910  0.47330118  1  0.033862  0  0.097155  0.087935  0  1.042612  0
H  H58  1  0.66661697  0.82843892  0.97330755  1  0.034196  0  0.097114  0.087838  0  1.042796  0
H  H59  1  0.83338684  0.32845992  0.02668972  1  0.033787  0  0.097125  0.087866  0  1.042774  0
H  H60  1  0.94218263  0.63965785  0.55664368  1  0.075161  0  0.102964  0.102419  0  1.010989  0
H  H61  1  0.55778740  0.13968068  0.44335569  1  0.074651  0  0.103007  0.10246  0  1.011189  0
H  H62  1  0.44219636  0.86031947  0.94335349  1  0.074749  0  0.103023  0.102454  0  1.011291  0
H  H63  1  0.05781869  0.36031719  0.05663807  1  0.075126  0  0.102922  0.102292  0  1.010969  0
H  H64  1  0.05777079  0.36030871  0.44335478  1  0.074416  0  0.103053  0.102503  0  1.011218  0
H  H65  1  0.44219165  0.86034945  0.55664309  1  0.075224  0  0.102971  0.102377  0  1.011014  0
H  H66  1  0.55779753  0.13967981  0.05664339  1  0.074827  0  0.102929  0.102348  0  1.011149  0
H  H67  1  0.94225480  0.63966059  0.94335187  1  0.074538  0  0.103046  0.102474  0  1.011118  0
H  H68  1  0.65305918  0.60461588  0.59157481  1  0.093919  0  0.11341  0.118988  0  0.972889  0
H  H69  1  0.84691010  0.10462505  0.40842306  1  0.09376  0  0.113408  0.118931  0  0.972938  0
H  H70  1  0.15305759  0.89536792  0.90842591  1  0.093699  0  0.113374  0.118841  0  0.972926  0
H  H71  1  0.34694338  0.39537102  0.09157125  1  0.093879  0  0.113332  0.118836  0  0.972924  0
H  H72  1  0.34689020  0.39536003  0.40841861  1  0.093559  0  0.113339  0.118843  0  0.97292  0
H  H73  1  0.15305007  0.89539387  0.59157445  1  0.094072  0  0.113401  0.118972  0  0.9729  0
H  H74  1  0.84692147  0.10464071  0.09157413  1  0.093676  0  0.113339  0.118811  0  0.972954  0
H  H75  1  0.65310177  0.60462172  0.90842279  1  0.093682  0  0.113388  0.118859  0  0.973008  0
H  H76  1  0.30080273  0.02944471  0.77381184  1  0.645061  0  0.302388  0.398867  0  0.916703  0
H  H77  1  0.19920918  0.52945938  0.22617928  1  0.644982  0  0.302469  0.399006  0  0.91655  0
H  H78  1  0.80075964  0.47052570  0.72617217  1  0.645041  0  0.302491  0.398984  0  0.916531  0
H  H79  1  0.69923241  0.97055008  0.27383111  1  0.644944  0  0.302356  0.39887  0  0.916762  0
H  H80  1  0.69914664  0.97055831  0.22620051  1  0.645218  0  0.302369  0.398933  0  0.916723  0
H  H81  1  0.80087914  0.47055393  0.77380341  1  0.645081  0  0.302449  0.399083  0  0.916477  0
H  H82  1  0.19920053  0.52945769  0.27380894  1  0.645285  0  0.302473  0.398929  0  0.91665  0
H  H83  1  0.30083162  0.02943799  0.72618407  1  0.644912  0  0.302424  0.398971  0  0.916673  0
C  C84  1  0.41758291  0.39858438  0.65198877  1  0.944013  0  0.147688  0.089518  0  3.920245  0
C  C85  1  0.08240194  0.89857483  0.34801191  1  0.944012  0  0.147613  0.089443  0  3.92031  0
C  C86  1  0.91758139  0.10139186  0.84801299  1  0.943493  0  0.147678  0.089433  0  3.919926  0
C  C87  1  0.58243234  0.60143908  0.15198767  1  0.943799  0  0.147648  0.089449  0  3.92045  0
C  C88  1  0.58240558  0.60140836  0.34801285  1  0.943626  0  0.147813  0.089615  0  3.920015  0
C  C89  1  0.91761893  0.10143380  0.65198686  1  0.943596  0  0.147578  0.089579  0  3.920205  0
C  C90  1  0.08240037  0.89858966  0.15198705  1  0.943769  0  0.147646  0.089361  0  3.91975  0
C  C91  1  0.41760877  0.39858265  0.84801427  1  0.943781  0  0.147655  0.089351  0  3.920113  0
C  C92  1  0.47561891  0.19845677  0.65470642  1  0.46252  0  0.001253  -0.013542  0  3.955336  0
C  C93  1  0.02437913  0.69844257  0.34529208  1  0.462304  0  0.001194  -0.013634  0  3.955247  0
C  C94  1  0.97563274  0.30151444  0.84530012  1  0.384275  0  0.001109  -0.013701  0  3.955381  0
C  C95  1  0.52440556  0.80155768  0.15471030  1  0.461998  0  0.001231  -0.013585  0  3.95522  0
C  C96  1  0.52436014  0.80153690  0.34529740  1  0.46367  0  0.001329  -0.013632  0  3.955502  0
C  C97  1  0.97562690  0.30156887  0.65471112  1  0.462465  0  0.001391  -0.013463  0  3.955003  0
C  C98  1  0.02438948  0.69846708  0.15470150  1  0.462473  0  0.001136  -0.013755  0  3.955558  0
C  C99  1  0.47563690  0.19845750  0.84529700  1  0.463484  0  0.001267  -0.013563  0  3.955542  0
C  C100  1  0.45145943  0.22799647  0.61293154  1  0.194719  0  -0.017716  -0.130081  0  3.951894  0
C  C101  1  0.04852442  0.72798307  0.38706616  1  0.194718  0  -0.017639  -0.130068  0  3.951903  0
C  C102  1  0.95148949  0.27196328  0.88707543  1  0.266715  0  -0.017711  -0.130191  0  3.95273  0
C  C103  1  0.54855491  0.77201087  0.11293200  1  0.195235  0  -0.017706  -0.130004  0  3.951673  0
C  C104  1  0.54851288  0.77199066  0.38707103  1  0.195111  0  -0.017827  -0.130075  0  3.952387  0
C  C105  1  0.95143979  0.27201622  0.61293388  1  0.195435  0  -0.017714  -0.129939  0  3.951659  0
C  C106  1  0.04854891  0.72801356  0.11292650  1  0.19211  0  -0.017631  -0.129965  0  3.952358  0
C  C107  1  0.45148350  0.22800057  0.88707025  1  0.194968  0  -0.017617  -0.130014  0  3.952019  0
C  C108  1  0.39585846  0.42850511  0.57340106  1  0.299355  0  -0.044394  -0.110315  0  3.931577  0
C  C109  1  0.10410951  0.92851872  0.42659789  1  0.300234  0  -0.044203  -0.110058  0  3.931265  0
C  C110  1  0.89588235  0.07146625  0.92660238  1  0.301518  0  -0.044243  -0.110078  0  3.931283  0
C  C111  1  0.60413207  0.57149821  0.07340191  1  0.3008  0  -0.044372  -0.110167  0  3.931664  0
C  C112  1  0.60410306  0.57146052  0.42659551  1  0.299819  0  -0.044275  -0.110075  0  3.93159  0
C  C113  1  0.89587359  0.07149739  0.57340405  1  0.300247  0  -0.04428  -0.11001  0  3.931545  0
C  C114  1  0.10413313  0.92854052  0.07340270  1  0.301291  0  -0.044257  -0.110021  0  3.931656  0
C  C115  1  0.39588610  0.42854034  0.92659908  1  0.299717  0  -0.044261  -0.110307  0  3.931485  0
C  C116  1  0.57538648  0.44955123  0.55195515  1  0.020726  0  -0.007776  0.095604  0  3.974529  0
C  C117  1  0.92456060  0.94956229  0.44804181  1  0.035061  0  -0.007732  0.095689  0  3.974143  0
C  C118  1  0.07540255  0.05043004  0.94804661  1  0.035276  0  -0.007774  0.095555  0  3.974197  0
C  C119  1  0.42461656  0.55045314  0.05195651  1  0.034373  0  -0.007727  0.095587  0  3.974691  0
C  C120  1  0.42456290  0.55042187  0.44804047  1  0.03527  0  -0.007615  0.095702  0  3.973971  0
C  C121  1  0.07538338  0.05045102  0.55195729  1  0.034281  0  -0.007738  0.095701  0  3.974604  0
C  C122  1  0.92458190  0.94956831  0.05195690  1  0.03482  0  -0.007754  0.095336  0  3.974118  0
C  C123  1  0.57544478  0.44957139  0.94804669  1  0.035421  0  -0.00772  0.09571  0  3.974017  0
C  C124  1  0.63224084  0.37181802  0.51910294  1  -0.052884  0  -0.09134  -0.129303  0  3.996109  0
C  C125  1  0.86769647  0.87182234  0.48089248  1  -0.055471  0  -0.091533  -0.12976  0  3.99724  0
C  C126  1  0.13227889  0.12816943  0.98089856  1  -0.066753  0  -0.091451  -0.129482  0  3.996333  0
C  C127  1  0.36775001  0.62817476  0.01911019  1  -0.066356  0  -0.091392  -0.129405  0  3.996069  0
C  C128  1  0.36769910  0.62816912  0.48089804  1  -0.055421  0  -0.091485  -0.129368  0  3.996801  0
C  C129  1  0.13225021  0.12817788  0.51910566  1  -0.066557  0  -0.091354  -0.129336  0  3.996105  0
C  C130  1  0.86771230  0.87181864  0.01910306  1  -0.066502  0  -0.091483  -0.129528  0  3.996644  0
C  C131  1  0.63228840  0.37182359  0.98089616  1  -0.055643  0  -0.091505  -0.12944  0  3.99734  0
C  C132  1  0.79717422  0.39078484  0.49913945  1  -0.085907  0  -0.093114  -0.135798  0  4.009483  0
C  C133  1  0.70278643  0.89078816  0.50085406  1  -0.086271  0  -0.092865  -0.135419  0  4.009517  0
C  C134  1  0.29720048  0.10920700  0.00085888  1  -0.086575  0  -0.092972  -0.135571  0  4.0098  0
C  C135  1  0.20280912  0.60920922  0.99914201  1  -0.085887  0  -0.093059  -0.135681  0  4.009309  0
C  C136  1  0.20279944  0.60920603  0.50085712  1  -0.08602  0  -0.092918  -0.135621  0  4.009955  0
C  C137  1  0.29717239  0.10921953  0.49914061  1  -0.085801  0  -0.093132  -0.135866  0  4.009606  0
C  C138  1  0.70280960  0.89077546  0.99914116  1  -0.086352  0  -0.093011  -0.135486  0  4.009811  0
C  C139  1  0.79719422  0.39078539  0.00085393  1  -0.086016  0  -0.092905  -0.135608  0  4.009845  0
C  C140  1  0.91329453  0.48878630  0.51110510  1  0.026925  0  -0.013088  0.046489  0  4.010308  0
C  C141  1  0.58665475  0.98881316  0.48889058  1  -0.015723  0  -0.013117  0.046395  0  4.010111  0
C  C142  1  0.41331052  0.01120019  0.98889384  1  0.027032  0  -0.013127  0.046444  0  4.010509  0
C  C143  1  0.08671719  0.51121108  0.01110109  1  -0.016161  0  -0.013177  0.046341  0  4.010574  0
C  C144  1  0.08665619  0.51118026  0.48888958  1  -0.016126  0  -0.013122  0.046427  0  4.010346  0
C  C145  1  0.41329193  0.01121698  0.51110409  1  0.027154  0  -0.013093  0.046423  0  4.010321  0
C  C146  1  0.58668472  0.98880190  0.01110588  1  -0.015979  0  -0.013108  0.046307  0  4.010495  0
C  C147  1  0.91334685  0.48880130  0.98889138  1  0.027238  0  -0.013165  0.046418  0  4.010068  0
C  C148  1  0.85656286  0.56432714  0.54508857  1  -0.110174  0  -0.08823  -0.121019  0  3.970786  0
C  C149  1  0.64340419  0.06434479  0.45491183  1  -0.109778  0  -0.088193  -0.121069  0  3.971633  0
C  C150  1  0.35658405  0.93565681  0.95491373  1  -0.11  0  -0.088247  -0.121103  0  3.9716  0
C  C151  1  0.14345018  0.43566048  0.04508311  1  -0.110456  0  -0.088151  -0.120844  0  3.970719  0
C  C152  1  0.14338382  0.43565532  0.45491305  1  -0.109511  0  -0.088273  -0.121247  0  3.971919  0
C  C153  1  0.35656407  0.93567600  0.54508600  1  -0.110409  0  -0.088185  -0.120795  0  3.970515  0
C  C154  1  0.64341524  0.06434060  0.04508315  1  -0.109849  0  -0.088165  -0.121022  0  3.971361  0
C  C155  1  0.85661656  0.56432852  0.95491125  1  -0.109411  0  -0.088196  -0.121108  0  3.971491  0
C  C156  1  0.69145951  0.54509105  0.56506057  1  -0.049888  0  -0.083109  -0.125348  0  3.974303  0
C  C157  1  0.80850578  0.04510784  0.43493731  1  -0.050657  0  -0.083208  -0.125331  0  3.974608  0
C  C158  1  0.19147597  0.95488939  0.93494123  1  -0.050245  0  -0.083121  -0.125147  0  3.974222  0
C  C159  1  0.30853304  0.45489813  0.06505718  1  -0.049764  0  -0.083029  -0.125142  0  3.974248  0
C  C160  1  0.30850471  0.45489140  0.43493568  1  -0.050747  0  -0.083138  -0.12518  0  3.974443  0
C  C161  1  0.19145304  0.95491295  0.56505831  1  -0.049915  0  -0.083143  -0.125516  0  3.974246  0
C  C162  1  0.80852602  0.04511083  0.06505976  1  -0.050401  0  -0.083018  -0.124898  0  3.974207  0
C  C163  1  0.69150402  0.54510396  0.93493749  1  -0.050604  0  -0.083178  -0.125226  0  3.974434  0
S  S164  1  0.63687481  0.00564115  0.74999888  1  3.690747  0  0.522642  1.396441  0  6.405918  0
S  S165  1  0.86315302  0.50564546  0.24999555  1  3.692637  0  0.522719  1.39659  0  6.405978  0
S  S166  1  0.13688134  0.49435289  0.75000544  1  3.690157  0  0.522795  1.396891  0  6.405902  0
S  S167  1  0.36314741  0.99435346  0.25000557  1  3.691591  0  0.522823  1.396498  0  6.405128  0
N  N168  1  0.45406656  0.30580588  0.67837261  1  -1.180521  0  -0.347965  -0.26971  0  3.5073  0
N  N169  1  0.04592842  0.80579360  0.32162536  1  -1.180559  0  -0.348053  -0.269768  0  3.507265  0
N  N170  1  0.95406782  0.19417259  0.82162677  1  -1.18049  0  -0.347867  -0.269571  0  3.506492  0
N  N171  1  0.54595331  0.69421808  0.17837597  1  -1.180082  0  -0.34803  -0.269901  0  3.507652  0
N  N172  1  0.54591924  0.69418873  0.32163058  1  -1.180349  0  -0.348162  -0.26978  0  3.507046  0
N  N173  1  0.95410459  0.19421316  0.67837531  1  -1.180583  0  -0.348097  -0.26987  0  3.507478  0
N  N174  1  0.04591933  0.80580145  0.17837169  1  -1.180468  0  -0.347883  -0.269537  0  3.506829  0
N  N175  1  0.45408914  0.30579710  0.82162786  1  -1.180335  0  -0.347902  -0.269678  0  3.506904  0
N  N176  1  0.41475930  0.35486282  0.61166695  1  -1.240103  0  -0.251622  0.024308  0  3.823697  0
N  N177  1  0.08521516  0.85485648  0.38833273  1  -1.239944  0  -0.251633  0.024257  0  3.823651  0
N  N178  1  0.91478112  0.14511060  0.88833482  1  -1.240076  0  -0.251554  0.024414  0  3.824293  0
N  N179  1  0.58524434  0.64515185  0.11166589  1  -1.240371  0  -0.251502  0.024367  0  3.824129  0
N  N180  1  0.58521840  0.64512338  0.38833498  1  -1.239852  0  -0.251589  0.024198  0  3.824207  0
N  N181  1  0.91476794  0.14515122  0.61166888  1  -1.239687  0  -0.251553  0.024119  0  3.82416  0
N  N182  1  0.08523031  0.85487466  0.11166332  1  -1.23997  0  -0.251653  0.024171  0  3.824076  0
N  N183  1  0.41478327  0.35486988  0.88833605  1  -1.239764  0  -0.251657  0.024336  0  3.823898  0
O  O184  1  0.23551374  0.06805898  0.74999399  1  -1.271027  0  -0.586247  -0.76391  0  2.100255  0
O  O185  1  0.26450981  0.56806232  0.24999521  1  -1.271243  0  -0.586279  -0.763813  0  2.100363  0
O  O186  1  0.73552860  0.43192668  0.74999820  1  -1.271269  0  -0.586241  -0.763944  0  2.100168  0
O  O187  1  0.76450848  0.93193750  0.25001015  1  -1.271151  0  -0.586127  -0.763798  0  2.10037  0
O  O188  1  0.53895124  0.96653494  0.71133032  1  -1.346079  0  -0.388854  -0.673476  0  2.095757  0
O  O189  1  0.96107041  0.46653396  0.28866375  1  -1.346078  0  -0.388874  -0.673471  0  2.09558  0
O  O190  1  0.03890554  0.53344867  0.78866935  1  -1.346128  0  -0.388865  -0.673579  0  2.095751  0
O  O191  1  0.46110376  0.03346885  0.21133729  1  -1.345897  0  -0.388907  -0.673464  0  2.095283  0
O  O192  1  0.46104265  0.03345219  0.28868360  1  -1.346616  0  -0.388872  -0.673502  0  2.095273  0
O  O193  1  0.03904894  0.53347374  0.71132556  1  -1.345622  0  -0.388983  -0.673562  0  2.095195  0
O  O194  1  0.96105867  0.46654687  0.21132438  1  -1.346496  0  -0.388879  -0.673597  0  2.095658  0
O  O195  1  0.53897916  0.96653699  0.78867221  1  -1.346103  0  -0.388934  -0.673475  0  2.095408  0
O  O196  1  0.64863135  0.15046159  0.74999904  1  -1.265489  0  -0.4102  -0.753652  0  2.402375  0
O  O197  1  0.85138883  0.65045550  0.25000081  1  -1.265505  0  -0.41006  -0.753484  0  2.402544  0
O  O198  1  0.14862529  0.34954098  0.74999923  1  -1.26542  0  -0.410131  -0.753662  0  2.402351  0
O  O199  1  0.35138682  0.84953115  0.25000131  1  -1.265436  0  -0.410101  -0.753487  0  2.402127  0
O  O200  1  0.82812124  0.96401725  0.74999269  1  -1.3234  0  -0.386908  -0.66537  0  2.109079  0
O  O201  1  0.67190844  0.46401790  0.24999724  1  -1.324846  0  -0.387118  -0.665548  0  2.109127  0
O  O202  1  0.32813131  0.53598045  0.75002583  1  -1.323146  0  -0.387074  -0.665671  0  2.10911  0
O  O203  1  0.17189693  0.03599232  0.24999820  1  -1.323829  0  -0.387043  -0.665457  0  2.108899  0
