# generated using pymatgen
data_ZnH7C20Br2NO7
_symmetry_space_group_name_H-M   'P 1'
_cell_length_a   12.25344252
_cell_length_b   12.99067535
_cell_length_c   15.95059434
_cell_angle_alpha   87.66497113
_cell_angle_beta   85.21810698
_cell_angle_gamma   86.93422724
_symmetry_Int_Tables_number   1
_chemical_formula_structural   ZnH7C20Br2NO7
_chemical_formula_sum   'Zn2 H14 C40 Br4 N2 O14'
_cell_volume   2524.88440744
_cell_formula_units_Z   2
loop_
 _symmetry_equiv_pos_site_id
 _symmetry_equiv_pos_as_xyz
  1  'x, y, z'
loop_
 _atom_site_type_symbol
 _atom_site_label
 _atom_site_symmetry_multiplicity
 _atom_site_fract_x
 _atom_site_fract_y
 _atom_site_fract_z
 _atom_site_occupancy
 _atom_site_pbe_bader_charge
 _atom_site_pbe_bader_spin_density
 _atom_site_pbe_cm5_charge
 _atom_site_pbe_ddec_charge
 _atom_site_pbe_ddec_spin_density
 _atom_site_pbe_ddec_sum_bond_order
 _atom_site_pbe_magmom
Zn  Zn0  1  0.62124023  0.50566637  0.49719595  1  1.30867  0  0.672728  0.85849  0  2.35482  0
Zn  Zn1  1  0.37875613  0.49432423  0.50280215  1  1.309029  0  0.672666  0.858333  0  2.354996  0
H  H2  1  0.49430452  0.68145837  0.95558138  1  0.130765  0  0.122111  0.124594  0  0.956141  0
H  H3  1  0.50570620  0.31855461  0.04441329  1  0.131228  0  0.122046  0.124473  0  0.956487  0
H  H4  1  0.36056859  0.17544384  0.52304680  1  0.118203  0  0.096564  0.107852  0  1.048206  0
H  H5  1  0.63941342  0.82453669  0.47696813  1  0.118303  0  0.096566  0.10796  0  1.048216  0
H  H6  1  0.71151796  0.18145502  0.51191564  1  0.114167  0  0.10637  0.12637  0  1.002794  0
H  H7  1  0.28846576  0.81854096  0.48808866  1  0.113912  0  0.106357  0.126267  0  1.002757  0
H  H8  1  0.00881330  0.36361347  0.63916857  1  0.158926  0  0.11458  0.126953  0  1.030833  0
H  H9  1  0.99118404  0.63637481  0.36082578  1  0.158852  0  0.114603  0.126968  0  1.031037  0
H  H10  1  0.25565798  0.63744966  0.03493245  1  0.049142  0  0.107214  0.040922  0  0.939535  0
H  H11  1  0.74434813  0.36255714  0.96506582  1  0.049104  0  0.107229  0.040957  0  0.939547  0
H  H12  1  0.25083050  0.38853695  0.02421263  1  0.080641  0  0.104879  0.038048  0  0.943514  0
H  H13  1  0.74916931  0.61148376  0.97576739  1  0.080179  0  0.105033  0.038256  0  0.943432  0
H  H14  1  0.69524510  0.62237835  0.35711104  1  0.164161  0  0.118083  0.084802  0  1.015196  0
H  H15  1  0.30474467  0.37762611  0.64289766  1  0.164291  0  0.118121  0.084803  0  1.015258  0
C  C16  1  0.47549053  0.69674180  0.47545827  1  1.586776  0  0.22014  0.607873  0  4.139513  0
C  C17  1  0.52448380  0.30324645  0.52454557  1  1.588127  0  0.220173  0.608101  0  4.138767  0
C  C18  1  0.35265464  0.96759312  0.50107841  1  -0.122544  0  -0.010689  0.073192  0  3.935766  0
C  C19  1  0.64733256  0.03239900  0.49892644  1  -0.122326  0  -0.010693  0.072966  0  3.935991  0
C  C20  1  0.36094504  0.86302110  0.48992611  1  -0.010011  0  -0.092242  -0.15386  0  3.975892  0
C  C21  1  0.63903793  0.13697177  0.51008837  1  -0.009871  0  -0.092348  -0.154144  0  3.976338  0
C  C22  1  0.55972955  0.86575636  0.48361403  1  -0.041573  0  -0.082065  -0.128412  0  3.929633  0
C  C23  1  0.44025488  0.13422416  0.51640389  1  -0.042721  0  -0.082028  -0.128042  0  3.92957  0
C  C24  1  0.55315043  0.97300864  0.49524272  1  0.007271  0  -0.005122  0.044025  0  3.972332  0
C  C25  1  0.44683957  0.02697575  0.50476974  1  0.05347  0  -0.005236  0.043433  0  3.972709  0
C  C26  1  0.04238820  0.41255652  0.58736266  1  0.018097  0  -0.064523  -0.162759  0  3.911783  0
C  C27  1  0.95760929  0.58742946  0.41263050  1  0.01901  0  -0.064602  -0.162836  0  3.912434  0
C  C28  1  0.15480663  0.41637992  0.57422487  1  0.416339  0  0.11707  0.183403  0  3.887135  0
C  C29  1  0.84519305  0.58361068  0.42576865  1  0.416339  0  0.117153  0.183403  0  3.887574  0
C  C30  1  0.14308087  0.52403725  0.45492392  1  0.520258  0  0.141393  0.20815  0  3.89669  0
C  C31  1  0.85691622  0.47595567  0.54507030  1  0.52023  0  0.141364  0.208074  0  3.896677  0
C  C32  1  0.02534940  0.52861812  0.46533348  1  0.090489  0  0.009754  0.038023  0  3.977822  0
C  C33  1  0.97464699  0.47137248  0.53466211  1  0.029728  0  0.009656  0.037961  0  3.977927  0
C  C34  1  0.52437866  0.46508050  0.34044121  1  1.69326  0  0.224207  0.672892  0  4.231032  0
C  C35  1  0.47563963  0.53492785  0.65955881  1  1.69355  0  0.22421  0.67275  0  4.230406  0
C  C36  1  0.49667678  0.59976396  0.97503810  1  -0.036091  0  -0.04043  -0.093717  0  3.553335  0
C  C37  1  0.50333801  0.40024980  0.02495569  1  -0.036504  0  -0.040423  -0.093706  0  3.554062  0
C  C38  1  0.41230024  0.54948990  0.04264359  1  -0.027317  0  0.008754  0.006149  0  3.605488  0
C  C39  1  0.58771037  0.45052462  0.95735355  1  -0.028214  0  0.008743  0.006224  0  3.605416  0
C  C40  1  0.52429284  0.46463600  0.24984452  1  -0.209351  0  -0.0346  -0.153866  0  3.954736  0
C  C41  1  0.47571794  0.53537544  0.75015271  1  -0.210837  0  -0.034615  -0.153924  0  3.954814  0
C  C42  1  0.59385148  0.54222178  0.01973423  1  -0.039891  0  0.00989  -0.009726  0  3.627107  0
C  C43  1  0.40615905  0.45779428  0.98026224  1  -0.04091  0  0.009798  -0.009784  0  3.626835  0
C  C44  1  0.50945151  0.49082640  0.08677095  1  0.13345  0  0.020563  0.100412  0  3.806116  0
C  C45  1  0.49056156  0.50918812  0.91322605  1  0.133227  0  0.020478  0.100506  0  3.805654  0
C  C46  1  0.51838045  0.47727078  0.17439024  1  -0.05499  0  -0.03968  -0.060909  0  4.098381  0
C  C47  1  0.48163262  0.52274296  0.82561054  1  -0.053351  0  -0.039654  -0.060925  0  4.098288  0
C  C48  1  0.53408936  0.18841135  0.51836619  1  0.031124  0  -0.013793  -0.005604  0  3.961108  0
C  C49  1  0.46588994  0.81157458  0.48164496  1  0.030289  0  -0.01401  -0.005837  0  3.961162  0
C  C50  1  0.31476207  0.60769345  0.08134152  1  0.986064  0  0.107195  0.266082  0  3.975857  0
C  C51  1  0.68524576  0.39231180  0.91865670  1  0.986416  0  0.10709  0.265932  0  3.975766  0
C  C52  1  0.30421852  0.40674779  0.96542826  1  0.966217  0  0.105939  0.26509  0  3.98532  0
C  C53  1  0.69579638  0.59326598  0.03455423  1  0.967096  0  0.105632  0.264577  0  3.98569  0
C  C54  1  0.77811373  0.64716467  0.36537297  1  0.949871  0  0.109861  0.250507  0  3.865807  0
C  C55  1  0.22188437  0.35282439  0.63462319  1  0.948651  0  0.109844  0.250452  0  3.865872  0
Br  Br56  1  0.20945757  0.03341348  0.51299558  1  -0.071258  0  0.013353  -0.07978  0  1.350122  0
Br  Br57  1  0.79053400  0.96658867  0.48700933  1  -0.071177  0  0.013387  -0.079666  0  1.350178  0
Br  Br58  1  0.79031107  0.41142062  0.64254482  1  0.094271  0  0.138313  0.06303  0  1.556908  0
Br  Br59  1  0.20967945  0.58857306  0.35744788  1  0.094226  0  0.138315  0.063026  0  1.556847  0
N  N60  1  0.79460334  0.52543294  0.49060774  1  -1.205629  0  -0.292454  -0.260936  0  3.41448  0
N  N61  1  0.20539207  0.47456075  0.50938655  1  -1.205558  0  -0.292482  -0.260989  0  3.41456  0
O  O62  1  0.57212400  0.65493731  0.46748020  1  -1.174433  0  -0.315439  -0.558999  0  2.382481  0
O  O63  1  0.42784912  0.34504635  0.53250693  1  -1.175027  0  -0.315504  -0.559224  0  2.382294  0
O  O64  1  0.38677878  0.64917432  0.48050063  1  -1.159037  0  -0.318424  -0.555329  0  2.373731  0
O  O65  1  0.61319180  0.35082007  0.51951702  1  -1.160115  0  -0.318417  -0.555366  0  2.373445  0
O  O66  1  0.61639421  0.47407991  0.37026876  1  -1.146459  0  -0.309041  -0.540767  0  2.274208  0
O  O67  1  0.38362981  0.52589913  0.62972747  1  -1.146694  0  -0.309185  -0.540743  0  2.273756  0
O  O68  1  0.43094737  0.45922001  0.38089925  1  -1.149646  0  -0.313501  -0.555078  0  2.338253  0
O  O69  1  0.56906394  0.54079683  0.61909778  1  -1.149592  0  -0.313445  -0.55497  0  2.338017  0
O  O70  1  0.29775129  0.62466614  0.15611837  1  -1.061083  0  -0.247676  -0.329336  0  2.145217  0
O  O71  1  0.70225320  0.37534066  0.84387874  1  -1.061167  0  -0.247634  -0.3293  0  2.145303  0
O  O72  1  0.27916173  0.38398179  0.89642790  1  -1.043487  0  -0.240526  -0.313925  0  2.098828  0
O  O73  1  0.72087791  0.61602969  0.10354884  1  -1.044412  0  -0.240499  -0.313785  0  2.098997  0
O  O74  1  0.81759943  0.72138592  0.32682205  1  -1.056645  0  -0.248234  -0.323041  0  2.093802  0
O  O75  1  0.18240698  0.27858851  0.67316030  1  -1.055498  0  -0.248213  -0.323001  0  2.093898  0
