# generated using pymatgen
data_CdCo2H54C66N12(ClO2)2
_symmetry_space_group_name_H-M   'P 1'
_cell_length_a   9.28428883
_cell_length_b   13.47754261
_cell_length_c   13.94090000
_cell_angle_alpha   106.54249850
_cell_angle_beta   106.98002602
_cell_angle_gamma   97.98348530
_symmetry_Int_Tables_number   1
_chemical_formula_structural   CdCo2H54C66N12(ClO2)2
_chemical_formula_sum   'Cd1 Co2 H54 C66 N12 Cl2 O4'
_cell_volume   1551.70462731
_cell_formula_units_Z   1
loop_
 _symmetry_equiv_pos_site_id
 _symmetry_equiv_pos_as_xyz
  1  'x, y, z'
loop_
 _atom_site_type_symbol
 _atom_site_label
 _atom_site_symmetry_multiplicity
 _atom_site_fract_x
 _atom_site_fract_y
 _atom_site_fract_z
 _atom_site_occupancy
 _atom_site_pbe_bader_charge
 _atom_site_pbe_bader_spin_density
 _atom_site_pbe_cm5_charge
 _atom_site_pbe_ddec_charge
 _atom_site_pbe_ddec_spin_density
 _atom_site_pbe_ddec_sum_bond_order
 _atom_site_pbe_magmom
Cd  Cd0  1  0.99999972  0.99999920  0.99999686  1  1.155146  0  0.655287  0.677657  0  2.481852  0
Co  Co1  1  0.54549320  0.30842649  0.68377599  1  1.224819  0  0.819012  0.703701  0  3.338058  0
Co  Co2  1  0.45450142  0.69157051  0.31622365  1  1.224584  0  0.81902  0.703734  0  3.338  0
H  H3  1  0.71453722  0.13340723  0.71952973  1  0.111441  0  0.111794  0.086445  0  1.054744  0
H  H4  1  0.28545261  0.86658897  0.28046875  1  0.111427  0  0.111749  0.08639  0  1.054768  0
H  H5  1  0.76611156  0.98656829  0.56038063  1  0.077143  0  0.104625  0.126137  0  0.9999  0
H  H6  1  0.23390699  0.01344228  0.43962380  1  0.077347  0  0.104584  0.126062  0  0.999994  0
H  H7  1  0.62752653  0.02555389  0.37894800  1  0.062082  0  0.098444  0.113144  0  1.051753  0
H  H8  1  0.37249849  0.97445588  0.62105676  1  0.062056  0  0.098425  0.113095  0  1.0517  0
H  H9  1  0.29996073  0.31962866  0.30466549  1  0.115829  0  0.096006  0.106829  0  1.052231  0
H  H10  1  0.70004599  0.68037393  0.69533445  1  0.115825  0  0.095988  0.106827  0  1.052185  0
H  H11  1  0.25097566  0.48944173  0.43896861  1  0.082529  0  0.096834  0.114112  0  1.055583  0
H  H12  1  0.74905161  0.51056804  0.56103300  1  0.082441  0  0.096858  0.11415  0  1.055503  0
H  H13  1  0.38932997  0.48795390  0.63867666  1  0.107969  0  0.117215  0.094611  0  1.023339  0
H  H14  1  0.61068126  0.51204869  0.36132272  1  0.107929  0  0.117219  0.094541  0  1.023314  0
H  H15  1  0.69272956  0.19908373  0.31769479  1  0.112633  0  0.114589  0.119468  0  0.971435  0
H  H16  1  0.30726788  0.80091487  0.68230225  1  0.112616  0  0.114575  0.119449  0  0.971444  0
H  H17  1  0.63328149  0.12043005  0.12229189  1  0.130919  0  0.095423  0.112089  0  1.054221  0
H  H18  1  0.36671792  0.87957094  0.87770547  1  0.130931  0  0.09547  0.112158  0  1.054244  0
H  H19  1  0.35094569  0.03586575  0.00142635  1  0.114394  0  0.101425  0.076411  0  1.050463  0
H  H20  1  0.64905343  0.96413444  0.99857145  1  0.114403  0  0.101433  0.076456  0  1.050465  0
H  H21  1  0.20172100  0.10134520  0.25903157  1  0.138083  0  0.104112  0.08751  0  1.041541  0
H  H22  1  0.79828094  0.89865339  0.74096849  1  0.138107  0  0.104103  0.087501  0  1.041513  0
H  H23  1  0.80108452  0.30537665  0.57775188  1  0.123525  0  0.11685  0.094352  0  1.035525  0
H  H24  1  0.19889546  0.69462354  0.42223861  1  0.124198  0  0.116868  0.094331  0  1.035429  0
H  H25  1  0.06815878  0.46102547  0.66026359  1  0.062407  0  0.103922  0.12133  0  1.014982  0
H  H26  1  0.93181952  0.53896994  0.33972167  1  0.062832  0  0.103902  0.12135  0  1.014887  0
H  H27  1  0.04907540  0.60574815  0.83445526  1  0.071435  0  0.101901  0.115642  0  1.039012  0
H  H28  1  0.95091669  0.39424168  0.16553402  1  0.07119  0  0.101907  0.115656  0  1.038828  0
H  H29  1  0.57317562  0.65089027  0.97986678  1  0.083894  0  0.100151  0.116167  0  1.032381  0
H  H30  1  0.42682633  0.34909557  0.02014555  1  0.083879  0  0.10014  0.116131  0  1.032341  0
H  H31  1  0.27237678  0.54068991  0.89739430  1  0.052667  0  0.096897  0.107796  0  1.055873  0
H  H32  1  0.72762573  0.45930390  0.10261460  1  0.052723  0  0.096873  0.107762  0  1.0559  0
H  H33  1  0.25476741  0.35978716  0.73923708  1  0.110476  0  0.117308  0.095557  0  1.024597  0
H  H34  1  0.74522439  0.64021463  0.26075974  1  0.110558  0  0.117266  0.095519  0  1.024559  0
H  H35  1  0.88900345  0.56073526  0.06824583  1  0.089293  0  0.106911  0.105569  0  1.022265  0
H  H36  1  0.11097569  0.43926892  0.93175707  1  0.096432  0  0.106911  0.105564  0  1.022262  0
H  H37  1  0.03073944  0.72788700  0.22377888  1  0.106035  0  0.107766  0.109259  0  1.029337  0
H  H38  1  0.96924223  0.27212117  0.77621916  1  0.105894  0  0.107673  0.109129  0  1.029428  0
H  H39  1  0.05795317  0.90308256  0.19036383  1  0.096432  0  0.112726  0.082174  0  1.016182  0
H  H40  1  0.94204398  0.09692162  0.80962608  1  0.096362  0  0.112687  0.082124  0  1.016234  0
H  H41  1  0.85049272  0.75124784  0.86431486  1  0.104488  0  0.111976  0.086497  0  1.028189  0
H  H42  1  0.14951993  0.24874278  0.13567648  1  0.104155  0  0.111939  0.086436  0  1.028023  0
H  H43  1  0.38205300  0.12246035  0.85233573  1  0.066633  0  0.095736  0.137147  0  1.034835  0
H  H44  1  0.61795598  0.87755181  0.14767876  1  0.066115  0  0.095733  0.137123  0  1.034853  0
H  H45  1  0.07266994  0.14448255  0.66126177  1  0.051679  0  0.094532  0.140856  0  1.007588  0
H  H46  1  0.92732778  0.85550408  0.33874064  1  0.051569  0  0.094501  0.140797  0  1.007566  0
H  H47  1  0.13908875  0.04889718  0.71954676  1  0.078773  0  0.0858  0.142504  0  1.03762  0
H  H48  1  0.86092136  0.95109583  0.28046411  1  0.078965  0  0.085782  0.142503  0  1.037825  0
H  H49  1  0.13328586  0.03948599  0.58777705  1  0.093833  0  0.09994  0.153643  0  0.997736  0
H  H50  1  0.86672875  0.96050383  0.41223382  1  0.093707  0  0.099929  0.153603  0  0.99767  0
H  H51  1  0.71354325  0.14862772  0.95026822  1  0.098154  0  0.095277  0.145964  0  1.024533  0
H  H52  1  0.28646713  0.85138524  0.04973959  1  0.098266  0  0.095246  0.145934  0  1.024521  0
H  H53  1  0.62011217  0.23583739  0.01700305  1  0.059915  0  0.096754  0.146633  0  1.005143  0
H  H54  1  0.37990074  0.76417636  0.98300619  1  0.059715  0  0.096779  0.146719  0  1.004986  0
H  H55  1  0.78778671  0.28852793  0.99144894  1  0.03046  0  0.09398  0.141808  0  1.016593  0
H  H56  1  0.21221832  0.71148263  0.00855430  1  0.030384  0  0.093895  0.14169  0  1.016449  0
C  C57  1  0.67923944  0.12433110  0.63572351  1  0.431997  0  0.019636  0.040449  0  3.93993  0
C  C58  1  0.32075828  0.87566829  0.36427595  1  0.432092  0  0.019665  0.040447  0  3.940062  0
C  C59  1  0.70698145  0.04947077  0.55249637  1  -0.08178  0  -0.121762  -0.177301  0  4.030518  0
C  C60  1  0.29302921  0.95053341  0.44750262  1  -0.081992  0  -0.121705  -0.177172  0  4.030402  0
C  C61  1  0.63625213  0.06912761  0.45966723  1  -0.027418  0  -0.108854  -0.185258  0  3.991529  0
C  C62  1  0.36375882  0.93087418  0.54033547  1  -0.027357  0  -0.108856  -0.185173  0  3.991248  0
C  C63  1  0.56768090  0.15644738  0.48864744  1  0.371998  0  0.070568  0.113593  0  4.076045  0
C  C64  1  0.43232160  0.84355282  0.51135461  1  0.371682  0  0.070555  0.113521  0  4.076014  0
C  C65  1  0.48065802  0.20289942  0.42100077  1  0.033325  0  0.029174  -0.007212  0  3.960294  0
C  C66  1  0.51934110  0.79710077  0.57900133  1  0.033479  0  0.02916  -0.007194  0  3.960525  0
C  C67  1  0.41998472  0.29021599  0.45515152  1  0.298482  0  0.071497  0.122814  0  4.040166  0
C  C68  1  0.58000906  0.70978181  0.54484818  1  0.298209  0  0.071504  0.12276  0  4.040162  0
C  C69  1  0.33438264  0.34316740  0.39074374  1  -0.115285  0  -0.106882  -0.179855  0  3.983288  0
C  C70  1  0.66562211  0.65683279  0.60925444  1  -0.115383  0  -0.10683  -0.179795  0  3.98329  0
C  C71  1  0.30969554  0.43018082  0.45927021  1  -0.045043  0  -0.11717  -0.156652  0  4.010776  0
C  C72  1  0.69031991  0.56982416  0.54072993  1  -0.044897  0  -0.117205  -0.156785  0  4.010894  0
C  C73  1  0.38113542  0.42978593  0.56414181  1  0.457884  0  0.031705  0.062447  0  3.90749  0
C  C74  1  0.61886905  0.57021346  0.43585825  1  0.45823  0  0.031767  0.062692  0  3.907262  0
C  C75  1  0.45236033  0.15652875  0.30503488  1  -0.03394  0  0.005859  0.047033  0  3.980112  0
C  C76  1  0.54763795  0.84346905  0.69496210  1  -0.033898  0  0.005868  0.047103  0  3.98008  0
C  C77  1  0.57323905  0.16134164  0.26421655  1  -0.091032  0  -0.058844  -0.068281  0  3.906651  0
C  C78  1  0.42676036  0.83865935  0.73578368  1  -0.091009  0  -0.058832  -0.068307  0  3.906547  0
C  C79  1  0.53945127  0.11797215  0.15440960  1  0.019949  0  -0.086319  -0.122709  0  3.981303  0
C  C80  1  0.46054898  0.88202805  0.84559201  1  0.01991  0  -0.086387  -0.122775  0  3.981375  0
C  C81  1  0.38574354  0.07064097  0.08821104  1  0.421008  0  0.037241  0.077838  0  3.957562  0
C  C82  1  0.61425783  0.92935923  0.91178864  1  0.421002  0  0.037191  0.0777  0  3.957518  0
C  C83  1  0.30134739  0.10640381  0.23241534  1  0.498657  0  0.043854  0.032371  0  3.913738  0
C  C84  1  0.69865061  0.89359638  0.76758153  1  0.498512  0  0.043854  0.032343  0  3.913555  0
C  C85  1  0.83503655  0.37646755  0.64792824  1  0.395062  0  0.023883  0.041573  0  3.926654  0
C  C86  1  0.16494259  0.62353025  0.35206071  1  0.395158  0  0.023828  0.041601  0  3.926643  0
C  C87  1  0.97512842  0.45748660  0.69255694  1  -0.080031  0  -0.116647  -0.174283  0  4.025554  0
C  C88  1  0.02485691  0.54250961  0.30743278  1  -0.081102  0  -0.116663  -0.174355  0  4.025617  0
C  C89  1  0.96619525  0.53096440  0.78211526  1  -0.077826  0  -0.106767  -0.18943  0  3.98537  0
C  C90  1  0.03379375  0.46902941  0.21787810  1  -0.077142  0  -0.106834  -0.189526  0  3.985161  0
C  C91  1  0.81921552  0.49363715  0.78925424  1  0.44062  0  0.073621  0.126692  0  4.050091  0
C  C92  1  0.18077826  0.50636065  0.21074115  1  0.440272  0  0.073602  0.126609  0  4.050112  0
C  C93  1  0.75443530  0.54580197  0.86213869  1  -0.01259  0  0.033537  0.003552  0  3.949939  0
C  C94  1  0.24556214  0.45419344  0.13786177  1  -0.012897  0  0.033572  0.003549  0  3.949913  0
C  C95  1  0.60055173  0.51478261  0.85486305  1  0.367805  0  0.072194  0.124024  0  4.04312  0
C  C96  1  0.39944796  0.48521279  0.14514000  1  0.367807  0  0.072194  0.124043  0  4.043273  0
C  C97  1  0.52077502  0.57515081  0.91484294  1  -0.020702  0  -0.106511  -0.176851  0  3.97937  0
C  C98  1  0.47922552  0.42484061  0.08516635  1  -0.020804  0  -0.106536  -0.176783  0  3.979377  0
C  C99  1  0.36733617  0.51849938  0.87302540  1  -0.060089  0  -0.122262  -0.175893  0  4.033658  0
C  C100  1  0.63266352  0.48149602  0.12698124  1  -0.060032  0  -0.122239  -0.175906  0  4.033628  0
C  C101  1  0.35633628  0.42416570  0.79007580  1  0.431998  0  0.027861  0.047871  0  3.921008  0
C  C102  1  0.64365834  0.57583130  0.20992455  1  0.432021  0  0.027889  0.047945  0  3.920938  0
C  C103  1  0.85201462  0.64285442  0.95386331  1  -0.043793  0  0.002962  0.033864  0  4.002329  0
C  C104  1  0.14798028  0.35714338  0.04613229  1  -0.043657  0  0.002973  0.03398  0  4.002432  0
C  C105  1  0.90724842  0.63734827  0.05657618  1  0.007981  0  -0.059376  -0.067476  0  3.905856  0
C  C106  1  0.09273972  0.36265591  0.94342561  1  0.000691  0  -0.059409  -0.067633  0  3.906027  0
C  C107  1  0.98523714  0.73044542  0.14339901  1  -0.039977  0  -0.077364  -0.105387  0  3.965439  0
C  C108  1  0.01475438  0.26955876  0.85659842  1  -0.039838  0  -0.07733  -0.105265  0  3.965323  0
C  C109  1  0.00445815  0.82692508  0.12521722  1  0.482388  0  0.046978  0.08398  0  3.949245  0
C  C110  1  0.99553731  0.17307751  0.87477479  1  0.482548  0  0.047115  0.084148  0  3.949293  0
C  C111  1  0.88439390  0.74247406  0.94267780  1  0.503944  0  0.048261  0.0381  0  3.922642  0
C  C112  1  0.11560748  0.25751975  0.05731438  1  0.504299  0  0.048337  0.038223  0  3.922368  0
C  C113  1  0.42417441  0.16861962  0.80913901  1  -0.076911  0  -0.16045  -0.479494  0  3.967957  0
C  C114  1  0.57582781  0.83138616  0.19086954  1  -0.076271  0  -0.160382  -0.479386  0  3.967816  0
C  C115  1  0.31938333  0.16411386  0.71138294  1  0.700424  0  0.123168  0.47059  0  4.015063  0
C  C116  1  0.68061777  0.83588553  0.28862292  1  0.7007  0  0.123138  0.470606  0  4.014675  0
C  C117  1  0.15692390  0.09478761  0.66865250  1  -0.121134  0  -0.243112  -0.480554  0  3.891925  0
C  C118  1  0.84308114  0.90520381  0.33135408  1  -0.121506  0  -0.243041  -0.480443  0  3.891918  0
C  C119  1  0.57977615  0.22672696  0.85383092  1  0.723305  0  0.12486  0.478597  0  3.987273  0
C  C120  1  0.42022495  0.77327882  0.14617382  1  0.723301  0  0.124789  0.478477  0  3.987317  0
C  C121  1  0.68101793  0.22527344  0.95954619  1  -0.089453  0  -0.242223  -0.471948  0  3.875094  0
C  C122  1  0.31899020  0.77473952  0.04045975  1  -0.089221  0  -0.242128  -0.471865  0  3.874685  0
N  N123  1  0.59739208  0.18862508  0.59823197  1  -1.137856  0  -0.358901  -0.259259  0  3.598453  0
N  N124  1  0.40260536  0.81137352  0.40176722  1  -1.137621  0  -0.358879  -0.259219  0  3.598365  0
N  N125  1  0.44508787  0.34613108  0.56220652  1  -1.100669  0  -0.346236  -0.243745  0  3.578179  0
N  N126  1  0.55490676  0.65386273  0.43779223  1  -1.100695  0  -0.346315  -0.243841  0  3.578088  0
N  N127  1  0.26892920  0.06431312  0.12669139  1  -1.257754  0  -0.329895  -0.235683  0  3.515889  0
N  N128  1  0.73107668  0.93568707  0.87330916  1  -1.257676  0  -0.32988  -0.235594  0  3.515652  0
N  N129  1  0.74176601  0.39787069  0.70527117  1  -1.114876  0  -0.346325  -0.244964  0  3.574091  0
N  N130  1  0.25822157  0.60212551  0.29472329  1  -1.114748  0  -0.346253  -0.244845  0  3.573974  0
N  N131  1  0.49464889  0.42221438  0.77855347  1  -1.148692  0  -0.356283  -0.256487  0  3.587102  0
N  N132  1  0.50534517  0.57778103  0.22144490  1  -1.148786  0  -0.356292  -0.256579  0  3.587329  0
N  N133  1  0.95752802  0.83228364  0.02663292  1  -1.237296  0  -0.327819  -0.219298  0  3.546248  0
N  N134  1  0.04247730  0.16771496  0.97335560  1  -1.237342  0  -0.327868  -0.219389  0  3.546349  0
Cl  Cl135  1  0.90877785  0.08107010  0.15766203  1  -0.708761  0  -0.372569  -0.571162  0  1.008653  0
Cl  Cl136  1  0.09122324  0.91893249  0.84232820  1  -0.708869  0  -0.37257  -0.57113  0  1.008654  0
O  O137  1  0.64911060  0.28122762  0.81093790  1  -1.049529  0  -0.268677  -0.411964  0  2.423113  0
O  O138  1  0.35088740  0.71877258  0.18906111  1  -1.049539  0  -0.268638  -0.411923  0  2.423115  0
O  O139  1  0.34825382  0.21644381  0.65226266  1  -1.049772  0  -0.271096  -0.406399  0  2.388602  0
O  O140  1  0.65174306  0.78355319  0.34774028  1  -1.04995  0  -0.271094  -0.406454  0  2.388486  0
