# generated using pymatgen
data_BaH4(CO3)2
_symmetry_space_group_name_H-M   'P 1'
_cell_length_a   7.04162052
_cell_length_b   7.49304436
_cell_length_c   11.11756206
_cell_angle_alpha   90.00048910
_cell_angle_beta   89.99900824
_cell_angle_gamma   105.06867551
_symmetry_Int_Tables_number   1
_chemical_formula_structural   BaH4(CO3)2
_chemical_formula_sum   'Ba4 H16 C8 O24'
_cell_volume   566.42765007
_cell_formula_units_Z   4
loop_
 _symmetry_equiv_pos_site_id
 _symmetry_equiv_pos_as_xyz
  1  'x, y, z'
loop_
 _atom_site_type_symbol
 _atom_site_label
 _atom_site_symmetry_multiplicity
 _atom_site_fract_x
 _atom_site_fract_y
 _atom_site_fract_z
 _atom_site_occupancy
 _atom_site_hle17_bader_spin_density
 _atom_site_hle17_ddec_charge
 _atom_site_hle17_ddec_spin_density
 _atom_site_hle17_ddec_sum_bond_order
 _atom_site_hle17_magmom
 _atom_site_hse06_10hf_bader_spin_density
 _atom_site_hse06_10hf_ddec_charge
 _atom_site_hse06_10hf_ddec_spin_density
 _atom_site_hse06_10hf_ddec_sum_bond_order
 _atom_site_hse06_10hf_magmom
 _atom_site_hse06_bader_spin_density
 _atom_site_hse06_ddec_charge
 _atom_site_hse06_ddec_spin_density
 _atom_site_hse06_ddec_sum_bond_order
 _atom_site_hse06_magmom
 _atom_site_pbe_bader_spin_density
 _atom_site_pbe_cm5_charge
 _atom_site_pbe_ddec_charge
 _atom_site_pbe_ddec_spin_density
 _atom_site_pbe_ddec_sum_bond_order
 _atom_site_pbe_magmom
Ba  Ba0  1  0.29299568  0.20174566  0.01066048  1  0  1.622657  0  1.129246  0  0  1.46765  0  1.520162  0  0  1.507815  0  1.478878  0  0  0.933183  1.437973  0  1.549909  0
Ba  Ba1  1  0.20700335  0.79825513  0.51066167  1  0  1.622662  0  1.129211  0  0  1.46767  0  1.5201  0  0  1.507837  0  1.478817  0  0  0.933218  1.437967  0  1.549836  0
Ba  Ba2  1  0.70700275  0.79825498  0.98933942  1  0  1.62268  0  1.129211  0  0  1.467666  0  1.520141  0  0  1.50783  0  1.47886  0  0  0.933189  1.437988  0  1.54989  0
Ba  Ba3  1  0.79299611  0.20174412  0.48933823  1  0  1.622676  0  1.129187  0  0  1.467678  0  1.520083  0  0  1.507845  0  1.4788  0  0  0.933223  1.437976  0  1.549819  0
H  H4  1  0.74301721  0.40198218  0.11042687  1  0  0.423587  0  0.876697  0  0  0.394228  0  0.938447  0  0  0.405349  0  0.92212  0  0  0.301899  0.386183  0  0.950267  0
H  H5  1  0.75697973  0.59801866  0.61042996  1  0  0.423596  0  0.87668  0  0  0.394241  0  0.938437  0  0  0.405365  0  0.922104  0  0  0.3019  0.386195  0  0.950255  0
H  H6  1  0.25698122  0.59801846  0.88957393  1  0  0.423583  0  0.876702  0  0  0.394231  0  0.938455  0  0  0.405356  0  0.922121  0  0  0.301899  0.386188  0  0.950272  0
H  H7  1  0.24302257  0.40198059  0.38956814  1  0  0.423591  0  0.876693  0  0  0.394257  0  0.938424  0  0  0.405383  0  0.922088  0  0  0.30191  0.386212  0  0.950241  0
H  H8  1  0.77853307  0.36014843  0.97560545  1  0  0.431398  0  0.86566  0  0  0.402164  0  0.925846  0  0  0.414206  0  0.908126  0  0  0.306455  0.393503  0  0.938621  0
H  H9  1  0.72146227  0.63985198  0.47560755  1  0  0.431392  0  0.865674  0  0  0.402171  0  0.925857  0  0  0.414218  0  0.908125  0  0  0.306437  0.393505  0  0.938637  0
H  H10  1  0.22146394  0.63985221  0.02439446  1  0  0.431353  0  0.865719  0  0  0.402111  0  0.92593  0  0  0.414156  0  0.908204  0  0  0.306419  0.393449  0  0.938707  0
H  H11  1  0.27853861  0.36014727  0.52439145  1  0  0.431421  0  0.865629  0  0  0.402213  0  0.925791  0  0  0.41426  0  0.90806  0  0  0.30646  0.393546  0  0.938572  0
H  H12  1  0.46816424  0.46324964  0.24565334  1  0  0.420912  0  0.882499  0  0  0.392243  0  0.942889  0  0  0.402697  0  0.927657  0  0  0.305093  0.384866  0  0.953629  0
H  H13  1  0.03183728  0.53675264  0.74565495  1  0  0.420765  0  0.882706  0  0  0.392204  0  0.942936  0  0  0.402659  0  0.927703  0  0  0.305089  0.384826  0  0.953677  0
H  H14  1  0.53183560  0.53675099  0.75434656  1  0  0.420912  0  0.882495  0  0  0.392243  0  0.942887  0  0  0.402697  0  0.927654  0  0  0.3051  0.384865  0  0.953628  0
H  H15  1  0.96816256  0.46324800  0.25434496  1  0  0.420765  0  0.882705  0  0  0.392208  0  0.942929  0  0  0.402662  0  0.927697  0  0  0.305095  0.384831  0  0.953669  0
H  H16  1  0.40701533  0.24985634  0.28463373  1  0  0.41172  0  0.900712  0  0  0.381365  0  0.963722  0  0  0.392993  0  0.946812  0  0  0.298319  0.373129  0  0.975683  0
H  H17  1  0.09298301  0.75014343  0.78463590  1  0  0.411748  0  0.900682  0  0  0.381415  0  0.963662  0  0  0.393042  0  0.946754  0  0  0.298361  0.37318  0  0.975623  0
H  H18  1  0.59298413  0.75014291  0.71536617  1  0  0.411715  0  0.90072  0  0  0.381361  0  0.963726  0  0  0.392989  0  0.946817  0  0  0.298326  0.373125  0  0.975688  0
H  H19  1  0.90701825  0.24985720  0.21536401  1  0  0.411728  0  0.900717  0  0  0.381392  0  0.963704  0  0  0.393019  0  0.946796  0  0  0.298343  0.373157  0  0.975665  0
C  C20  1  0.92515274  0.21167332  0.79947747  1  0  0.542822  0  3.949232  0  0  0.494139  0  4.251273  0  0  0.523299  0  4.244137  0  0  0.222321  0.474282  0  4.255488  0
C  C21  1  0.57483458  0.78833704  0.29948833  1  0  0.543071  0  3.948752  0  0  0.494255  0  4.250985  0  0  0.523498  0  4.243699  0  0  0.222484  0.474387  0  4.25522  0
C  C22  1  0.07484710  0.78832731  0.20052333  1  0  0.542824  0  3.949203  0  0  0.494135  0  4.251244  0  0  0.523296  0  4.244107  0  0  0.22231  0.47427  0  4.255476  0
C  C23  1  0.42516526  0.21166359  0.70051157  1  0  0.543043  0  3.948781  0  0  0.494201  0  4.251062  0  0  0.523448  0  4.24377  0  0  0.222459  0.474333  0  4.255295  0
C  C24  1  0.99006974  0.03977758  0.75272267  1  0  0.546247  0  3.937038  0  0  0.499014  0  4.237205  0  0  0.528352  0  4.23044  0  0  0.222839  0.479046  0  4.241089  0
C  C25  1  0.50992227  0.96022971  0.25273703  1  0  0.546079  0  3.93711  0  0  0.498912  0  4.237232  0  0  0.528231  0  4.230457  0  0  0.222741  0.478947  0  4.24112  0
C  C26  1  0.00992972  0.96022167  0.24727814  1  0  0.546163  0  3.93714  0  0  0.498941  0  4.237283  0  0  0.528279  0  4.230517  0  0  0.222793  0.478975  0  4.241169  0
C  C27  1  0.49007900  0.03977092  0.74726288  1  0  0.546091  0  3.937108  0  0  0.498931  0  4.237234  0  0  0.528249  0  4.230456  0  0  0.222763  0.478967  0  4.24112  0
O  O28  1  0.92725841  0.23320986  0.91260574  1  0  -0.653811  0  2.05658  0  0  -0.593933  0  2.28692  0  0  -0.618393  0  2.278469  0  0  -0.320294  -0.576709  0  2.292535  0
O  O29  1  0.57273260  0.76679430  0.41260661  1  0  -0.65386  0  2.056597  0  0  -0.593956  0  2.287049  0  0  -0.618444  0  2.278548  0  0  -0.320358  -0.576728  0  2.29267  0
O  O30  1  0.07274105  0.76678939  0.08739506  1  0  -0.653813  0  2.056613  0  0  -0.593909  0  2.286931  0  0  -0.618371  0  2.278483  0  0  -0.320277  -0.57668  0  2.292551  0
O  O31  1  0.42726827  0.23320495  0.58739330  1  0  -0.653872  0  2.05663  0  0  -0.593959  0  2.287078  0  0  -0.618448  0  2.278576  0  0  -0.320361  -0.576731  0  2.292694  0
O  O32  1  0.87767708  0.31614205  0.72210675  1  0  -0.634377  0  2.045958  0  0  -0.573002  0  2.276467  0  0  -0.597949  0  2.268823  0  0  -0.341533  -0.55543  0  2.281379  0
O  O33  1  0.62231996  0.68386503  0.22210570  1  0  -0.634562  0  2.045479  0  0  -0.573129  0  2.276062  0  0  -0.598104  0  2.268367  0  0  -0.34164  -0.55556  0  2.280989  0
O  O34  1  0.12232380  0.68385720  0.27789225  1  0  -0.634351  0  2.045889  0  0  -0.572999  0  2.276439  0  0  -0.597945  0  2.268795  0  0  -0.341527  -0.555424  0  2.281357  0
O  O35  1  0.37767949  0.31613422  0.77789420  1  0  -0.634523  0  2.045491  0  0  -0.573075  0  2.276078  0  0  -0.598051  0  2.268382  0  0  -0.341619  -0.555506  0  2.281004  0
O  O36  1  0.99722070  0.01512584  0.64084012  1  0  -0.655933  0  2.03151  0  0  -0.597395  0  2.277012  0  0  -0.622616  0  2.270512  0  0  -0.360655  -0.579726  0  2.281231  0
O  O37  1  0.50277352  0.98488350  0.14083850  1  0  -0.655952  0  2.031046  0  0  -0.597415  0  2.276507  0  0  -0.622642  0  2.270018  0  0  -0.360673  -0.57975  0  2.280736  0
O  O38  1  0.00277838  0.98487203  0.35915979  1  0  -0.655882  0  2.031553  0  0  -0.597359  0  2.277076  0  0  -0.62258  0  2.270577  0  0  -0.36064  -0.57969  0  2.281295  0
O  O39  1  0.49722594  0.01511575  0.85916140  1  0  -0.655969  0  2.031044  0  0  -0.597434  0  2.276512  0  0  -0.622662  0  2.270023  0  0  -0.360691  -0.579771  0  2.280741  0
O  O40  1  0.03434410  0.93783164  0.83453439  1  0  -0.689623  0  2.10525  0  0  -0.62388  0  2.337915  0  0  -0.650467  0  2.331326  0  0  -0.343403  -0.60516  0  2.342137  0
O  O41  1  0.46565335  0.06216984  0.33453680  1  0  -0.689484  0  2.105712  0  0  -0.623736  0  2.338344  0  0  -0.650326  0  2.331765  0  0  -0.34331  -0.605011  0  2.342555  0
O  O42  1  0.96565575  0.06216900  0.16546642  1  0  -0.689603  0  2.105256  0  0  -0.623862  0  2.337925  0  0  -0.65045  0  2.331336  0  0  -0.34339  -0.605142  0  2.342145  0
O  O43  1  0.53434611  0.93782941  0.66546311  1  0  -0.68949  0  2.105731  0  0  -0.623746  0  2.33837  0  0  -0.650336  0  2.331791  0  0  -0.343321  -0.605022  0  2.342581  0
O  O44  1  0.69398477  0.41665500  0.02765544  1  0  -0.904378  0  1.799521  0  0  -0.842886  0  1.980749  0  0  -0.864702  0  1.948305  0  0  -0.633484  -0.827238  0  2.003883  0
O  O45  1  0.80601184  0.58334669  0.52765611  1  0  -0.904374  0  1.799505  0  0  -0.842898  0  1.980624  0  0  -0.86472  0  1.948175  0  0  -0.633455  -0.827252  0  2.003766  0
O  O46  1  0.30601366  0.58334564  0.97234537  1  0  -0.904326  0  1.799557  0  0  -0.842848  0  1.980707  0  0  -0.864667  0  1.948259  0  0  -0.633446  -0.827199  0  2.003845  0
O  O47  1  0.19399085  0.41665393  0.47234200  1  0  -0.904407  0  1.799499  0  0  -0.842961  0  1.980583  0  0  -0.864783  0  1.948127  0  0  -0.633497  -0.827314  0  2.003728  0
O  O48  1  0.35455807  0.35271161  0.25214608  1  0  -0.861206  0  1.823947  0  0  -0.799717  0  1.988374  0  0  -0.820597  0  1.957022  0  0  -0.590737  -0.784708  0  2.010473  0
O  O49  1  0.14544162  0.64729487  0.75214887  1  0  -0.861109  0  1.824086  0  0  -0.799721  0  1.98834  0  0  -0.8206  0  1.956988  0  0  -0.590787  -0.784715  0  2.01044  0
O  O50  1  0.64544178  0.64728903  0.74785383  1  0  -0.8612  0  1.823957  0  0  -0.799705  0  1.988378  0  0  -0.820583  0  1.957028  0  0  -0.590754  -0.784697  0  2.010477  0
O  O51  1  0.85455823  0.35270576  0.24785013  1  0  -0.861097  0  1.824113  0  0  -0.799714  0  1.988362  0  0  -0.820591  0  1.957012  0  0  -0.590773  -0.784707  0  2.01046  0
