# generated using pymatgen
data_LiH5(C2O3)2
_symmetry_space_group_name_H-M   'P 1'
_cell_length_a   5.07336736
_cell_length_b   7.52714884
_cell_length_c   8.33121059
_cell_angle_alpha   89.99958165
_cell_angle_beta   90.00035657
_cell_angle_gamma   107.97942504
_symmetry_Int_Tables_number   1
_chemical_formula_structural   LiH5(C2O3)2
_chemical_formula_sum   'Li2 H10 C8 O12'
_cell_volume   302.61600561
_cell_formula_units_Z   2
loop_
 _symmetry_equiv_pos_site_id
 _symmetry_equiv_pos_as_xyz
  1  'x, y, z'
loop_
 _atom_site_type_symbol
 _atom_site_label
 _atom_site_symmetry_multiplicity
 _atom_site_fract_x
 _atom_site_fract_y
 _atom_site_fract_z
 _atom_site_occupancy
 _atom_site_hle17_bader_spin_density
 _atom_site_hle17_ddec_charge
 _atom_site_hle17_ddec_spin_density
 _atom_site_hle17_ddec_sum_bond_order
 _atom_site_hle17_magmom
 _atom_site_hse06_10hf_bader_spin_density
 _atom_site_hse06_10hf_ddec_charge
 _atom_site_hse06_10hf_ddec_spin_density
 _atom_site_hse06_10hf_ddec_sum_bond_order
 _atom_site_hse06_10hf_magmom
 _atom_site_hse06_bader_spin_density
 _atom_site_hse06_ddec_charge
 _atom_site_hse06_ddec_spin_density
 _atom_site_hse06_ddec_sum_bond_order
 _atom_site_hse06_magmom
 _atom_site_pbe_bader_spin_density
 _atom_site_pbe_cm5_charge
 _atom_site_pbe_ddec_charge
 _atom_site_pbe_ddec_spin_density
 _atom_site_pbe_ddec_sum_bond_order
 _atom_site_pbe_magmom
Li  Li0  1  0.43168147  0.82558158  0.24813688  1  0  0.855384  0  0.391605  0  0  0.812038  0  0.50163  0  0  0.821975  0  0.484648  0  0  0.500511  0.804699  0  0.513963  0
Li  Li1  1  0.56832960  0.17442538  0.74813923  1  0  0.855381  0  0.39159  0  0  0.812008  0  0.501659  0  0  0.82195  0  0.484673  0  0  0.500525  0.804676  0  0.513991  0
H  H2  1  0.84459876  0.70504871  0.01297609  1  0  0.096087  0  0.893293  0  0  0.102271  0  0.950806  0  0  0.104388  0  0.949921  0  0  0.135988  0.100746  0  0.95158  0
H  H3  1  0.15540626  0.29495441  0.51296141  1  0  0.095995  0  0.893234  0  0  0.102118  0  0.950874  0  0  0.104231  0  0.949985  0  0  0.135932  0.100606  0  0.951651  0
H  H4  1  0.93224230  0.75121592  0.72334927  1  0  0.093553  0  0.897464  0  0  0.099889  0  0.956016  0  0  0.102654  0  0.953939  0  0  0.126132  0.097876  0  0.957718  0
H  H5  1  0.06774872  0.24878272  0.22333860  1  0  0.09355  0  0.897419  0  0  0.099894  0  0.95595  0  0  0.102661  0  0.953872  0  0  0.126102  0.097874  0  0.957651  0
H  H6  1  0.12360987  0.36130068  0.87465763  1  0  0.404396  0  0.876949  0  0  0.373882  0  0.954285  0  0  0.386808  0  0.940533  0  0  0.314477  0.364802  0  0.963858  0
H  H7  1  0.87639823  0.63869911  0.37464173  1  0  0.404333  0  0.876991  0  0  0.3739  0  0.954194  0  0  0.386828  0  0.940441  0  0  0.314479  0.36482  0  0.963769  0
H  H8  1  0.41158782  0.87003625  0.95211599  1  0  0.394829  0  0.88479  0  0  0.36819  0  0.960485  0  0  0.378896  0  0.947669  0  0  0.317001  0.36057  0  0.969614  0
H  H9  1  0.58841375  0.12996343  0.45211523  1  0  0.394812  0  0.884815  0  0  0.36818  0  0.9605  0  0  0.378891  0  0.947681  0  0  0.317  0.360564  0  0.969624  0
H  H10  1  0.65171198  0.87479101  0.57531729  1  0  0.373428  0  0.917385  0  0  0.351978  0  0.985484  0  0  0.361856  0  0.974361  0  0  0.307626  0.345028  0  0.993327  0
H  H11  1  0.34828501  0.12520505  0.07531637  1  0  0.373832  0  0.916929  0  0  0.352088  0  0.985466  0  0  0.36197  0  0.974328  0  0  0.307686  0.345139  0  0.9933  0
C  C12  1  0.49794649  0.53065941  0.88417905  1  0  0.675516  0  3.751898  0  0  0.626174  0  4.054758  0  0  0.658841  0  4.044902  0  0  0.2508  0.603877  0  4.061139  0
C  C13  1  0.50207239  0.46932917  0.38417516  1  0  0.67526  0  3.751537  0  0  0.625786  0  4.054645  0  0  0.658519  0  4.044704  0  0  0.25061  0.603459  0  4.061077  0
C  C14  1  0.67981274  0.72477142  0.93591983  1  0  0.084513  0  3.628749  0  0  0.062451  0  3.874767  0  0  0.062782  0  3.882923  0  0  0.017404  0.062031  0  3.869542  0
C  C15  1  0.32018851  0.27523248  0.43590793  1  0  0.08481  0  3.62846  0  0  0.062766  0  3.874515  0  0  0.063096  0  3.882649  0  0  0.017493  0.062313  0  3.869331  0
C  C16  1  0.81086412  0.83107789  0.78299205  1  0  0.041003  0  3.660416  0  0  0.015782  0  3.91585  0  0  0.016526  0  3.922804  0  0  0.001097  0.015009  0  3.91146  0
C  C17  1  0.18912665  0.16891786  0.28298820  1  0  0.040932  0  3.6604  0  0  0.015778  0  3.915696  0  0  0.016515  0  3.922649  0  0  0.001152  0.015029  0  3.911267  0
C  C18  1  0.00958574  0.02219134  0.83137608  1  0  0.683819  0  3.808631  0  0  0.627695  0  4.119865  0  0  0.660666  0  4.110107  0  0  0.237399  0.605277  0  4.125914  0
C  C19  1  0.99038876  0.97780995  0.33137763  1  0  0.684002  0  3.808438  0  0  0.627833  0  4.119786  0  0  0.66081  0  4.110026  0  0  0.237596  0.605413  0  4.125831  0
O  O20  1  0.23260924  0.49173810  0.91793531  1  0  -0.519121  0  2.087281  0  0  -0.470174  0  2.302969  0  0  -0.491892  0  2.287301  0  0  -0.304329  -0.455125  0  2.313404  0
O  O21  1  0.76740416  0.50826720  0.41792289  1  0  -0.518915  0  2.087562  0  0  -0.469969  0  2.30323  0  0  -0.491708  0  2.28754  0  0  -0.304193  -0.454915  0  2.313684  0
O  O22  1  0.60472444  0.42535245  0.81460024  1  0  -0.630339  0  1.981983  0  0  -0.598784  0  2.221278  0  0  -0.618392  0  2.20945  0  0  -0.356175  -0.585253  0  2.229181  0
O  O23  1  0.39524373  0.57466145  0.31458452  1  0  -0.63038  0  1.981182  0  0  -0.59875  0  2.220514  0  0  -0.618389  0  2.208663  0  0  -0.356147  -0.585196  0  2.228423  0
O  O24  1  0.53791342  0.82804091  0.02384418  1  0  -0.616341  0  2.126207  0  0  -0.580052  0  2.364776  0  0  -0.592701  0  2.35035  0  0  -0.453441  -0.571014  0  2.374856  0
O  O25  1  0.46209570  0.17196638  0.52384286  1  0  -0.616424  0  2.1263  0  0  -0.580094  0  2.3648  0  0  -0.592759  0  2.350368  0  0  -0.453435  -0.571044  0  2.374885  0
O  O26  1  0.58721641  0.84612045  0.68764440  1  0  -0.564858  0  2.088048  0  0  -0.527712  0  2.311722  0  0  -0.541311  0  2.300212  0  0  -0.396626  -0.517918  0  2.319449  0
O  O27  1  0.41278769  0.15388661  0.18763608  1  0  -0.565195  0  2.087772  0  0  -0.527839  0  2.311681  0  0  -0.541452  0  2.300206  0  0  -0.396725  -0.518045  0  2.31938  0
O  O28  1  0.24231535  0.02631860  0.89207682  1  0  -0.707747  0  2.0796  0  0  -0.652908  0  2.321173  0  0  -0.677306  0  2.308971  0  0  -0.344599  -0.635854  0  2.329125  0
O  O29  1  0.75769369  0.97368255  0.39208061  1  0  -0.707508  0  2.079841  0  0  -0.652782  0  2.321466  0  0  -0.677177  0  2.309259  0  0  -0.34455  -0.635736  0  2.329424  0
O  O30  1  0.93419985  0.16613473  0.80971750  1  0  -0.664187  0  2.006255  0  0  -0.61068  0  2.238787  0  0  -0.633747  0  2.225839  0  0  -0.353269  -0.594714  0  2.247357  0
O  O31  1  0.06579610  0.83384979  0.30970997  1  0  -0.664421  0  2.005942  0  0  -0.610959  0  2.238503  0  0  -0.634029  0  2.225556  0  0  -0.353522  -0.594993  0  2.247078  0
