# generated using pymatgen
data_BaH10C10(N6O)2
_symmetry_space_group_name_H-M   'P 1'
_cell_length_a   9.57042936
_cell_length_b   11.55132707
_cell_length_c   15.79058189
_cell_angle_alpha   89.99996314
_cell_angle_beta   89.99838773
_cell_angle_gamma   90.00038098
_symmetry_Int_Tables_number   1
_chemical_formula_structural   BaH10C10(N6O)2
_chemical_formula_sum   'Ba4 H40 C40 N48 O8'
_cell_volume   1745.66714064
_cell_formula_units_Z   4
loop_
 _symmetry_equiv_pos_site_id
 _symmetry_equiv_pos_as_xyz
  1  'x, y, z'
loop_
 _atom_site_type_symbol
 _atom_site_label
 _atom_site_symmetry_multiplicity
 _atom_site_fract_x
 _atom_site_fract_y
 _atom_site_fract_z
 _atom_site_occupancy
 _atom_site_hle17_bader_spin_density
 _atom_site_hle17_ddec_charge
 _atom_site_hle17_ddec_spin_density
 _atom_site_hle17_ddec_sum_bond_order
 _atom_site_hle17_magmom
 _atom_site_hse06_10hf_bader_spin_density
 _atom_site_hse06_10hf_ddec_charge
 _atom_site_hse06_10hf_ddec_spin_density
 _atom_site_hse06_10hf_ddec_sum_bond_order
 _atom_site_hse06_10hf_magmom
 _atom_site_hse06_bader_spin_density
 _atom_site_hse06_ddec_charge
 _atom_site_hse06_ddec_spin_density
 _atom_site_hse06_ddec_sum_bond_order
 _atom_site_hse06_magmom
 _atom_site_pbe_bader_spin_density
 _atom_site_pbe_cm5_charge
 _atom_site_pbe_ddec_charge
 _atom_site_pbe_ddec_spin_density
 _atom_site_pbe_ddec_sum_bond_order
 _atom_site_pbe_magmom
Ba  Ba0  1  0.50000040  0.03834757  0.75001802  1  0  1.394346  0  1.374584  0  0  1.167301  0  1.818221  0  0  1.210796  0  1.780213  0  0  0.947985  1.135763  0  1.844988  0
Ba  Ba1  1  0.00001380  0.46165167  0.24998872  1  0  1.394304  0  1.374672  0  0  1.167245  0  1.8183  0  0  1.210772  0  1.780249  0  0  0.947975  1.135754  0  1.84505  0
Ba  Ba2  1  0.50001099  0.96165284  0.25001268  1  0  1.394273  0  1.374828  0  0  1.167275  0  1.818359  0  0  1.210873  0  1.780214  0  0  0.948046  1.135809  0  1.845098  0
Ba  Ba3  1  0.00000797  0.53834578  0.74999243  1  0  1.394358  0  1.374685  0  0  1.167331  0  1.818282  0  0  1.210833  0  1.780276  0  0  0.948033  1.135829  0  1.845033  0
H  H4  1  0.42628937  0.78242813  0.57766502  1  0  0.075232  0  0.922692  0  0  0.088065  0  0.977161  0  0  0.090215  0  0.975314  0  0  0.125777  0.086352  0  0.978695  0
H  H5  1  0.07364963  0.71751863  0.07760485  1  0  0.075324  0  0.92255  0  0  0.087974  0  0.977212  0  0  0.090186  0  0.975291  0  0  0.12576  0.08626  0  0.978746  0
H  H6  1  0.57368037  0.78247178  0.92235085  1  0  0.075329  0  0.922478  0  0  0.088127  0  0.977018  0  0  0.0903  0  0.975139  0  0  0.125801  0.086413  0  0.978554  0
H  H7  1  0.92626605  0.71755051  0.42231936  1  0  0.075212  0  0.922646  0  0  0.087964  0  0.977204  0  0  0.090178  0  0.975283  0  0  0.125754  0.086251  0  0.978736  0
H  H8  1  0.57368440  0.21752121  0.42236378  1  0  0.075342  0  0.922529  0  0  0.088031  0  0.977168  0  0  0.090248  0  0.975239  0  0  0.125797  0.086317  0  0.978703  0
H  H9  1  0.92629906  0.28248178  0.92236125  1  0  0.075327  0  0.922604  0  0  0.088003  0  0.97726  0  0  0.090216  0  0.975339  0  0  0.125761  0.08629  0  0.978793  0
H  H10  1  0.42630803  0.21754681  0.07766212  1  0  0.07527  0  0.922643  0  0  0.088137  0  0.977092  0  0  0.090274  0  0.975261  0  0  0.125832  0.086424  0  0.978625  0
H  H11  1  0.07369310  0.28246115  0.57765055  1  0  0.07531  0  0.922494  0  0  0.088117  0  0.97702  0  0  0.090293  0  0.975144  0  0  0.125799  0.086403  0  0.978556  0
H  H12  1  0.49333266  0.58267553  0.53100125  1  0  0.119155  0  0.955602  0  0  0.12538  0  1.021987  0  0  0.129331  0  1.019522  0  0  0.114594  0.122481  0  1.02404  0
H  H13  1  0.00665340  0.91729375  0.03096111  1  0  0.119177  0  0.955456  0  0  0.125348  0  1.021893  0  0  0.129294  0  1.019438  0  0  0.114561  0.122451  0  1.023941  0
H  H14  1  0.50667113  0.58269539  0.96899450  1  0  0.119209  0  0.955536  0  0  0.125405  0  1.021989  0  0  0.129356  0  1.019523  0  0  0.114635  0.122506  0  1.024042  0
H  H15  1  0.99328780  0.91731390  0.46898133  1  0  0.119152  0  0.955521  0  0  0.125351  0  1.021913  0  0  0.129302  0  1.019449  0  0  0.11464  0.122453  0  1.023966  0
H  H16  1  0.50668186  0.41729891  0.46900981  1  0  0.119232  0  0.955473  0  0  0.125387  0  1.021929  0  0  0.129332  0  1.019474  0  0  0.114607  0.122489  0  1.023978  0
H  H17  1  0.99331306  0.08272137  0.96903476  1  0  0.119062  0  0.955456  0  0  0.125247  0  1.021892  0  0  0.129194  0  1.019435  0  0  0.114507  0.122349  0  1.023941  0
H  H18  1  0.49331727  0.41731368  0.03100834  1  0  0.119292  0  0.955406  0  0  0.125498  0  1.021814  0  0  0.129452  0  1.019341  0  0  0.114641  0.1226  0  1.023867  0
H  H19  1  0.00666089  0.08269171  0.53099808  1  0  0.119187  0  0.955545  0  0  0.125348  0  1.022041  0  0  0.129295  0  1.019586  0  0  0.114631  0.122451  0  1.024092  0
H  H20  1  0.71323846  0.49595539  0.59524779  1  0  0.080112  0  0.911901  0  0  0.090783  0  0.970313  0  0  0.093436  0  0.967612  0  0  0.127606  0.088767  0  0.972379  0
H  H21  1  0.78678701  0.00404514  0.09524105  1  0  0.080046  0  0.911926  0  0  0.090755  0  0.97028  0  0  0.093415  0  0.967562  0  0  0.127595  0.088739  0  0.97235  0
H  H22  1  0.28679498  0.49595753  0.90473789  1  0  0.07989  0  0.912108  0  0  0.090706  0  0.970358  0  0  0.093366  0  0.967644  0  0  0.127538  0.088688  0  0.97243  0
H  H23  1  0.21319130  0.00404424  0.40473623  1  0  0.079964  0  0.912064  0  0  0.090801  0  0.970305  0  0  0.09346  0  0.967584  0  0  0.12753  0.088783  0  0.972375  0
H  H24  1  0.28682099  0.50404502  0.40473921  1  0  0.079901  0  0.912138  0  0  0.090791  0  0.970302  0  0  0.093455  0  0.967579  0  0  0.12753  0.088774  0  0.972375  0
H  H25  1  0.21320453  0.99597778  0.90477888  1  0  0.080013  0  0.911884  0  0  0.090809  0  0.970179  0  0  0.093468  0  0.967461  0  0  0.127623  0.088791  0  0.972251  0
H  H26  1  0.71321849  0.50404461  0.09525165  1  0  0.080077  0  0.911848  0  0  0.090704  0  0.970312  0  0  0.093358  0  0.967609  0  0  0.127554  0.088689  0  0.972378  0
H  H27  1  0.78676680  0.99597262  0.59525267  1  0  0.079998  0  0.912069  0  0  0.090731  0  0.970378  0  0  0.093383  0  0.967678  0  0  0.127578  0.088717  0  0.972444  0
H  H28  1  0.32060574  0.00658622  0.57845847  1  0  0.39531  0  0.911842  0  0  0.357265  0  0.991221  0  0  0.368232  0  0.975206  0  0  0.294483  0.349535  0  1.002483  0
H  H29  1  0.17943819  0.49344339  0.07843552  1  0  0.39528  0  0.911789  0  0  0.357204  0  0.991316  0  0  0.368168  0  0.975304  0  0  0.294419  0.349474  0  1.002578  0
H  H30  1  0.67943034  0.00654999  0.92155733  1  0  0.395228  0  0.911906  0  0  0.357178  0  0.991343  0  0  0.368144  0  0.975331  0  0  0.294462  0.349447  0  1.002607  0
H  H31  1  0.82059599  0.49342877  0.42155155  1  0  0.395392  0  0.911605  0  0  0.357335  0  0.991115  0  0  0.368302  0  0.9751  0  0  0.294553  0.349606  0  1.002377  0
H  H32  1  0.67941296  0.99344795  0.42155830  1  0  0.395342  0  0.911752  0  0  0.3573  0  0.991175  0  0  0.368266  0  0.975162  0  0  0.294484  0.349569  0  1.002439  0
H  H33  1  0.82059828  0.50659079  0.92156668  1  0  0.395531  0  0.91153  0  0  0.357502  0  0.990889  0  0  0.368468  0  0.974875  0  0  0.294598  0.349772  0  1.002152  0
H  H34  1  0.32059672  0.99341060  0.07845121  1  0  0.395484  0  0.911583  0  0  0.35744  0  0.99099  0  0  0.368407  0  0.974975  0  0  0.294538  0.349709  0  1.002254  0
H  H35  1  0.17941540  0.50653961  0.57843546  1  0  0.395292  0  0.911752  0  0  0.357266  0  0.991188  0  0  0.36823  0  0.975177  0  0  0.294498  0.349538  0  1.002449  0
H  H36  1  0.46264756  0.95954122  0.54464433  1  0  0.402968  0  0.873681  0  0  0.378532  0  0.945788  0  0  0.387353  0  0.935085  0  0  0.30402  0.372289  0  0.953279  0
H  H37  1  0.03735668  0.54037178  0.04458302  1  0  0.403082  0  0.87375  0  0  0.378694  0  0.94571  0  0  0.387513  0  0.935015  0  0  0.303999  0.372462  0  0.953178  0
H  H38  1  0.53735902  0.95962014  0.95543411  1  0  0.402934  0  0.873742  0  0  0.378533  0  0.945744  0  0  0.387356  0  0.935043  0  0  0.303919  0.372298  0  0.95321  0
H  H39  1  0.96264650  0.54044196  0.45537932  1  0  0.402988  0  0.873636  0  0  0.378541  0  0.945771  0  0  0.38736  0  0.935075  0  0  0.304012  0.372299  0  0.953267  0
H  H40  1  0.53733457  0.04036396  0.45543260  1  0  0.402925  0  0.873827  0  0  0.378517  0  0.945866  0  0  0.387338  0  0.935169  0  0  0.303884  0.37228  0  0.953338  0
H  H41  1  0.96264948  0.45956370  0.95537295  1  0  0.403027  0  0.873589  0  0  0.378599  0  0.945677  0  0  0.387416  0  0.934982  0  0  0.304033  0.372361  0  0.953164  0
H  H42  1  0.46264087  0.04044606  0.04463079  1  0  0.402992  0  0.873545  0  0  0.378559  0  0.945655  0  0  0.387381  0  0.934952  0  0  0.304062  0.372317  0  0.953141  0
H  H43  1  0.03734086  0.45960779  0.54457222  1  0  0.402981  0  0.873742  0  0  0.378559  0  0.945809  0  0  0.387382  0  0.935107  0  0  0.303979  0.372324  0  0.953279  0
C  C44  1  0.77593722  0.80136721  0.76502872  1  0  0.189239  0  3.830073  0  0  0.164407  0  4.102907  0  0  0.169735  0  4.120768  0  0  0.215357  0.160508  0  4.091143  0
C  C45  1  0.72406754  0.69861706  0.26501723  1  0  0.189096  0  3.829906  0  0  0.164342  0  4.102511  0  0  0.169672  0  4.120352  0  0  0.215212  0.160441  0  4.09075  0
C  C46  1  0.22406297  0.80138376  0.73497004  1  0  0.189378  0  3.829977  0  0  0.164319  0  4.103059  0  0  0.169615  0  4.12096  0  0  0.21529  0.16042  0  4.091297  0
C  C47  1  0.27593368  0.69863478  0.23496082  1  0  0.189548  0  3.829593  0  0  0.164528  0  4.102813  0  0  0.169822  0  4.120709  0  0  0.215384  0.160629  0  4.091052  0
C  C48  1  0.22407626  0.19862022  0.23497602  1  0  0.189141  0  3.830314  0  0  0.164366  0  4.103001  0  0  0.169708  0  4.120848  0  0  0.21533  0.160464  0  4.09124  0
C  C49  1  0.27592608  0.30136084  0.73497293  1  0  0.189376  0  3.829709  0  0  0.164498  0  4.10236  0  0  0.169828  0  4.120218  0  0  0.215406  0.160598  0  4.090596  0
C  C50  1  0.77593483  0.19863050  0.26503153  1  0  0.189473  0  3.829876  0  0  0.164433  0  4.102958  0  0  0.169733  0  4.120843  0  0  0.21535  0.160533  0  4.091198  0
C  C51  1  0.72406830  0.30138294  0.76504075  1  0  0.189452  0  3.829982  0  0  0.164172  0  4.103414  0  0  0.169454  0  4.121324  0  0  0.21526  0.160278  0  4.09164  0
C  C52  1  0.70419260  0.74432161  0.69480079  1  0  0.343972  0  3.765784  0  0  0.329185  0  4.018169  0  0  0.343903  0  4.030405  0  0  0.266963  0.319276  0  4.010032  0
C  C53  1  0.79578713  0.75566874  0.19477599  1  0  0.343974  0  3.765811  0  0  0.329351  0  4.017952  0  0  0.3441  0  4.030136  0  0  0.267047  0.319443  0  4.009815  0
C  C54  1  0.29579672  0.74433683  0.80520371  1  0  0.344162  0  3.765456  0  0  0.329446  0  4.017849  0  0  0.344192  0  4.030053  0  0  0.266975  0.319535  0  4.009714  0
C  C55  1  0.20418421  0.75567822  0.30518999  1  0  0.344047  0  3.765638  0  0  0.329065  0  4.018404  0  0  0.343825  0  4.030588  0  0  0.266887  0.319154  0  4.010271  0
C  C56  1  0.29581252  0.25566494  0.30520964  1  0  0.344034  0  3.765635  0  0  0.329271  0  4.017921  0  0  0.34398  0  4.030162  0  0  0.266885  0.319364  0  4.009785  0
C  C57  1  0.20418455  0.24432388  0.80521482  1  0  0.343735  0  3.765832  0  0  0.329383  0  4.017619  0  0  0.3441  0  4.029845  0  0  0.26687  0.319477  0  4.009482  0
C  C58  1  0.70420736  0.25567656  0.19479976  1  0  0.343854  0  3.765967  0  0  0.329169  0  4.018333  0  0  0.343929  0  4.030519  0  0  0.266914  0.319259  0  4.010198  0
C  C59  1  0.79580837  0.24433518  0.69480777  1  0  0.344061  0  3.765807  0  0  0.329347  0  4.018374  0  0  0.344112  0  4.030553  0  0  0.266971  0.319434  0  4.010237  0
C  C60  1  0.51890412  0.73997959  0.60351888  1  0  0.185741  0  3.696881  0  0  0.155157  0  3.955831  0  0  0.165082  0  3.970423  0  0  0.075811  0.148846  0  3.946017  0
C  C61  1  0.98105991  0.75998743  0.10347184  1  0  0.185687  0  3.69684  0  0  0.155196  0  3.955818  0  0  0.165076  0  3.970402  0  0  0.075713  0.148883  0  3.946005  0
C  C62  1  0.48107890  0.74001058  0.89649195  1  0  0.185864  0  3.696631  0  0  0.155252  0  3.955682  0  0  0.165164  0  3.970273  0  0  0.075895  0.148938  0  3.945872  0
C  C63  1  0.01888117  0.76000702  0.39646564  1  0  0.18569  0  3.696794  0  0  0.155131  0  3.955704  0  0  0.165004  0  3.9703  0  0  0.075904  0.148822  0  3.945888  0
C  C64  1  0.48108637  0.25998359  0.39650105  1  0  0.185816  0  3.696801  0  0  0.155317  0  3.955761  0  0  0.165197  0  3.970345  0  0  0.075835  0.149004  0  3.94595  0
C  C65  1  0.01890446  0.24002251  0.89650566  1  0  0.185833  0  3.696932  0  0  0.155328  0  3.95595  0  0  0.165207  0  3.970532  0  0  0.075932  0.149019  0  3.946135  0
C  C66  1  0.51891055  0.26000541  0.10351468  1  0  0.185888  0  3.696588  0  0  0.155214  0  3.955648  0  0  0.165148  0  3.970246  0  0  0.075803  0.148903  0  3.945831  0
C  C67  1  0.98108947  0.24000031  0.60351377  1  0  0.185841  0  3.696395  0  0  0.155209  0  3.955456  0  0  0.165112  0  3.97005  0  0  0.075858  0.148899  0  3.945645  0
C  C68  1  0.55536661  0.62893532  0.57741950  1  0  -0.157365  0  3.7158  0  0  -0.179117  0  3.983344  0  0  -0.187869  0  4.00195  0  0  -0.074434  -0.173613  0  3.970952  0
C  C69  1  0.94461740  0.87103777  0.07738569  1  0  -0.157682  0  3.715918  0  0  -0.179311  0  3.983408  0  0  -0.188067  0  4.002036  0  0  -0.074577  -0.173807  0  3.971012  0
C  C70  1  0.44463334  0.62895743  0.92258191  1  0  -0.157432  0  3.715551  0  0  -0.179184  0  3.983151  0  0  -0.187944  0  4.001772  0  0  -0.074539  -0.173674  0  3.970754  0
C  C71  1  0.05533494  0.87105584  0.42256628  1  0  -0.15734  0  3.715585  0  0  -0.179022  0  3.983052  0  0  -0.187778  0  4.001683  0  0  -0.07459  -0.173519  0  3.970657  0
C  C72  1  0.44464582  0.37103998  0.42258903  1  0  -0.157526  0  3.715812  0  0  -0.179225  0  3.983413  0  0  -0.187984  0  4.002044  0  0  -0.074563  -0.173722  0  3.971017  0
C  C73  1  0.05535741  0.12897476  0.92260765  1  0  -0.157173  0  3.715663  0  0  -0.17883  0  3.983217  0  0  -0.187586  0  4.001853  0  0  -0.074411  -0.173327  0  3.97082  0
C  C74  1  0.55536237  0.37105250  0.07742092  1  0  -0.157586  0  3.715592  0  0  -0.179289  0  3.983152  0  0  -0.188042  0  4.001753  0  0  -0.074519  -0.173782  0  3.970756  0
C  C75  1  0.94463047  0.12895409  0.57741629  1  0  -0.157354  0  3.715362  0  0  -0.179085  0  3.983041  0  0  -0.187839  0  4.001655  0  0  -0.074522  -0.173579  0  3.970646  0
C  C76  1  0.67559535  0.58196531  0.61297764  1  0  0.188444  0  3.686708  0  0  0.155984  0  3.943164  0  0  0.165764  0  3.95837  0  0  0.078878  0.149737  0  3.932606  0
C  C77  1  0.82440482  0.91802508  0.11296362  1  0  0.188568  0  3.686816  0  0  0.156058  0  3.943238  0  0  0.165839  0  3.95845  0  0  0.078928  0.149808  0  3.932682  0
C  C78  1  0.32441680  0.58197547  0.88701431  1  0  0.18869  0  3.686562  0  0  0.156169  0  3.942977  0  0  0.165948  0  3.958186  0  0  0.079072  0.149919  0  3.932417  0
C  C79  1  0.17556668  0.91802916  0.38700984  1  0  0.18856  0  3.686839  0  0  0.155971  0  3.943219  0  0  0.165751  0  3.958432  0  0  0.079066  0.149721  0  3.932661  0
C  C80  1  0.32443589  0.41802731  0.38702202  1  0  0.18857  0  3.686782  0  0  0.155979  0  3.943183  0  0  0.165756  0  3.958394  0  0  0.079025  0.14973  0  3.932623  0
C  C81  1  0.17558254  0.08198572  0.88704491  1  0  0.188124  0  3.686891  0  0  0.155533  0  3.943433  0  0  0.165311  0  3.95864  0  0  0.078718  0.149285  0  3.932878  0
C  C82  1  0.67558937  0.41802841  0.11298093  1  0  0.18854  0  3.686668  0  0  0.156118  0  3.943086  0  0  0.165897  0  3.958299  0  0  0.078992  0.149866  0  3.932527  0
C  C83  1  0.82440500  0.08197991  0.61298413  1  0  0.18847  0  3.686621  0  0  0.156021  0  3.943012  0  0  0.165803  0  3.958214  0  0  0.078987  0.14977  0  3.932454  0
N  N84  1  0.59205648  0.79898341  0.66163958  1  0  -0.401694  0  3.051999  0  0  -0.354771  0  3.311648  0  0  -0.37138  0  3.326341  0  0  -0.313438  -0.343954  0  3.302002  0
N  N85  1  0.90789864  0.70098705  0.16160019  1  0  -0.401468  0  3.051588  0  0  -0.354664  0  3.31125  0  0  -0.371291  0  3.325956  0  0  -0.313196  -0.343852  0  3.301616  0
N  N86  1  0.40791966  0.79901139  0.83837058  1  0  -0.401927  0  3.051853  0  0  -0.355014  0  3.311585  0  0  -0.371633  0  3.326272  0  0  -0.313487  -0.344191  0  3.301944  0
N  N87  1  0.09204513  0.70100970  0.33834683  1  0  -0.401686  0  3.052136  0  0  -0.354601  0  3.311692  0  0  -0.371228  0  3.326403  0  0  -0.313371  -0.343778  0  3.302038  0
N  N88  1  0.40793192  0.20099017  0.33838162  1  0  -0.401709  0  3.051762  0  0  -0.354814  0  3.311415  0  0  -0.371438  0  3.326139  0  0  -0.313322  -0.343997  0  3.301781  0
N  N89  1  0.09206259  0.29900557  0.83837668  1  0  -0.401673  0  3.051959  0  0  -0.354921  0  3.311496  0  0  -0.371535  0  3.32621  0  0  -0.313333  -0.344114  0  3.301864  0
N  N90  1  0.59207501  0.20100287  0.16163795  1  0  -0.401782  0  3.051814  0  0  -0.354857  0  3.31146  0  0  -0.371488  0  3.326143  0  0  -0.313416  -0.344038  0  3.301816  0
N  N91  1  0.90793909  0.29899850  0.66164080  1  0  -0.401901  0  3.052091  0  0  -0.354888  0  3.311685  0  0  -0.37151  0  3.326375  0  0  -0.313501  -0.344067  0  3.30204  0
N  N92  1  0.73914754  0.90536293  0.79581254  1  0  -0.351372  0  3.128877  0  0  -0.308052  0  3.407858  0  0  -0.3206  0  3.425495  0  0  -0.284941  -0.298883  0  3.395546  0
N  N93  1  0.76087358  0.59463430  0.29579669  1  0  -0.351073  0  3.128985  0  0  -0.307802  0  3.407911  0  0  -0.320358  0  3.425554  0  0  -0.28484  -0.298639  0  3.395593  0
N  N94  1  0.26085551  0.90537712  0.70419184  1  0  -0.351269  0  3.128846  0  0  -0.307865  0  3.407831  0  0  -0.320407  0  3.425475  0  0  -0.284886  -0.298697  0  3.395518  0
N  N95  1  0.23913940  0.59464576  0.20417384  1  0  -0.35143  0  3.128834  0  0  -0.307999  0  3.407801  0  0  -0.320545  0  3.425449  0  0  -0.284799  -0.298835  0  3.395487  0
N  N96  1  0.26088161  0.09462709  0.20419599  1  0  -0.351189  0  3.128733  0  0  -0.307903  0  3.407694  0  0  -0.320466  0  3.425327  0  0  -0.284957  -0.298744  0  3.395381  0
N  N97  1  0.23912527  0.40535139  0.70418588  1  0  -0.351211  0  3.128478  0  0  -0.307915  0  3.407436  0  0  -0.320465  0  3.425071  0  0  -0.284916  -0.29875  0  3.395122  0
N  N98  1  0.73914543  0.09464320  0.29581479  1  0  -0.351332  0  3.128853  0  0  -0.30794  0  3.407828  0  0  -0.320495  0  3.425479  0  0  -0.284879  -0.29878  0  3.395513  0
N  N99  1  0.76087616  0.40537196  0.79582583  1  0  -0.351206  0  3.128648  0  0  -0.30772  0  3.407669  0  0  -0.320261  0  3.425319  0  0  -0.284752  -0.298557  0  3.395353  0
N  N100  1  0.90492698  0.83014175  0.87360370  1  0  -0.087557  0  2.943668  0  0  -0.088722  0  3.24416  0  0  -0.088544  0  3.257525  0  0  -0.101232  -0.088131  0  3.234658  0
N  N101  1  0.59510001  0.66983901  0.37361095  1  0  -0.087908  0  2.943814  0  0  -0.089119  0  3.244334  0  0  -0.088937  0  3.257702  0  0  -0.101456  -0.088528  0  3.234837  0
N  N102  1  0.09509118  0.83015672  0.62638681  1  0  -0.087717  0  2.943961  0  0  -0.088895  0  3.244436  0  0  -0.088713  0  3.257793  0  0  -0.101336  -0.088306  0  3.234938  0
N  N103  1  0.40493547  0.66986533  0.12638549  1  0  -0.087557  0  2.943425  0  0  -0.088693  0  3.243856  0  0  -0.08851  0  3.25722  0  0  -0.101282  -0.088103  0  3.234357  0
N  N104  1  0.09509485  0.16983615  0.12640104  1  0  -0.087782  0  2.94396  0  0  -0.08897  0  3.24446  0  0  -0.088789  0  3.257823  0  0  -0.101345  -0.088377  0  3.234955  0
N  N105  1  0.40491346  0.33012504  0.62638935  1  0  -0.087507  0  2.943394  0  0  -0.08868  0  3.243868  0  0  -0.088498  0  3.257231  0  0  -0.101258  -0.088089  0  3.23437  0
N  N106  1  0.90491289  0.16986187  0.37361603  1  0  -0.087673  0  2.943699  0  0  -0.088846  0  3.244159  0  0  -0.088662  0  3.25752  0  0  -0.101302  -0.088257  0  3.234659  0
N  N107  1  0.59507174  0.33016797  0.87361354  1  0  -0.087746  0  2.944197  0  0  -0.088896  0  3.244642  0  0  -0.088715  0  3.258  0  0  -0.1013  -0.088307  0  3.235145  0
N  N108  1  0.82087489  0.92139335  0.86377892  1  0  -0.149258  0  3.061406  0  0  -0.12356  0  3.355294  0  0  -0.128371  0  3.369571  0  0  -0.109199  -0.119988  0  3.345093  0
N  N109  1  0.67916405  0.57859347  0.36377464  1  0  -0.149226  0  3.061175  0  0  -0.123488  0  3.355029  0  0  -0.128302  0  3.369306  0  0  -0.109155  -0.119916  0  3.344834  0
N  N110  1  0.17914186  0.92141055  0.63621849  1  0  -0.149208  0  3.061162  0  0  -0.123495  0  3.354989  0  0  -0.128302  0  3.369254  0  0  -0.109136  -0.119924  0  3.344794  0
N  N111  1  0.32087599  0.57861150  0.13620540  1  0  -0.149392  0  3.06123  0  0  -0.123687  0  3.355086  0  0  -0.1285  0  3.369359  0  0  -0.109273  -0.120114  0  3.344889  0
N  N112  1  0.17915426  0.07858628  0.13622708  1  0  -0.149327  0  3.061151  0  0  -0.123616  0  3.355018  0  0  -0.128427  0  3.369294  0  0  -0.109196  -0.120044  0  3.344818  0
N  N113  1  0.32085570  0.42138357  0.63621046  1  0  -0.149473  0  3.060907  0  0  -0.123782  0  3.354795  0  0  -0.128596  0  3.36907  0  0  -0.109237  -0.12021  0  3.3446  0
N  N114  1  0.82085803  0.07860804  0.36378815  1  0  -0.149252  0  3.06127  0  0  -0.12353  0  3.355094  0  0  -0.128343  0  3.369373  0  0  -0.109186  -0.119956  0  3.344895  0
N  N115  1  0.67914376  0.42141229  0.86379617  1  0  -0.14941  0  3.061056  0  0  -0.123701  0  3.354877  0  0  -0.128512  0  3.369144  0  0  -0.109261  -0.120131  0  3.344684  0
N  N116  1  0.87827829  0.75344487  0.81229083  1  0  -0.31173  0  3.049363  0  0  -0.268412  0  3.332891  0  0  -0.280589  0  3.348874  0  0  -0.253575  -0.260108  0  3.3222  0
N  N117  1  0.62172432  0.74654197  0.31228996  1  0  -0.311601  0  3.049078  0  0  -0.268318  0  3.332568  0  0  -0.280513  0  3.348556  0  0  -0.253445  -0.260015  0  3.321876  0
N  N118  1  0.12172677  0.75345823  0.68770480  1  0  -0.311866  0  3.049679  0  0  -0.268502  0  3.333322  0  0  -0.280673  0  3.349314  0  0  -0.253581  -0.260196  0  3.322629  0
N  N119  1  0.37828666  0.74656119  0.18770136  1  0  -0.311817  0  3.049079  0  0  -0.268439  0  3.332683  0  0  -0.280622  0  3.348676  0  0  -0.253602  -0.260138  0  3.321993  0
N  N120  1  0.12173623  0.24653650  0.18771328  1  0  -0.311593  0  3.04964  0  0  -0.268297  0  3.333143  0  0  -0.280482  0  3.349127  0  0  -0.253461  -0.259991  0  3.322446  0
N  N121  1  0.37826617  0.25343160  0.68770844  1  0  -0.311797  0  3.04948  0  0  -0.268504  0  3.332983  0  0  -0.280682  0  3.348963  0  0  -0.253612  -0.260193  0  3.322295  0
N  N122  1  0.87827731  0.24656035  0.31229677  1  0  -0.311815  0  3.049347  0  0  -0.268439  0  3.332925  0  0  -0.280615  0  3.348913  0  0  -0.253583  -0.260135  0  3.322236  0
N  N123  1  0.62170488  0.25347212  0.81229831  1  0  -0.311764  0  3.049761  0  0  -0.268333  0  3.333465  0  0  -0.280499  0  3.34946  0  0  -0.253581  -0.260027  0  3.322773  0
N  N124  1  0.75070790  0.63898061  0.67126678  1  0  -0.396449  0  3.078085  0  0  -0.337956  0  3.326918  0  0  -0.355236  0  3.341355  0  0  -0.341951  -0.326187  0  3.31691  0
N  N125  1  0.74929694  0.86101754  0.17125284  1  0  -0.396413  0  3.078573  0  0  -0.338008  0  3.327424  0  0  -0.355307  0  3.341848  0  0  -0.341994  -0.326246  0  3.317418  0
N  N126  1  0.24929526  0.63898948  0.82872893  1  0  -0.396668  0  3.078161  0  0  -0.338197  0  3.327019  0  0  -0.355484  0  3.341441  0  0  -0.342108  -0.326427  0  3.317012  0
N  N127  1  0.25069295  0.86101603  0.32872510  1  0  -0.396504  0  3.078105  0  0  -0.337964  0  3.327065  0  0  -0.355265  0  3.341485  0  0  -0.342064  -0.326201  0  3.317062  0
N  N128  1  0.24931185  0.36101027  0.32873162  1  0  -0.396452  0  3.078031  0  0  -0.338012  0  3.326929  0  0  -0.355294  0  3.34137  0  0  -0.341983  -0.326244  0  3.316922  0
N  N129  1  0.25068833  0.13898893  0.82875126  1  0  -0.396172  0  3.07853  0  0  -0.337838  0  3.327315  0  0  -0.355115  0  3.341748  0  0  -0.341883  -0.326069  0  3.317311  0
N  N130  1  0.75070776  0.36101525  0.17126314  1  0  -0.396468  0  3.078418  0  0  -0.337978  0  3.327216  0  0  -0.355272  0  3.341639  0  0  -0.342017  -0.32621  0  3.317208  0
N  N131  1  0.74929231  0.13899390  0.67127584  1  0  -0.396555  0  3.078133  0  0  -0.338049  0  3.326963  0  0  -0.355337  0  3.341375  0  0  -0.342029  -0.326277  0  3.31696  0
O  O132  1  0.41932576  0.02894412  0.56839021  1  0  -0.821892  0  1.818696  0  0  -0.767781  0  1.995367  0  0  -0.785828  0  1.968766  0  0  -0.598569  -0.75478  0  2.013665  0
O  O133  1  0.08073848  0.47102576  0.06838229  1  0  -0.821943  0  1.818314  0  0  -0.767811  0  1.995043  0  0  -0.785861  0  1.968446  0  0  -0.598654  -0.754819  0  2.013335  0
O  O134  1  0.58072825  0.02896097  0.93161671  1  0  -0.821777  0  1.818483  0  0  -0.767659  0  1.995164  0  0  -0.785707  0  1.968559  0  0  -0.598646  -0.754657  0  2.013454  0
O  O135  1  0.91931121  0.47105500  0.43161872  1  0  -0.822032  0  1.818255  0  0  -0.767918  0  1.995014  0  0  -0.785969  0  1.968415  0  0  -0.598698  -0.754926  0  2.013318  0
O  O136  1  0.58071384  0.97102859  0.43161389  1  0  -0.821922  0  1.818436  0  0  -0.767829  0  1.995118  0  0  -0.785889  0  1.968515  0  0  -0.598652  -0.754834  0  2.013411  0
O  O137  1  0.91931262  0.52896167  0.93163004  1  0  -0.822157  0  1.818254  0  0  -0.76807  0  1.994905  0  0  -0.786113  0  1.968306  0  0  -0.598704  -0.755081  0  2.013208  0
O  O138  1  0.41931448  0.97104723  0.06838106  1  0  -0.8221  0  1.818282  0  0  -0.768024  0  1.994963  0  0  -0.78608  0  1.968356  0  0  -0.598702  -0.755031  0  2.013259  0
O  O139  1  0.08071376  0.52895060  0.56838285  1  0  -0.821857  0  1.818354  0  0  -0.767757  0  1.995068  0  0  -0.785804  0  1.968466  0  0  -0.598715  -0.754763  0  2.013362  0
