# generated using pymatgen
data_AlH9C27N7(ClO2)3
_symmetry_space_group_name_H-M   'P 1'
_cell_length_a   3.94410498
_cell_length_b   18.23952682
_cell_length_c   18.16394656
_cell_angle_alpha   121.24101954
_cell_angle_beta   95.98681743
_cell_angle_gamma   95.60748216
_symmetry_Int_Tables_number   1
_chemical_formula_structural   AlH9C27N7(ClO2)3
_chemical_formula_sum   'Al1 H9 C27 N7 Cl3 O6'
_cell_volume   1093.26680034
_cell_formula_units_Z   1
loop_
 _symmetry_equiv_pos_site_id
 _symmetry_equiv_pos_as_xyz
  1  'x, y, z'
loop_
 _atom_site_type_symbol
 _atom_site_label
 _atom_site_symmetry_multiplicity
 _atom_site_fract_x
 _atom_site_fract_y
 _atom_site_fract_z
 _atom_site_occupancy
 _atom_site_pbe_bader_charge
 _atom_site_pbe_bader_spin_density
 _atom_site_pbe_cm5_charge
 _atom_site_pbe_ddec_charge
 _atom_site_pbe_ddec_spin_density
 _atom_site_pbe_ddec_sum_bond_order
 _atom_site_pbe_magmom
Al  Al0  1  0.00177784  0.00027042  0.49452567  1  2.503567  0  0.424142  1.596531  0  2.570789  0
H  H1  1  0.46357659  0.31119280  0.41618984  1  0.144717  0  0.112328  0.118008  0  0.996694  0
H  H2  1  0.68910312  0.08578932  0.89363628  1  0.098856  0  0.112766  0.120751  0  0.992303  0
H  H3  1  0.55717800  0.60557410  0.19311190  1  0.152706  0  0.112949  0.120078  0  0.997558  0
H  H4  1  0.54847404  0.32067905  0.90203835  1  0.148163  0  0.114359  0.133757  0  0.997378  0
H  H5  1  0.70734254  0.01213003  0.73303914  1  0.08793  0  0.113555  0.119826  0  0.977342  0
H  H6  1  0.55509977  0.76625418  0.27666102  1  0.090141  0  0.115187  0.124413  0  0.975863  0
H  H7  1  0.32278685  0.59721294  0.41494237  1  0.134458  0  0.113305  0.133691  0  0.994074  0
H  H8  1  0.53266563  0.07666969  0.17631923  1  0.152669  0  0.114107  0.132601  0  0.995036  0
H  H9  1  0.47166702  0.23016682  0.49330165  1  0.096413  0  0.114281  0.121521  0  0.970908  0
C  C10  1  0.49667826  0.06150314  0.42578700  1  1.606819  0  0.278466  0.665769  0  4.063336  0
C  C11  1  0.59152544  0.07297839  0.62969090  1  1.627483  0  0.276865  0.662757  0  4.060169  0
C  C12  1  0.42509398  0.86678900  0.43314546  1  1.62014  0  0.277508  0.662081  0  4.050283  0
C  C13  1  0.47773508  0.24211696  0.38129859  1  -0.136806  0  -0.075001  -0.093937  0  3.948169  0
C  C14  1  0.49716231  0.19865901  0.29189099  1  0.036456  0  -0.002628  0.018051  0  3.970188  0
C  C15  1  0.66168469  0.12023757  0.85976267  1  0.036833  0  -0.075785  -0.101014  0  3.948192  0
C  C16  1  0.61411926  0.20732719  0.90695364  1  0.034827  0  -0.001887  0.024744  0  3.968714  0
C  C17  1  0.43634739  0.59182228  0.29882946  1  0.014382  0  0.000595  0.028809  0  3.961872  0
C  C18  1  0.49980333  0.63922126  0.25908100  1  -0.125988  0  -0.076246  -0.098951  0  3.95062  0
C  C19  1  0.57875136  0.25275872  0.86445759  1  0.028334  0  -0.078978  -0.159838  0  3.92349  0
C  C20  1  0.57916296  0.21114001  0.77513727  1  -0.003397  0  0.024099  0.137349  0  4.013809  0
C  C21  1  0.62280576  0.12340180  0.72681854  1  0.049448  0  -0.002509  -0.079125  0  3.905736  0
C  C22  1  0.67104940  0.07970670  0.77095982  1  -0.093758  0  -0.073003  -0.074986  0  3.952797  0
C  C23  1  0.49591994  0.72778655  0.30522133  1  0.072858  0  -0.073645  -0.07316  0  3.957694  0
C  C24  1  0.41655272  0.77110848  0.39001151  1  -0.02339  0  -0.005031  -0.085037  0  3.907344  0
C  C25  1  0.34868491  0.72274915  0.42882135  1  0.095665  0  0.024828  0.137508  0  4.017649  0
C  C26  1  0.36400951  0.63404046  0.38393570  1  -0.008243  0  -0.080409  -0.166371  0  3.922362  0
C  C27  1  0.51517708  0.10962274  0.24540747  1  0.032995  0  -0.07765  -0.155097  0  3.922326  0
C  C28  1  0.51033331  0.06448268  0.28794169  1  -0.019156  0  0.02066  0.125921  0  4.033806  0
C  C29  1  0.49508480  0.10769554  0.37754260  1  0.051787  0  0.000392  -0.066971  0  3.910902  0
C  C30  1  0.48123183  0.19693197  0.42363751  1  0.046633  0  -0.076006  -0.085632  0  3.962799  0
C  C31  1  0.46027334  0.37370881  0.25323337  1  1.517722  0  0.357547  0.508185  0  4.083794  0
C  C32  1  0.56582309  0.24471527  0.12202520  1  1.49437  0  0.358171  0.509055  0  4.082091  0
C  C33  1  0.50247922  0.24619039  0.24669591  1  1.086388  0  0.263329  0.398433  0  4.026577  0
C  C34  1  0.45586177  0.49823389  0.25132133  1  1.069962  0  0.259458  0.386902  0  4.039958  0
C  C35  1  0.53180539  0.37847792  0.12397546  1  1.594688  0  0.358036  0.505427  0  4.094282  0
C  C36  1  0.59581395  0.25244964  0.00088346  1  1.061209  0  0.259595  0.388167  0  4.039427  0
N  N37  1  0.51941609  0.33230710  0.16644352  1  -1.220156  0  -0.192872  -0.242024  0  3.556177  0
N  N38  1  0.56476821  0.20296265  0.16416993  1  -1.186764  0  -0.317358  -0.440249  0  3.210605  0
N  N39  1  0.44487297  0.32876605  0.29203851  1  -1.166408  0  -0.317886  -0.44419  0  3.213332  0
N  N40  1  0.42014234  0.45701262  0.29447150  1  -1.194603  0  -0.321195  -0.444877  0  3.202051  0
N  N41  1  0.50907142  0.46264943  0.16841033  1  -1.188796  0  -0.316812  -0.438958  0  3.221757  0
N  N42  1  0.60959002  0.20570087  0.03875172  1  -1.147619  0  -0.320596  -0.44915  0  3.205592  0
N  N43  1  0.56459760  0.33694456  0.04019372  1  -1.206296  0  -0.317451  -0.437577  0  3.219802  0
Cl  Cl44  1  0.53574109  0.95503819  0.22971000  1  -0.185536  0  -0.003025  -0.067309  0  1.502978  0
Cl  Cl45  1  0.26553269  0.77089194  0.53408888  1  -0.188639  0  -0.002431  -0.066191  0  1.516434  0
Cl  Cl46  1  0.53799665  0.27192268  0.72794355  1  -0.193718  0  -0.004462  -0.069107  0  1.513995  0
O  O47  1  0.21361332  0.90367998  0.48330167  1  -1.242714  0  -0.227468  -0.5797  0  2.391139  0
O  O48  1  0.22685795  0.00747247  0.40911357  1  -1.244532  0  -0.230284  -0.588164  0  2.391156  0
O  O49  1  0.34964024  0.08534599  0.58728010  1  -1.257477  0  -0.235704  -0.607662  0  2.455206  0
O  O50  1  0.65138141  0.90616598  0.41377252  1  -1.268423  0  -0.239454  -0.610287  0  2.410599  0
O  O51  1  0.79490570  0.01931966  0.59485719  1  -1.243026  0  -0.230176  -0.576933  0  2.335443  0
O  O52  1  0.76791503  0.08181515  0.48176003  1  -1.243174  0  -0.230578  -0.57784  0  2.347807  0
