# generated using pymatgen
data_AgH3C5SBrNO3
_symmetry_space_group_name_H-M   'P 1'
_cell_length_a   5.18015207
_cell_length_b   9.97158155
_cell_length_c   15.95733653
_cell_angle_alpha   71.49541530
_cell_angle_beta   80.69257253
_cell_angle_gamma   75.00975727
_symmetry_Int_Tables_number   1
_chemical_formula_structural   AgH3C5SBrNO3
_chemical_formula_sum   'Ag4 H12 C20 S4 Br4 N4 O12'
_cell_volume   752.19064810
_cell_formula_units_Z   4
loop_
 _symmetry_equiv_pos_site_id
 _symmetry_equiv_pos_as_xyz
  1  'x, y, z'
loop_
 _atom_site_type_symbol
 _atom_site_label
 _atom_site_symmetry_multiplicity
 _atom_site_fract_x
 _atom_site_fract_y
 _atom_site_fract_z
 _atom_site_occupancy
 _atom_site_hle17_bader_spin_density
 _atom_site_hle17_ddec_charge
 _atom_site_hle17_ddec_spin_density
 _atom_site_hle17_ddec_sum_bond_order
 _atom_site_hle17_magmom
 _atom_site_hse06_10hf_bader_spin_density
 _atom_site_hse06_10hf_ddec_charge
 _atom_site_hse06_10hf_ddec_spin_density
 _atom_site_hse06_10hf_ddec_sum_bond_order
 _atom_site_hse06_10hf_magmom
 _atom_site_hse06_bader_spin_density
 _atom_site_hse06_ddec_charge
 _atom_site_hse06_ddec_spin_density
 _atom_site_hse06_ddec_sum_bond_order
 _atom_site_hse06_magmom
 _atom_site_pbe_bader_spin_density
 _atom_site_pbe_cm5_charge
 _atom_site_pbe_ddec_charge
 _atom_site_pbe_ddec_spin_density
 _atom_site_pbe_ddec_sum_bond_order
 _atom_site_pbe_magmom
Ag  Ag0  1  0.53113310  0.35683864  0.98860771  1  0  0.593613  0  1.351777  0  0  0.469645  0  1.7954  0  0  0.50151  0  1.741417  0  0  0.438961  0.446963  0  1.833291  0
Ag  Ag1  1  0.87691395  0.14348307  0.51167490  1  0  0.593753  0  1.348472  0  0  0.469144  0  1.791838  0  0  0.501225  0  1.737961  0  0  0.438927  0.446807  0  1.829699  0
Ag  Ag2  1  0.46886682  0.64316144  0.01139271  1  0  0.593581  0  1.351822  0  0  0.469596  0  1.795442  0  0  0.501459  0  1.741462  0  0  0.438961  0.446916  0  1.833335  0
Ag  Ag3  1  0.12306951  0.85652246  0.48832706  1  0  0.593793  0  1.348387  0  0  0.469211  0  1.791722  0  0  0.501298  0  1.737841  0  0  0.438974  0.446871  0  1.829579  0
H  H4  1  0.40426807  0.21771607  0.19315722  1  0  0.107338  0  0.945531  0  0  0.115312  0  1.009164  0  0  0.117983  0  1.006787  0  0  0.120214  0.11311  0  1.011451  0
H  H5  1  0.81428589  0.28233645  0.30690541  1  0  0.106416  0  0.944958  0  0  0.114771  0  1.008238  0  0  0.117395  0  1.005971  0  0  0.119923  0.112609  0  1.010655  0
H  H6  1  0.59573965  0.78228614  0.80683800  1  0  0.107311  0  0.945512  0  0  0.115275  0  1.009143  0  0  0.117947  0  1.006762  0  0  0.120218  0.113074  0  1.011429  0
H  H7  1  0.18570261  0.71766583  0.69309735  1  0  0.106362  0  0.945001  0  0  0.11476  0  1.008241  0  0  0.117384  0  1.005975  0  0  0.119911  0.1126  0  1.010658  0
H  H8  1  0.06710560  0.85866904  0.28614853  1  0  0.112161  0  0.983263  0  0  0.117775  0  1.055422  0  0  0.121367  0  1.051878  0  0  0.100587  0.115091  0  1.058052  0
H  H9  1  0.21143832  0.64183623  0.21366010  1  0  0.112713  0  0.982372  0  0  0.118056  0  1.054905  0  0  0.121623  0  1.051447  0  0  0.101099  0.11533  0  1.057675  0
H  H10  1  0.93289449  0.14133214  0.71385305  1  0  0.11219  0  0.98324  0  0  0.117798  0  1.055401  0  0  0.121397  0  1.05185  0  0  0.100604  0.115115  0  1.058031  0
H  H11  1  0.78855710  0.35816276  0.78633958  1  0  0.112697  0  0.982335  0  0  0.118052  0  1.054875  0  0  0.121617  0  1.051417  0  0  0.101092  0.115326  0  1.057643  0
H  H12  1  0.05468762  0.13219483  0.01425984  1  0  0.10181  0  0.957405  0  0  0.108107  0  1.027541  0  0  0.111284  0  1.02391  0  0  0.111043  0.105875  0  1.030069  0
H  H13  1  0.20167471  0.36836451  0.48549983  1  0  0.101226  0  0.957826  0  0  0.107807  0  1.027445  0  0  0.110973  0  1.023866  0  0  0.110963  0.105368  0  1.030227  0
H  H14  1  0.94532585  0.86780088  0.98573739  1  0  0.101778  0  0.957304  0  0  0.108097  0  1.027438  0  0  0.111275  0  1.023807  0  0  0.111039  0.105868  0  1.029967  0
H  H15  1  0.79830309  0.63164428  0.51450197  1  0  0.101245  0  0.95782  0  0  0.107818  0  1.027487  0  0  0.110981  0  1.023907  0  0  0.110972  0.105379  0  1.030271  0
C  C16  1  0.60025662  0.14891921  0.18290228  1  0  0.131856  0  3.646585  0  0  0.084137  0  3.900388  0  0  0.095116  0  3.915476  0  0  0.049027  0.076645  0  3.8908  0
C  C17  1  0.93101182  0.35143913  0.31712128  1  0  0.131919  0  3.644446  0  0  0.08416  0  3.897576  0  0  0.094941  0  3.912833  0  0  0.048895  0.076088  0  3.888543  0
C  C18  1  0.39974985  0.85108303  0.81709617  1  0  0.131875  0  3.64672  0  0  0.084199  0  3.900478  0  0  0.09518  0  3.915568  0  0  0.049051  0.07671  0  3.890887  0
C  C19  1  0.06897687  0.64856421  0.68287867  1  0  0.13198  0  3.644327  0  0  0.084203  0  3.897488  0  0  0.094989  0  3.912737  0  0  0.048936  0.076128  0  3.888456  0
C  C20  1  0.72095569  0.03354137  0.25093891  1  0  -0.142695  0  3.689307  0  0  -0.109584  0  3.935881  0  0  -0.121239  0  3.956537  0  0  -0.012251  -0.102346  0  3.922331  0
C  C21  1  0.00406026  0.46695220  0.24906443  1  0  -0.143742  0  3.690964  0  0  -0.10938  0  3.935507  0  0  -0.121008  0  3.956258  0  0  -0.011629  -0.101987  0  3.922237  0
C  C22  1  0.27905300  0.96645543  0.74905854  1  0  -0.142633  0  3.689298  0  0  -0.109534  0  3.935861  0  0  -0.121192  0  3.956523  0  0  -0.012242  -0.102292  0  3.922302  0
C  C23  1  0.99593268  0.53304679  0.75093578  1  0  -0.143723  0  3.690924  0  0  -0.10942  0  3.935593  0  0  -0.121051  0  3.956337  0  0  -0.011667  -0.102028  0  3.922318  0
C  C24  1  0.97073099  0.94812467  0.23343278  1  0  -0.035864  0  3.695256  0  0  -0.074745  0  3.939688  0  0  -0.068938  0  3.956644  0  0  -0.069933  -0.078031  0  3.928203  0
C  C25  1  0.15134542  0.55252153  0.26644746  1  0  -0.036847  0  3.695753  0  0  -0.076136  0  3.941041  0  0  -0.070405  0  3.9579  0  0  -0.071417  -0.080092  0  3.929994  0
C  C26  1  0.02927687  0.05187868  0.76656755  1  0  -0.035887  0  3.695276  0  0  -0.074798  0  3.939768  0  0  -0.068993  0  3.956719  0  0  -0.069934  -0.078084  0  3.928279  0
C  C27  1  0.84865282  0.44747964  0.73355204  1  0  -0.036825  0  3.695819  0  0  -0.076124  0  3.941085  0  0  -0.070403  0  3.95797  0  0  -0.071412  -0.080075  0  3.930031  0
C  C28  1  0.09200769  0.98338066  0.14728601  1  0  0.041843  0  3.680915  0  0  0.064414  0  3.947205  0  0  0.061251  0  3.969349  0  0  -0.013797  0.065923  0  3.932572  0
C  C29  1  0.22217233  0.51741721  0.35252804  1  0  0.043009  0  3.680448  0  0  0.065343  0  3.947011  0  0  0.062196  0  3.969162  0  0  -0.013327  0.066811  0  3.932322  0
C  C30  1  0.90800399  0.01661941  0.85271241  1  0  0.041864  0  3.6812  0  0  0.06447  0  3.947428  0  0  0.061304  0  3.96958  0  0  -0.013748  0.065982  0  3.932791  0
C  C31  1  0.77782034  0.48258397  0.64747313  1  0  0.042873  0  3.68042  0  0  0.065296  0  3.946899  0  0  0.062154  0  3.969026  0  0  -0.013336  0.066765  0  3.932196  0
C  C32  1  0.96349321  0.10007224  0.08188336  1  0  0.077069  0  3.686755  0  0  0.033044  0  3.942083  0  0  0.041718  0  3.958757  0  0  0.037582  0.027021  0  3.931818  0
C  C33  1  0.14540843  0.40048381  0.41794436  1  0  0.077806  0  3.685737  0  0  0.034002  0  3.940755  0  0  0.042576  0  3.957594  0  0  0.038544  0.028259  0  3.930259  0
C  C34  1  0.03652015  0.89992675  0.91811598  1  0  0.077153  0  3.686652  0  0  0.033084  0  3.941973  0  0  0.041752  0  3.958663  0  0  0.037601  0.027061  0  3.931713  0
C  C35  1  0.85458202  0.59952279  0.58205584  1  0  0.077858  0  3.685582  0  0  0.034037  0  3.940525  0  0  0.04259  0  3.957412  0  0  0.038544  0.028293  0  3.930034  0
S  S36  1  0.57170541  0.99647290  0.36294976  1  0  1.290308  0  5.637811  0  0  1.194461  0  6.137346  0  0  1.243943  0  6.11705  0  0  0.497004  1.16032  0  6.149639  0
S  S37  1  0.93071080  0.50346483  0.13700587  1  0  1.29256  0  5.636615  0  0  1.197037  0  6.135881  0  0  1.246511  0  6.115646  0  0  0.49836  1.16289  0  6.148363  0
S  S38  1  0.42829296  0.00351738  0.63704816  1  0  1.289951  0  5.637919  0  0  1.194165  0  6.137404  0  0  1.243646  0  6.117112  0  0  0.496925  1.160021  0  6.149685  0
S  S39  1  0.06928531  0.49653852  0.86299449  1  0  1.292536  0  5.636533  0  0  1.197045  0  6.135795  0  0  1.24653  0  6.115541  0  0  0.498365  1.162898  0  6.148275  0
Br  Br40  1  0.43432294  0.87173663  0.11951320  1  0  -0.024124  0  1.463933  0  0  -0.015902  0  1.77285  0  0  -0.022175  0  1.765827  0  0  0.08721  -0.011131  0  1.778454  0
Br  Br41  1  0.42566361  0.62907652  0.38030221  1  0  -0.023484  0  1.465688  0  0  -0.015041  0  1.775234  0  0  -0.021356  0  1.768151  0  0  0.088056  -0.010337  0  1.780823  0
Br  Br42  1  0.56570768  0.12826246  0.88049434  1  0  -0.024174  0  1.464078  0  0  -0.015949  0  1.772979  0  0  -0.02222  0  1.765962  0  0  0.087183  -0.011177  0  1.778578  0
Br  Br43  1  0.57431730  0.37093223  0.61969646  1  0  -0.023466  0  1.465665  0  0  -0.015041  0  1.775191  0  0  -0.021352  0  1.768107  0  0  0.088045  -0.010337  0  1.780779  0
N  N44  1  0.72066862  0.17997630  0.10001488  1  0  -0.270997  0  3.30949  0  0  -0.187624  0  3.593921  0  0  -0.208545  0  3.61028  0  0  -0.328598  -0.173436  0  3.58268  0
N  N45  1  0.00038755  0.32037666  0.39994943  1  0  -0.270985  0  3.307122  0  0  -0.188367  0  3.592271  0  0  -0.209145  0  3.608458  0  0  -0.329691  -0.174024  0  3.581105  0
N  N46  1  0.27934165  0.82002268  0.89998363  1  0  -0.271014  0  3.309411  0  0  -0.187617  0  3.593827  0  0  -0.208536  0  3.610175  0  0  -0.328647  -0.173434  0  3.582595  0
N  N47  1  0.99959990  0.67962669  0.60005177  1  0  -0.27101  0  3.307023  0  0  -0.188401  0  3.592239  0  0  -0.209177  0  3.608407  0  0  -0.3297  -0.17406  0  3.581073  0
O  O48  1  0.71775445  0.85008658  0.40801819  1  0  -0.672337  0  2.034307  0  0  -0.612112  0  2.306497  0  0  -0.635104  0  2.290576  0  0  -0.342695  -0.595731  0  2.31702  0
O  O49  1  0.97557448  0.64986965  0.09180341  1  0  -0.672822  0  2.031857  0  0  -0.61335  0  2.303913  0  0  -0.636263  0  2.28791  0  0  -0.342784  -0.596818  0  2.314539  0
O  O50  1  0.28224186  0.14989820  0.59197322  1  0  -0.672264  0  2.034261  0  0  -0.612085  0  2.306557  0  0  -0.635082  0  2.290636  0  0  -0.342658  -0.595703  0  2.317082  0
O  O51  1  0.02442825  0.35013263  0.90819880  1  0  -0.67283  0  2.031826  0  0  -0.613377  0  2.303906  0  0  -0.636291  0  2.287897  0  0  -0.342783  -0.596847  0  2.314528  0
O  O52  1  0.60737211  0.11171937  0.39530143  1  0  -0.649665  0  2.024935  0  0  -0.59577  0  2.301498  0  0  -0.619955  0  2.286287  0  0  -0.331489  -0.57827  0  2.311106  0
O  O53  1  0.11465620  0.38806367  0.10510198  1  0  -0.650523  0  2.025867  0  0  -0.596506  0  2.301995  0  0  -0.620761  0  2.286864  0  0  -0.331878  -0.57903  0  2.311763  0
O  O54  1  0.39264367  0.88826010  0.60470113  1  0  -0.64935  0  2.024737  0  0  -0.595613  0  2.301494  0  0  -0.619801  0  2.286296  0  0  -0.331433  -0.578106  0  2.311089  0
O  O55  1  0.88533886  0.61194075  0.89489683  1  0  -0.650543  0  2.025951  0  0  -0.59652  0  2.30206  0  0  -0.620778  0  2.286924  0  0  -0.33187  -0.579046  0  2.31183  0
O  O56  1  0.28490278  0.00209824  0.35801074  1  0  -0.660841  0  2.05509  0  0  -0.591404  0  2.334038  0  0  -0.618369  0  2.320568  0  0  -0.343118  -0.571762  0  2.342762  0
O  O57  1  0.64493634  0.49737056  0.14158261  1  0  -0.660502  0  2.055426  0  0  -0.59128  0  2.334445  0  0  -0.618325  0  2.320991  0  0  -0.343799  -0.572095  0  2.343484  0
O  O58  1  0.71509255  0.99790399  0.64198711  1  0  -0.660794  0  2.055162  0  0  -0.591355  0  2.334106  0  0  -0.618317  0  2.320632  0  0  -0.343139  -0.571732  0  2.342873  0
O  O59  1  0.35505995  0.50263386  0.85841692  1  0  -0.660505  0  2.055267  0  0  -0.591286  0  2.334276  0  0  -0.618332  0  2.320818  0  0  -0.343841  -0.572103  0  2.343317  0
