# generated using pymatgen
data_CdH13C10NO10
_symmetry_space_group_name_H-M   'P 1'
_cell_length_a   9.93368355
_cell_length_b   10.24042832
_cell_length_c   13.55850000
_cell_angle_alpha   98.10172954
_cell_angle_beta   90.00000000
_cell_angle_gamma   90.00000000
_symmetry_Int_Tables_number   1
_chemical_formula_structural   CdH13C10NO10
_chemical_formula_sum   'Cd4 H52 C40 N4 O40'
_cell_volume   1365.47513155
_cell_formula_units_Z   4
loop_
 _symmetry_equiv_pos_site_id
 _symmetry_equiv_pos_as_xyz
  1  'x, y, z'
loop_
 _atom_site_type_symbol
 _atom_site_label
 _atom_site_symmetry_multiplicity
 _atom_site_fract_x
 _atom_site_fract_y
 _atom_site_fract_z
 _atom_site_occupancy
 _atom_site_hle17_bader_spin_density
 _atom_site_hle17_ddec_charge
 _atom_site_hle17_ddec_spin_density
 _atom_site_hle17_ddec_sum_bond_order
 _atom_site_hle17_magmom
 _atom_site_hse06_10hf_bader_spin_density
 _atom_site_hse06_10hf_ddec_charge
 _atom_site_hse06_10hf_ddec_spin_density
 _atom_site_hse06_10hf_ddec_sum_bond_order
 _atom_site_hse06_10hf_magmom
 _atom_site_hse06_bader_spin_density
 _atom_site_hse06_ddec_charge
 _atom_site_hse06_ddec_spin_density
 _atom_site_hse06_ddec_sum_bond_order
 _atom_site_hse06_magmom
 _atom_site_pbe_bader_charge
 _atom_site_pbe_bader_spin_density
 _atom_site_pbe_cm5_charge
 _atom_site_pbe_ddec_charge
 _atom_site_pbe_ddec_spin_density
 _atom_site_pbe_ddec_sum_bond_order
 _atom_site_pbe_magmom
Cd  Cd0  1  0.24594804  0.22028516  0.82888332  1  0  1.272538  0  1.588454  0  0  1.107355  0  2.026183  0  0  1.160275  0  1.96724  0  1.337747  0  0.770343  1.069235  0  2.067186  0
Cd  Cd1  1  0.74594887  0.27971569  0.17111807  1  0  1.272563  0  1.588413  0  0  1.107376  0  2.026126  0  0  1.160293  0  1.967189  0  1.337742  0  0.770364  1.069256  0  2.067128  0
Cd  Cd2  1  0.75405160  0.77971556  0.17111713  1  0  1.272525  0  1.588455  0  0  1.107354  0  2.026161  0  0  1.160261  0  1.96724  0  1.337747  0  0.770339  1.069233  0  2.067164  0
Cd  Cd3  1  0.25405279  0.72028502  0.82888312  1  0  1.272528  0  1.588451  0  0  1.107347  0  2.026168  0  0  1.160262  0  1.967235  0  1.337747  0  0.770336  1.069228  0  2.067171  0
H  H4  1  0.12121083  0.11342323  0.66748326  1  0  0.402205  0  0.914709  0  0  0.369916  0  0.982275  0  0  0.381287  0  0.965817  0  0.619843  0  0.27568  0.361798  0  0.994042  0
H  H5  1  0.62121165  0.38657565  0.33251791  1  0  0.402313  0  0.914563  0  0  0.369953  0  0.98222  0  0  0.381323  0  0.965761  0  0.619817  0  0.275708  0.361837  0  0.993988  0
H  H6  1  0.87878781  0.88657452  0.33251613  1  0  0.40221  0  0.914701  0  0  0.369918  0  0.982273  0  0  0.381289  0  0.965813  0  0.619831  0  0.275679  0.3618  0  0.994041  0
H  H7  1  0.37878799  0.61342408  0.66748317  1  0  0.402211  0  0.914695  0  0  0.36992  0  0.982266  0  0  0.381291  0  0.965806  0  0.619838  0  0.275681  0.361805  0  0.994033  0
H  H8  1  0.13072089  0.98393972  0.72004255  1  0  0.424028  0  0.873149  0  0  0.393871  0  0.93556  0  0  0.404771  0  0.919841  0  0.634252  0  0.285805  0.386086  0  0.94673  0
H  H9  1  0.63071971  0.51605988  0.27995759  1  0  0.423928  0  0.873234  0  0  0.393771  0  0.935651  0  0  0.404672  0  0.91993  0  0.634261  0  0.285763  0.385987  0  0.94682  0
H  H10  1  0.86927975  0.01606100  0.27995937  1  0  0.424029  0  0.873141  0  0  0.393869  0  0.935558  0  0  0.40477  0  0.919837  0  0.634274  0  0.28581  0.386085  0  0.946728  0
H  H11  1  0.36927893  0.48393985  0.72004201  1  0  0.42402  0  0.873162  0  0  0.393864  0  0.935571  0  0  0.404765  0  0.91985  0  0.63425  0  0.285808  0.38608  0  0.94674  0
H  H12  1  0.08506109  0.45005817  0.84745670  1  0  0.430095  0  0.874423  0  0  0.395926  0  0.943467  0  0  0.40722  0  0.927092  0  0.661642  0  0.285701  0.387889  0  0.9551  0
H  H13  1  0.58506192  0.04994268  0.15254394  1  0  0.430091  0  0.874421  0  0  0.395918  0  0.943472  0  0  0.407212  0  0.927098  0  0.661645  0  0.285703  0.387882  0  0.955104  0
H  H14  1  0.91493754  0.54994057  0.15254279  1  0  0.430102  0  0.874411  0  0  0.39593  0  0.943461  0  0  0.407225  0  0.927085  0  0.661638  0  0.2857  0.387894  0  0.955094  0
H  H15  1  0.41493973  0.95005902  0.84745587  1  0  0.430076  0  0.874447  0  0  0.395905  0  0.943496  0  0  0.4072  0  0.927119  0  0.66163  0  0.285683  0.387867  0  0.95513  0
H  H16  1  0.00280057  0.34026378  0.89744492  1  0  0.424613  0  0.879628  0  0  0.391211  0  0.946559  0  0  0.402392  0  0.930463  0  0.647781  0  0.286938  0.383363  0  0.957856  0
H  H17  1  0.50280140  0.15973608  0.10255488  1  0  0.424626  0  0.879605  0  0  0.391223  0  0.946534  0  0  0.402403  0  0.930439  0  0.647788  0  0.286945  0.383375  0  0.95783  0
H  H18  1  0.99719706  0.65973496  0.10255457  1  0  0.424578  0  0.879682  0  0  0.391237  0  0.946523  0  0  0.402421  0  0.930422  0  0.647657  0  0.28694  0.383388  0  0.957821  0
H  H19  1  0.49719925  0.84026365  0.89744472  1  0  0.424611  0  0.879633  0  0  0.391208  0  0.946563  0  0  0.402391  0  0.930465  0  0.647846  0  0.286935  0.383359  0  0.957861  0
H  H20  1  0.37463746  0.45227454  0.93221967  1  0  0.419944  0  0.883636  0  0  0.389459  0  0.946647  0  0  0.400554  0  0.930824  0  0.642944  0  0.287424  0.381548  0  0.957905  0
H  H21  1  0.87463728  0.04772631  0.06778024  1  0  0.41995  0  0.88363  0  0  0.389468  0  0.946635  0  0  0.400563  0  0.930812  0  0.64295  0  0.287429  0.381559  0  0.957891  0
H  H22  1  0.62536419  0.54772421  0.06777909  1  0  0.419969  0  0.883592  0  0  0.389456  0  0.94663  0  0  0.400549  0  0.930812  0  0.642931  0  0.287441  0.381551  0  0.957877  0
H  H23  1  0.12536437  0.95227440  0.93222021  1  0  0.419929  0  0.88366  0  0  0.389459  0  0.946649  0  0  0.400554  0  0.930825  0  0.642935  0  0.287433  0.381549  0  0.957905  0
H  H24  1  0.40453775  0.31788905  0.97517689  1  0  0.412484  0  0.89474  0  0  0.380096  0  0.961346  0  0  0.391381  0  0.945032  0  0.624392  0  0.286547  0.372178  0  0.972771  0
H  H25  1  0.90453858  0.18211180  0.02482228  1  0  0.412443  0  0.89479  0  0  0.380048  0  0.961408  0  0  0.391335  0  0.945092  0  0.624382  0  0.286519  0.37213  0  0.972835  0
H  H26  1  0.59546189  0.68211068  0.02482271  1  0  0.412449  0  0.894788  0  0  0.380054  0  0.961407  0  0  0.39134  0  0.945092  0  0.62439  0  0.28652  0.372135  0  0.972834  0
H  H27  1  0.09546106  0.81788892  0.97517669  1  0  0.412462  0  0.89477  0  0  0.380067  0  0.96139  0  0  0.391353  0  0.945074  0  0.624404  0  0.286521  0.372148  0  0.972817  0
H  H28  1  0.62949559  0.04268204  0.53110215  1  0  0.127367  0  0.957419  0  0  0.127947  0  1.033076  0  0  0.132632  0  1.028127  0  0.211205  0  0.131014  0.124462  0  1.036889  0
H  H29  1  0.12949476  0.45731881  0.46889628  1  0  0.127348  0  0.95747  0  0  0.127908  0  1.033147  0  0  0.132591  0  1.028201  0  0.211239  0  0.130996  0.124423  0  1.036959  0
H  H30  1  0.37050606  0.95731967  0.46889619  1  0  0.127401  0  0.957461  0  0  0.127987  0  1.033106  0  0  0.132671  0  1.028156  0  0.211345  0  0.13102  0.124502  0  1.036919  0
H  H31  1  0.87050387  0.54268092  0.53110406  1  0  0.127368  0  0.957456  0  0  0.127956  0  1.033114  0  0  0.132641  0  1.028163  0  0.211214  0  0.131012  0.124471  0  1.036926  0
H  H32  1  0.58057215  0.27561734  0.81964373  1  0  0.147975  0  0.953537  0  0  0.153125  0  1.019375  0  0  0.157699  0  1.014879  0  0.152919  0  0.12053  0.149637  0  1.022873  0
H  H33  1  0.08057333  0.22438351  0.18035543  1  0  0.14797  0  0.953557  0  0  0.153116  0  1.019392  0  0  0.157689  0  1.014897  0  0.152912  0  0.120529  0.149635  0  1.022879  0
H  H34  1  0.41942850  0.72438436  0.18035534  1  0  0.148006  0  0.953588  0  0  0.153151  0  1.019405  0  0  0.157724  0  1.014909  0  0.1529  0  0.12054  0.149662  0  1.022901  0
H  H35  1  0.91942631  0.77561721  0.81964427  1  0  0.148013  0  0.953578  0  0  0.153166  0  1.019384  0  0  0.157738  0  1.014891  0  0.152917  0  0.12055  0.149684  0  1.02287  0
H  H36  1  0.91640930  0.33255632  0.62331700  1  0  0.136082  0  0.950883  0  0  0.140952  0  1.015846  0  0  0.144824  0  1.01275  0  0.196019  0  0.136314  0.13787  0  1.018869  0
H  H37  1  0.41640847  0.16744256  0.37668343  1  0  0.136098  0  0.950868  0  0  0.140978  0  1.015833  0  0  0.144851  0  1.012738  0  0.196022  0  0.136328  0.137896  0  1.018856  0
H  H38  1  0.08359235  0.66744539  0.37668502  1  0  0.136104  0  0.950862  0  0  0.140992  0  1.01582  0  0  0.144863  0  1.012726  0  0.196042  0  0.136331  0.13791  0  1.018844  0
H  H39  1  0.58359117  0.83255717  0.62331691  1  0  0.136083  0  0.950884  0  0  0.140964  0  1.015847  0  0  0.144836  0  1.012752  0  0.19601  0  0.13632  0.137881  0  1.018872  0
H  H40  1  0.83685170  0.04743632  0.45509679  1  0  0.129269  0  0.936213  0  0  0.140764  0  0.997346  0  0  0.143918  0  0.994938  0  0.119143  0  0.126864  0.138414  0  0.999354  0
H  H41  1  0.33685188  0.45256552  0.54490322  1  0  0.129271  0  0.936236  0  0  0.140763  0  0.997368  0  0  0.143917  0  0.99496  0  0.119117  0  0.126863  0.138405  0  0.999369  0
H  H42  1  0.16314895  0.95256341  0.54490428  1  0  0.129259  0  0.936249  0  0  0.140758  0  0.99737  0  0  0.143911  0  0.994963  0  0.119139  0  0.126866  0.138407  0  0.999376  0
H  H43  1  0.66314877  0.54743520  0.45509723  1  0  0.129279  0  0.936239  0  0  0.140764  0  0.997369  0  0  0.143919  0  0.994961  0  0.119148  0  0.126865  0.138407  0  0.999369  0
H  H44  1  0.94678575  0.18599710  0.48382860  1  0  0.132903  0  0.90903  0  0  0.14477  0  0.967791  0  0  0.147604  0  0.966092  0  0.118429  0  0.126327  0.142656  0  0.969297  0
H  H45  1  0.44678391  0.31400277  0.51617194  1  0  0.132919  0  0.908982  0  0  0.144777  0  0.967751  0  0  0.147611  0  0.966054  0  0.118435  0  0.126325  0.142655  0  0.969251  0
H  H46  1  0.05321490  0.81400362  0.51617184  1  0  0.132909  0  0.909043  0  0  0.144771  0  0.967801  0  0  0.147606  0  0.966104  0  0.118433  0  0.126328  0.142657  0  0.969304  0
H  H47  1  0.55321472  0.68599598  0.48382830  1  0  0.132909  0  0.908998  0  0  0.144764  0  0.967763  0  0  0.1476  0  0.966066  0  0.118439  0  0.126319  0.142642  0  0.969264  0
H  H48  1  0.63323036  0.48140884  0.87481409  1  0  0.111682  0  0.921129  0  0  0.122338  0  0.981136  0  0  0.124607  0  0.978766  0  0.140596  0  0.118542  0.120717  0  0.98292  0
H  H49  1  0.13323054  0.01859004  0.12518634  1  0  0.11167  0  0.921135  0  0  0.122333  0  0.981139  0  0  0.124601  0  0.978771  0  0.140591  0  0.118542  0.12071  0  0.982926  0
H  H50  1  0.36676828  0.51859089  0.12518551  1  0  0.111699  0  0.921112  0  0  0.122368  0  0.981112  0  0  0.124636  0  0.978747  0  0.140618  0  0.118551  0.120748  0  0.982895  0
H  H51  1  0.86676910  0.98140870  0.87481537  1  0  0.111676  0  0.92116  0  0  0.12233  0  0.981154  0  0  0.124597  0  0.978785  0  0.140599  0  0.118544  0.120708  0  0.982938  0
H  H52  1  0.78803899  0.56288663  0.91185789  1  0  0.12486  0  0.906418  0  0  0.133599  0  0.967849  0  0  0.135981  0  0.965933  0  0.111585  0  0.12479  0.131724  0  0.969664  0
H  H53  1  0.28803817  0.93711395  0.08814236  1  0  0.124867  0  0.906372  0  0  0.133611  0  0.967812  0  0  0.135993  0  0.965896  0  0.111605  0  0.124787  0.131736  0  0.969627  0
H  H54  1  0.21196266  0.43710916  0.08814056  1  0  0.124868  0  0.906479  0  0  0.133639  0  0.967889  0  0  0.136023  0  0.965972  0  0.111546  0  0.124821  0.131764  0  0.969703  0
H  H55  1  0.71196248  0.06288775  0.91185745  1  0  0.124849  0  0.906441  0  0  0.133587  0  0.967863  0  0  0.135968  0  0.96595  0  0.111574  0  0.124784  0.131713  0  0.969679  0
C  C56  1  0.66332695  0.11715762  0.59128748  1  0  0.050555  0  3.560254  0  0  -0.010098  0  3.823662  0  0  -0.000709  0  3.834714  0  0.372513  0  0.055591  -0.016324  0  3.816666  0
C  C57  1  0.16332612  0.38284225  0.40871232  1  0  0.050561  0  3.560235  0  0  -0.010044  0  3.823649  0  0  -0.000653  0  3.834699  0  0.372476  0  0.055628  -0.016272  0  3.816656  0
C  C58  1  0.33667471  0.88284211  0.40871286  1  0  0.050542  0  3.560252  0  0  -0.010075  0  3.823641  0  0  -0.000682  0  3.834691  0  0.372357  0  0.055656  -0.016301  0  3.816646  0
C  C59  1  0.83667352  0.61715748  0.59128728  1  0  0.050573  0  3.560183  0  0  -0.010069  0  3.823583  0  0  -0.000679  0  3.834633  0  0.3725  0  0.055607  -0.016296  0  3.816592  0
C  C60  1  0.59449649  0.14780105  0.68048057  1  0  -0.057497  0  3.744473  0  0  -0.037021  0  3.995759  0  0  -0.0458  0  4.016049  0  0.064798  0  -0.002653  -0.031371  0  3.982189  0
C  C61  1  0.09449566  0.35219783  0.31951913  1  0  -0.05739  0  3.744432  0  0  -0.037011  0  3.995792  0  0  -0.045793  0  4.016081  0  0.064647  0  -0.002662  -0.031362  0  3.982224  0
C  C62  1  0.40550517  0.85219966  0.31951988  1  0  -0.057419  0  3.744399  0  0  -0.037044  0  3.99578  0  0  -0.045827  0  4.016063  0  0.064558  0  -0.002687  -0.031394  0  3.982207  0
C  C63  1  0.90550499  0.64780092  0.68047963  1  0  -0.057384  0  3.744474  0  0  -0.036979  0  3.995798  0  0  -0.04576  0  4.016087  0  0.064873  0  -0.002677  -0.031336  0  3.98224  0
C  C64  1  0.63858587  0.25122155  0.75118204  1  0  -0.112856  0  3.608093  0  0  -0.156345  0  3.865576  0  0  -0.15167  0  3.877295  0  0.013324  0  -0.062748  -0.159174  0  3.857764  0
C  C65  1  0.13858505  0.24877930  0.24881787  1  0  -0.112905  0  3.607986  0  0  -0.156352  0  3.86552  0  0  -0.151678  0  3.877238  0  0.013533  0  -0.062755  -0.15918  0  3.857701  0
C  C66  1  0.36141477  0.74877917  0.24881693  1  0  -0.112917  0  3.608079  0  0  -0.156347  0  3.865543  0  0  -0.151669  0  3.877256  0  0.013544  0  -0.062759  -0.159182  0  3.857744  0
C  C67  1  0.86141560  0.75122043  0.75118174  1  0  -0.112916  0  3.608069  0  0  -0.156364  0  3.865574  0  0  -0.151687  0  3.877292  0  0.013326  0  -0.062734  -0.159195  0  3.85776  0
C  C68  1  0.75376470  0.32136796  0.73060343  1  0  0.252736  0  3.795181  0  0  0.244004  0  4.0621  0  0  0.250719  0  4.077892  0  0.558916  0  0.106316  0.239074  0  4.051874  0
C  C69  1  0.25376589  0.17863387  0.26939584  1  0  0.252803  0  3.794974  0  0  0.244034  0  4.061956  0  0  0.250755  0  4.077738  0  0.558916  0  0.106347  0.239101  0  4.051735  0
C  C70  1  0.24623494  0.67863374  0.26939417  1  0  0.252727  0  3.795062  0  0  0.244021  0  4.061949  0  0  0.250736  0  4.077738  0  0.558934  0  0.10638  0.239095  0  4.051716  0
C  C71  1  0.74623376  0.82136684  0.73060387  1  0  0.252769  0  3.795054  0  0  0.244029  0  4.062027  0  0  0.250744  0  4.077818  0  0.558958  0  0.106354  0.239101  0  4.0518  0
C  C72  1  0.82383639  0.28374401  0.64162171  1  0  -0.006454  0  3.51101  0  0  -0.058007  0  3.764535  0  0  -0.050674  0  3.774651  0  0.433142  0  0.062999  -0.063474  0  3.759519  0
C  C73  1  0.32383456  0.21625684  0.35837820  1  0  -0.006496  0  3.510996  0  0  -0.058071  0  3.764572  0  0  -0.05074  0  3.774686  0  0.433165  0  0.062946  -0.063538  0  3.759561  0
C  C74  1  0.17616527  0.71625670  0.35837800  1  0  -0.006504  0  3.51083  0  0  -0.058101  0  3.764398  0  0  -0.050769  0  3.774514  0  0.433129  0  0.062913  -0.06357  0  3.759382  0
C  C75  1  0.67616408  0.78374190  0.64162056  1  0  -0.006468  0  3.511045  0  0  -0.058042  0  3.764604  0  0  -0.050712  0  3.774724  0  0.433163  0  0.062949  -0.063511  0  3.759591  0
C  C76  1  0.47364001  0.06432488  0.69887697  1  0  0.659315  0  3.936404  0  0  0.599485  0  4.247897  0  0  0.633872  0  4.239327  0  1.658579  0  0.207667  0.576087  0  4.253094  0
C  C77  1  0.97363983  0.43567399  0.30112347  1  0  0.659102  0  3.936595  0  0  0.599353  0  4.247996  0  0  0.63374  0  4.239427  0  1.658522  0  0.207606  0.575956  0  4.253194  0
C  C78  1  0.52635963  0.93567386  0.30112327  1  0  0.659084  0  3.936487  0  0  0.599272  0  4.247993  0  0  0.63366  0  4.239423  0  1.658553  0  0.207582  0.575876  0  4.253187  0
C  C79  1  0.02635981  0.56432574  0.69887614  1  0  0.658962  0  3.936671  0  0  0.599193  0  4.248099  0  0  0.63358  0  4.239532  0  1.658508  0  0.207534  0.575798  0  4.25329  0
C  C80  1  0.84107672  0.15443930  0.47745518  1  0  -0.185711  0  3.556637  0  0  -0.24456  0  3.801506  0  0  -0.24622  0  3.806338  0  0.251294  0  -0.050982  -0.24334  0  3.798441  0
C  C81  1  0.34107589  0.34556254  0.52254483  1  0  -0.185771  0  3.556692  0  0  -0.244601  0  3.801528  0  0  -0.246266  0  3.806367  0  0.251308  0  -0.050983  -0.243337  0  3.798414  0
C  C82  1  0.15892292  0.84556142  0.52254379  1  0  -0.185746  0  3.556708  0  0  -0.24459  0  3.801563  0  0  -0.246254  0  3.806401  0  0.251289  0  -0.050995  -0.243361  0  3.798487  0
C  C83  1  0.65892375  0.65443719  0.47745624  1  0  -0.185772  0  3.556727  0  0  -0.244593  0  3.801556  0  0  -0.246259  0  3.806396  0  0.251269  0  -0.050975  -0.243318  0  3.798421  0
C  C84  1  0.76912557  0.22337347  0.39824918  1  0  0.706195  0  3.870559  0  0  0.649878  0  4.186368  0  0  0.68371  0  4.179616  0  1.636908  0  0.215362  0.626861  0  4.189937  0
C  C85  1  0.26912273  0.27662738  0.60174999  1  0  0.706223  0  3.870712  0  0  0.649931  0  4.186481  0  0  0.683763  0  4.17973  0  1.636898  0  0.215404  0.626902  0  4.190048  0
C  C86  1  0.23087609  0.77662725  0.60174979  1  0  0.706191  0  3.870572  0  0  0.649911  0  4.186332  0  0  0.683743  0  4.179582  0  1.63691  0  0.215407  0.626892  0  4.189898  0
C  C87  1  0.73087490  0.72337235  0.39824961  1  0  0.706258  0  3.870501  0  0  0.649972  0  4.186262  0  0  0.683804  0  4.17951  0  1.636924  0  0.215425  0.626942  0  4.18983  0
C  C88  1  0.74208021  0.46740342  0.88377728  1  0  -0.088806  0  3.588184  0  0  -0.144304  0  3.849562  0  0  -0.141395  0  3.850315  0  0.365405  0  -0.062777  -0.146437  0  3.849388  0
C  C89  1  0.24207938  0.03259743  0.11622262  1  0  -0.088728  0  3.588071  0  0  -0.144248  0  3.849478  0  0  -0.141344  0  3.850235  0  0.365411  0  -0.062736  -0.14638  0  3.849305  0
C  C90  1  0.25791842  0.53259532  0.11622074  1  0  -0.088797  0  3.588084  0  0  -0.144335  0  3.84955  0  0  -0.141433  0  3.850307  0  0.365393  0  -0.06278  -0.146469  0  3.849376  0
C  C91  1  0.75792026  0.96740427  0.88377793  1  0  -0.088836  0  3.588117  0  0  -0.14427  0  3.849469  0  0  -0.141362  0  3.850225  0  0.365395  0  -0.062764  -0.146405  0  3.849298  0
C  C92  1  0.76850747  0.37313542  0.95960152  1  0  0.682271  0  3.859248  0  0  0.621673  0  4.173253  0  0  0.654829  0  4.166659  0  1.60864  0  0.217157  0.599208  0  4.177317  0
C  C93  1  0.26850664  0.12686642  0.04039849  1  0  0.682169  0  3.859369  0  0  0.621581  0  4.173378  0  0  0.654739  0  4.166783  0  1.60866  0  0.217129  0.599114  0  4.17744  0
C  C94  1  0.23149217  0.62686332  0.04039798  1  0  0.682292  0  3.859128  0  0  0.621634  0  4.173254  0  0  0.654793  0  4.166658  0  1.608652  0  0.217141  0.599168  0  4.177317  0
C  C95  1  0.73149200  0.87313528  0.95960132  1  0  0.682405  0  3.859062  0  0  0.621741  0  4.173153  0  0  0.654899  0  4.166556  0  1.608663  0  0.217188  0.599276  0  4.177217  0
N  N96  1  0.77641692  0.18435085  0.57511998  1  0  0.058659  0  3.616359  0  0  0.151511  0  3.826105  0  0  0.14048  0  3.851895  0  -1.243722  0  -0.206996  0.158381  0  3.809159  0
N  N97  1  0.27641710  0.31564901  0.42487982  1  0  0.05868  0  3.616383  0  0  0.151544  0  3.826111  0  0  0.140515  0  3.851898  0  -1.243723  0  -0.206985  0.158403  0  3.809158  0
N  N98  1  0.22358473  0.81564986  0.42488047  1  0  0.058697  0  3.616281  0  0  0.15154  0  3.826068  0  0  0.140511  0  3.851852  0  -1.243676  0  -0.207011  0.158408  0  3.809121  0
N  N99  1  0.72358254  0.68435072  0.57512052  1  0  0.058661  0  3.616403  0  0  0.151514  0  3.826157  0  0  0.140486  0  3.851942  0  -1.243778  0  -0.206985  0.158371  0  3.809205  0
O  O100  1  0.09850626  0.07679650  0.73033539  1  0  -0.839188  0  1.812851  0  0  -0.778332  0  1.986041  0  0  -0.800608  0  1.951603  0  -1.238192  0  -0.597372  -0.761973  0  2.010103  0
O  O101  1  0.59850809  0.42320139  0.26966494  1  0  -0.839187  0  1.81275  0  0  -0.77829  0  1.986051  0  0  -0.800565  0  1.951616  0  -1.23817  0  -0.597376  -0.761935  0  2.010097  0
O  O102  1  0.90149338  0.92320422  0.26966506  1  0  -0.839194  0  1.812845  0  0  -0.778342  0  1.986035  0  0  -0.800616  0  1.951599  0  -1.238206  0  -0.597391  -0.76198  0  2.010092  0
O  O103  1  0.40149256  0.57679636  0.73033519  1  0  -0.839186  0  1.812856  0  0  -0.778332  0  1.986041  0  0  -0.800608  0  1.951605  0  -1.238185  0  -0.597381  -0.761977  0  2.010089  0
O  O104  1  0.85555776  0.28337807  0.93941659  1  0  -0.628917  0  2.011469  0  0  -0.562961  0  2.229413  0  0  -0.588931  0  2.219681  0  -1.193431  0  -0.301807  -0.544906  0  2.23582  0
O  O105  1  0.35555693  0.21662475  0.06058353  1  0  -0.628914  0  2.011539  0  0  -0.562952  0  2.229472  0  0  -0.588915  0  2.219725  0  -1.193458  0  -0.301818  -0.544906  0  2.235897  0
O  O106  1  0.14444390  0.71662265  0.06058386  1  0  -0.628928  0  2.011431  0  0  -0.562965  0  2.229407  0  0  -0.588937  0  2.219663  0  -1.193419  0  -0.301816  -0.544911  0  2.235817  0
O  O107  1  0.64444272  0.78337695  0.93941628  1  0  -0.628983  0  2.011415  0  0  -0.562998  0  2.229385  0  0  -0.588969  0  2.219648  0  -1.193447  0  -0.301825  -0.544942  0  2.235792  0
O  O108  1  0.09421883  0.37639635  0.88838023  1  0  -0.85785  0  1.861984  0  0  -0.792356  0  2.062644  0  0  -0.816366  0  2.027991  0  -1.27428  0  -0.594223  -0.775293  0  2.086782  0
O  O109  1  0.59421965  0.12360352  0.11161884  1  0  -0.857863  0  1.861933  0  0  -0.792376  0  2.062609  0  0  -0.816384  0  2.027956  0  -1.27428  0  -0.594246  -0.775313  0  2.086746  0
O  O110  1  0.90577880  0.62360240  0.11161927  1  0  -0.857813  0  1.862014  0  0  -0.792385  0  2.062606  0  0  -0.816388  0  2.027942  0  -1.274144  0  -0.594219  -0.775321  0  2.086744  0
O  O111  1  0.40578200  0.87639621  0.88837929  1  0  -0.857823  0  1.861979  0  0  -0.792337  0  2.062652  0  0  -0.816339  0  2.027985  0  -1.274333  0  -0.594207  -0.775273  0  2.08679  0
O  O112  1  0.69925622  0.39520240  0.03939478  1  0  -0.648867  0  2.043899  0  0  -0.570609  0  2.284087  0  0  -0.601895  0  2.273765  0  -1.178177  0  -0.311769  -0.548738  0  2.290832  0
O  O113  1  0.19925539  0.10479845  0.96060439  1  0  -0.648823  0  2.043917  0  0  -0.570585  0  2.284125  0  0  -0.601871  0  2.273798  0  -1.178192  0  -0.311764  -0.548711  0  2.290872  0
O  O114  1  0.30074544  0.60479930  0.96060429  1  0  -0.648897  0  2.043865  0  0  -0.57062  0  2.284092  0  0  -0.601906  0  2.273767  0  -1.178219  0  -0.311775  -0.548745  0  2.290841  0
O  O115  1  0.80074425  0.89520030  0.03939437  1  0  -0.648925  0  2.043832  0  0  -0.570668  0  2.284074  0  0  -0.601953  0  2.273748  0  -1.178187  0  -0.311799  -0.548794  0  2.290821  0
O  O116  1  0.41102074  0.36119644  0.91398583  1  0  -0.834977  0  1.868834  0  0  -0.773282  0  2.057721  0  0  -0.797156  0  2.024154  0  -1.245675  0  -0.585292  -0.756024  0  2.08099  0
O  O117  1  0.91101956  0.13880441  0.08601481  1  0  -0.83494  0  1.868881  0  0  -0.77323  0  2.057752  0  0  -0.797103  0  2.024185  0  -1.245664  0  -0.585255  -0.755975  0  2.081021  0
O  O118  1  0.58897890  0.63880230  0.08601440  1  0  -0.834971  0  1.868799  0  0  -0.773243  0  2.057747  0  0  -0.797114  0  2.024182  0  -1.245665  0  -0.585291  -0.755987  0  2.081011  0
O  O119  1  0.08897908  0.86119828  0.91398511  1  0  -0.834934  0  1.868865  0  0  -0.773243  0  2.057725  0  0  -0.797117  0  2.024157  0  -1.245675  0  -0.585265  -0.755986  0  2.080994  0
O  O120  1  0.68086123  0.30890030  0.42527000  1  0  -0.628804  0  1.949268  0  0  -0.579051  0  2.176897  0  0  -0.604603  0  2.168638  0  -1.184118  0  -0.318258  -0.560962  0  2.182252  0
O  O121  1  0.18085940  0.19110154  0.57472853  1  0  -0.628704  0  1.949347  0  0  -0.57903  0  2.177014  0  0  -0.604581  0  2.168755  0  -1.184153  0  -0.318235  -0.560941  0  2.18237  0
O  O122  1  0.31914043  0.69110042  0.57472823  1  0  -0.628728  0  1.949278  0  0  -0.579038  0  2.176919  0  0  -0.604589  0  2.16866  0  -1.18414  0  -0.318259  -0.560948  0  2.182273  0
O  O123  1  0.81913924  0.80890016  0.42527128  1  0  -0.628773  0  1.949214  0  0  -0.579066  0  2.176835  0  0  -0.604618  0  2.168576  0  -1.184119  0  -0.318264  -0.560978  0  2.182191  0
O  O124  1  0.81274181  0.18565187  0.31028889  1  0  -0.677641  0  2.053218  0  0  -0.601873  0  2.299493  0  0  -0.632973  0  2.288948  0  -1.175492  0  -0.318187  -0.579651  0  2.305894  0
O  O125  1  0.31273998  0.31434800  0.68971018  1  0  -0.677702  0  2.05324  0  0  -0.601932  0  2.299492  0  0  -0.633031  0  2.288945  0  -1.175445  0  -0.318259  -0.579715  0  2.305907  0
O  O126  1  0.18726085  0.81434786  0.68971072  1  0  -0.677649  0  2.053199  0  0  -0.601883  0  2.299453  0  0  -0.632982  0  2.288908  0  -1.175451  0  -0.318222  -0.579669  0  2.305874  0
O  O127  1  0.68726067  0.68565173  0.31028869  1  0  -0.67769  0  2.053212  0  0  -0.601929  0  2.299465  0  0  -0.633026  0  2.288918  0  -1.175473  0  -0.318254  -0.579713  0  2.305884  0
O  O128  1  0.43112909  0.98431453  0.62749256  1  0  -0.601682  0  1.94294  0  0  -0.554643  0  2.1761  0  0  -0.578411  0  2.168452  0  -1.178108  0  -0.313173  -0.537852  0  2.181002  0
O  O129  1  0.93112992  0.51568605  0.37250769  1  0  -0.601578  0  1.942927  0  0  -0.554571  0  2.176064  0  0  -0.578339  0  2.168419  0  -1.178158  0  -0.313139  -0.53778  0  2.180966  0
O  O130  1  0.56887055  0.01568815  0.37250736  1  0  -0.601543  0  1.942818  0  0  -0.554494  0  2.175948  0  0  -0.578264  0  2.168303  0  -1.178117  0  -0.313111  -0.537704  0  2.180847  0
O  O131  1  0.06887073  0.48431270  0.62749181  1  0  -0.601515  0  1.942893  0  0  -0.55447  0  2.175988  0  0  -0.578237  0  2.168344  0  -1.178171  0  -0.313091  -0.537677  0  2.180884  0
O  O132  1  0.42782518  0.08104280  0.78868242  1  0  -0.692426  0  2.068981  0  0  -0.621476  0  2.322811  0  0  -0.648499  0  2.308158  0  -1.192121  0  -0.339077  -0.602479  0  2.332563  0
O  O133  1  0.92782601  0.41895607  0.21131802  1  0  -0.692371  0  2.069077  0  0  -0.621425  0  2.322833  0  0  -0.648441  0  2.308177  0  -1.192109  0  -0.339065  -0.60243  0  2.332587  0
O  O134  1  0.57217446  0.91895594  0.21131782  1  0  -0.692382  0  2.069045  0  0  -0.621418  0  2.322851  0  0  -0.648435  0  2.308195  0  -1.192108  0  -0.339067  -0.602423  0  2.332603  0
O  O135  1  0.07217363  0.58104366  0.78868159  1  0  -0.69234  0  2.069057  0  0  -0.621412  0  2.322842  0  0  -0.64843  0  2.308187  0  -1.192083  0  -0.339061  -0.602417  0  2.332594  0
O  O136  1  0.80579676  0.42634692  0.78969958  1  0  -0.244138  0  2.402728  0  0  -0.172958  0  2.629239  0  0  -0.192846  0  2.636989  0  -1.078698  0  -0.162573  -0.159184  0  2.62365  0
O  O137  1  0.30579694  0.07365394  0.21030033  1  0  -0.244178  0  2.402621  0  0  -0.172977  0  2.629157  0  0  -0.192869  0  2.636908  0  -1.07867  0  -0.162593  -0.159204  0  2.62357  0
O  O138  1  0.19420188  0.57365084  0.21029981  1  0  -0.24415  0  2.402601  0  0  -0.172979  0  2.629137  0  0  -0.192867  0  2.636888  0  -1.07869  0  -0.162595  -0.159206  0  2.623548  0
O  O139  1  0.69420371  0.92634777  0.78969948  1  0  -0.244109  0  2.40262  0  0  -0.172976  0  2.629169  0  0  -0.192864  0  2.636921  0  -1.078669  0  -0.162571  -0.159203  0  2.623582  0
