# generated using pymatgen
data_CuH15C19(NO)4
_symmetry_space_group_name_H-M   'P 1'
_cell_length_a   8.27894459
_cell_length_b   11.16402833
_cell_length_c   11.16399318
_cell_angle_alpha   100.06337414
_cell_angle_beta   109.98622494
_cell_angle_gamma   109.98680447
_symmetry_Int_Tables_number   1
_chemical_formula_structural   CuH15C19(NO)4
_chemical_formula_sum   'Cu2 H30 C38 N8 O8'
_cell_volume   860.20795958
_cell_formula_units_Z   2
loop_
 _symmetry_equiv_pos_site_id
 _symmetry_equiv_pos_as_xyz
  1  'x, y, z'
loop_
 _atom_site_type_symbol
 _atom_site_label
 _atom_site_symmetry_multiplicity
 _atom_site_fract_x
 _atom_site_fract_y
 _atom_site_fract_z
 _atom_site_occupancy
 _atom_site_hle17_ddec_charge
 _atom_site_hle17_ddec_spin_density
 _atom_site_hle17_ddec_sum_bond_order
 _atom_site_hle17_magmom
 _atom_site_hse06_10hf_ddec_charge
 _atom_site_hse06_10hf_ddec_spin_density
 _atom_site_hse06_10hf_ddec_sum_bond_order
 _atom_site_hse06_10hf_magmom
 _atom_site_hse06_ddec_charge
 _atom_site_hse06_ddec_spin_density
 _atom_site_hse06_ddec_sum_bond_order
 _atom_site_hse06_magmom
 _atom_site_pbe_cm5_charge
 _atom_site_pbe_ddec_charge
 _atom_site_pbe_ddec_spin_density
 _atom_site_pbe_ddec_sum_bond_order
 _atom_site_pbe_magmom
Cu  Cu0  1  0.00000063  0.50000079  0.00000016  1  0.83506  0.710691  1.776813  0.496  0.810799  0.792747  2.158997  0.605  0.90276  0.866895  2.088858  0.687  0.742696  0.755151  0.739634  2.209465  0.555
Cu  Cu1  1  0.00000037  0.99999954  0.50000012  1  0.835081  -0.710697  1.776742  -0.496  0.810841  -0.792756  2.158946  -0.605  0.902852  -0.866913  2.088849  -0.687  0.742693  0.755153  -0.739633  2.209471  -0.555
H  H2  1  0.83812731  0.67015161  0.14223138  1  0.112077  8.6e-05  0.990259  0.0  0.119744  0.000119  1.057079  0.0  0.122742  9.6e-05  1.053333  0.0  0.134415  0.117508  0.000131  1.059755  0.0
H  H3  1  0.16187623  0.85776764  0.32984844  1  0.112086  -8.6e-05  0.990244  0.0  0.119735  -0.000119  1.057085  0.0  0.122734  -9.6e-05  1.053337  0.0  0.134431  0.117502  -0.000131  1.059762  0.0
H  H4  1  0.16187462  0.32985089  0.85776847  1  0.112096  8.3e-05  0.990246  0.0  0.11976  0.000119  1.057066  0.0  0.122759  9.6e-05  1.05332  0.0  0.134413  0.117524  0.000131  1.059741  0.0
H  H5  1  0.83812387  0.14223184  0.67015132  1  0.112115  -8.7e-05  0.990237  0.0  0.119777  -0.000119  1.057061  0.0  0.122776  -9.6e-05  1.053313  0.0  0.134435  0.117541  -0.000131  1.059734  0.0
H  H6  1  0.63771782  0.44941112  0.73146601  1  0.106021  0.000124  0.967596  0.0  0.118061  0.000295  1.022561  0.001  0.119927  0.000222  1.022205  0.0  0.116894  0.116667  0.000358  1.022943  0.001
H  H7  1  0.36228605  0.26853166  0.55058908  1  0.106024  -0.000126  0.967597  0.0  0.118071  -0.000295  1.022553  -0.001  0.119938  -0.000221  1.022194  0.0  0.116898  0.116688  -0.000357  1.022916  -0.001
H  H8  1  0.36228289  0.55058937  0.26853408  1  0.106032  0.000123  0.967557  0.0  0.118074  0.000295  1.02252  0.001  0.11994  0.000221  1.022164  0.0  0.116897  0.11668  0.000358  1.022901  0.001
H  H9  1  0.63771474  0.73146682  0.44941069  1  0.106033  -0.000125  0.967587  0.0  0.118066  -0.000295  1.022561  -0.001  0.119932  -0.000222  1.022203  0.0  0.116885  0.116654  -0.000358  1.022962  -0.001
H  H10  1  0.39690662  0.56654238  0.75611346  1  0.114993  0.000547  0.960035  0.001  0.125851  0.000445  1.020374  0.001  0.128201  0.00033  1.019551  0.0  0.121697  0.124387  0.000556  1.020828  0.001
H  H11  1  0.60309710  0.24388714  0.43345686  1  0.114994  -0.00055  0.960049  -0.001  0.125847  -0.000445  1.020392  -0.001  0.128198  -0.00033  1.019568  0.0  0.121672  0.124378  -0.000556  1.02085  -0.001
H  H12  1  0.60309410  0.43345811  0.24388842  1  0.114999  0.00055  0.959998  0.001  0.125857  0.000445  1.020339  0.001  0.128207  0.00033  1.019515  0.0  0.121702  0.12439  0.000556  1.020793  0.001
H  H13  1  0.39690240  0.75611133  0.56654257  1  0.114974  -0.000549  0.960071  -0.001  0.125823  -0.000445  1.02042  -0.001  0.128174  -0.00033  1.019596  0.0  0.121668  0.124358  -0.000556  1.020881  -0.001
H  H14  1  0.58388492  0.74171092  0.13394686  1  0.101093  -7.9e-05  0.916536  0.0  0.117481  -3.2e-05  0.975268  0.0  0.118202  -2.8e-05  0.975242  0.0  0.118649  0.116676  -3.7e-05  0.975812  0.0
H  H15  1  0.41611734  0.86605439  0.25828680  1  0.101077  7.3e-05  0.916567  0.0  0.117489  3.2e-05  0.975288  0.0  0.1182  2.8e-05  0.975256  0.0  0.118659  0.116684  3.7e-05  0.975833  0.0
H  H16  1  0.41611511  0.25829057  0.86605412  1  0.101105  -8.5e-05  0.916529  0.0  0.117493  -3.3e-05  0.975261  0.0  0.118213  -2.8e-05  0.975233  0.0  0.118653  0.116686  -3.7e-05  0.975807  0.0
H  H17  1  0.58388337  0.13394610  0.74171329  1  0.101083  7.9e-05  0.916538  0.0  0.117473  3.2e-05  0.975251  0.0  0.118196  2.8e-05  0.975224  0.0  0.118651  0.116667  3.7e-05  0.975794  0.0
H  H18  1  0.38155502  0.69102827  0.97643187  1  0.103397  0.000118  0.945579  0.0  0.114291  9.7e-05  1.014126  0.0  0.116492  2.4e-05  1.012382  0.0  0.113583  0.112651  0.000169  1.015497  0.0
H  H19  1  0.61844988  0.02356915  0.30897036  1  0.103395  -0.000127  0.945525  0.0  0.114282  -9.7e-05  1.014087  0.0  0.116472  -2.4e-05  1.01234  0.0  0.113569  0.112641  -0.000169  1.015458  0.0
H  H20  1  0.61844569  0.30897222  0.02356822  1  0.103395  0.000116  0.945577  0.0  0.114287  9.7e-05  1.014127  0.0  0.116486  2.4e-05  1.012384  0.0  0.113581  0.112645  0.000169  1.015498  0.0
H  H21  1  0.38155022  0.97643034  0.69102940  1  0.103394  -0.000125  0.945521  0.0  0.114236  -9.7e-05  1.014099  0.0  0.116437  -2.4e-05  1.012357  0.0  0.113565  0.1126  -0.000169  1.015469  0.0
H  H22  1  0.39857740  0.81721431  0.81721645  1  0.094884  -1e-06  0.948174  0.0  0.108051  -0.0  1.010952  0.0  0.110787  0.0  1.010062  0.0  0.100659  0.106364  -0.0  1.011362  0.0
H  H23  1  0.60142270  0.18278517  0.18278331  1  0.094881  -2e-06  0.948177  0.0  0.108045  -0.0  1.010956  0.0  0.110782  -0.0  1.010065  0.0  0.100651  0.106353  0.0  1.011361  0.0
H  H24  1  0.87411972  0.95355480  0.20535374  1  0.088655  0.000255  0.972318  0.0  0.092476  0.000243  1.049907  0.0  0.094916  0.000235  1.047935  0.0  0.096088  0.090272  0.000237  1.052068  0.0
H  H25  1  0.12588435  0.79464539  0.04644376  1  0.088673  -0.000259  0.972298  0.0  0.09248  -0.000243  1.049893  0.0  0.094919  -0.000235  1.047925  0.0  0.096106  0.090276  -0.000237  1.052056  0.0
H  H26  1  0.12588107  0.04644368  0.79464513  1  0.088657  0.000254  0.972306  0.0  0.092471  0.000243  1.049903  0.0  0.094911  0.000236  1.047932  0.0  0.096094  0.090269  0.000237  1.052064  0.0
H  H27  1  0.87411378  0.20535508  0.95355657  1  0.088643  -0.000256  0.972341  0.0  0.092477  -0.000243  1.049902  0.0  0.094918  -0.000235  1.047931  0.0  0.096092  0.090272  -0.000237  1.052062  0.0
H  H28  1  0.03055976  0.16849539  0.16849560  1  0.088465  1e-06  0.941648  0.0  0.102776  -0.0  0.994347  0.0  0.10538  -0.0  0.993628  0.0  0.100438  0.101006  0.0  0.994885  0.0
H  H29  1  0.96944034  0.83150409  0.83150416  1  0.088501  3e-06  0.94166  0.0  0.102813  -0.0  0.994359  0.0  0.105415  -0.0  0.993641  0.0  0.100445  0.10105  -0.0  0.994904  0.0
H  H30  1  0.97363232  0.66409641  0.66409821  1  0.113721  2e-06  0.948391  0.0  0.119336  0.0  1.016199  0.0  0.123156  -0.0  1.013824  0.0  0.106747  0.115776  -0.0  1.019119  0.0
H  H31  1  0.02636331  0.33590203  0.33590023  1  0.113731  3e-06  0.948414  0.0  0.11935  0.0  1.016206  0.0  0.123172  0.0  1.013829  0.0  0.106729  0.115763  0.0  1.019144  0.0
C  C32  1  0.75652327  0.62673639  0.03331526  1  0.159105  -0.005084  3.62302  -0.005  0.099717  -0.001089  3.889548  -0.001  0.115835  -0.001814  3.902249  -0.002  0.140658  0.08944  -0.000602  3.880838  -0.001
C  C33  1  0.24347428  0.96668192  0.37325910  1  0.159217  0.00508  3.622875  0.005  0.099839  0.001088  3.889423  0.001  0.115963  0.001814  3.902122  0.002  0.140662  0.089559  0.000602  3.880718  0.001
C  C34  1  0.24347494  0.37326207  0.96668474  1  0.159111  -0.005057  3.622914  -0.005  0.099703  -0.001089  3.889484  -0.001  0.115822  -0.001814  3.902184  -0.002  0.140658  0.089426  -0.000602  3.880772  -0.001
C  C35  1  0.75652712  0.03331757  0.62674189  1  0.159129  0.005092  3.622808  0.005  0.09973  0.001087  3.889388  0.001  0.115853  0.001814  3.902086  0.002  0.140637  0.089459  0.000602  3.880672  0.001
C  C36  1  0.64616582  0.51533359  0.81918492  1  -0.009439  0.000397  3.746416  0.0  -0.037517  0.001105  4.008489  0.001  -0.034027  0.000443  4.028882  0.0  -0.006779  -0.03938  0.001614  3.99455  0.002
C  C37  1  0.35383747  0.18081258  0.48466648  1  -0.009424  -0.00041  3.746406  0.0  -0.037496  -0.001105  4.008484  -0.001  -0.034003  -0.000443  4.028877  0.0  -0.006756  -0.039371  -0.001613  3.994529  -0.002
C  C38  1  0.35383428  0.48466589  0.18081395  1  -0.00947  0.000408  3.746402  0.0  -0.037549  0.001104  4.008474  0.001  -0.03406  0.000443  4.028869  0.0  -0.006791  -0.039415  0.001614  3.994534  0.002
C  C39  1  0.64616203  0.81918589  0.51533206  1  -0.00938  -0.000402  3.746439  0.0  -0.037447  -0.001105  4.008495  -0.001  -0.033953  -0.000442  4.028887  0.0  -0.006729  -0.039293  -0.001614  3.99456  -0.002
C  C40  1  0.52698361  0.57262869  0.83030869  1  -0.054119  0.003368  3.672584  0.003  -0.094828  0.001938  3.928933  0.002  -0.092058  0.001705  3.945736  0.002  0.002749  -0.096536  0.002141  3.917088  0.002
C  C41  1  0.47301828  0.16969117  0.42737123  1  -0.054081  -0.003346  3.672576  -0.003  -0.094785  -0.001937  3.92891  -0.002  -0.092017  -0.001705  3.94571  -0.002  0.002764  -0.096491  -0.00214  3.917061  -0.002
C  C42  1  0.47301453  0.42737178  0.16969164  1  -0.054059  0.003358  3.672624  0.003  -0.094759  0.001938  3.928955  0.002  -0.091989  0.001705  3.945756  0.002  0.002774  -0.096468  0.00214  3.917105  0.002
C  C43  1  0.52698054  0.83030831  0.57263000  1  -0.054037  -0.003359  3.672618  -0.003  -0.094728  -0.001938  3.928938  -0.002  -0.091958  -0.001706  3.945735  -0.002  0.002809  -0.096434  -0.002141  3.917095  -0.002
C  C44  1  0.53780913  0.73543028  0.02759937  1  -0.052568  0.001013  3.619089  0.001  -0.119458  0.000752  3.86231  0.001  -0.1154  0.000542  3.872246  0.001  -0.048778  -0.122  0.000898  3.855579  0.001
C  C45  1  0.46219193  0.97240075  0.26456751  1  -0.052631  -0.000978  3.619107  -0.001  -0.119516  -0.000752  3.862346  -0.001  -0.115422  -0.000542  3.872253  -0.001  -0.048811  -0.122056  -0.000897  3.855612  -0.001
C  C46  1  0.46219158  0.26457021  0.97240072  1  -0.05258  0.001031  3.61912  0.001  -0.119453  0.000753  3.862294  0.001  -0.115403  0.000542  3.872254  0.001  -0.048789  -0.121998  0.000898  3.855558  0.001
C  C47  1  0.53780947  0.02759874  0.73543258  1  -0.052601  -0.000997  3.619088  -0.001  -0.119357  -0.000751  3.862172  -0.001  -0.11532  -0.000542  3.872152  -0.001  -0.048764  -0.121899  -0.000898  3.855441  -0.001
C  C48  1  0.53911531  0.89339215  0.89339399  1  -0.161247  2e-05  3.73159  0.0  -0.191405  0.0  3.976957  0.0  -0.194596  0.0  3.998797  0.0  -0.091805  -0.189106  -0.0  3.961885  0.0
C  C49  1  0.46088609  0.10660734  0.10660521  1  -0.161224  6.5e-05  3.731542  0.0  -0.191365  1e-06  3.976904  0.0  -0.194557  2e-06  3.99875  0.0  -0.091785  -0.189061  0.0  3.961813  0.0
C  C50  1  0.62748144  0.87091519  0.01269671  1  0.069202  -8e-06  3.783476  0.0  0.093309  -3.8e-05  4.017282  0.0  0.092211  -4.5e-05  4.042936  0.0  -0.01395  0.094185  -4e-06  3.999724  0.0
C  C51  1  0.37251982  0.98730365  0.12908242  1  0.069332  -8.4e-05  3.783395  0.0  0.093361  4.1e-05  4.017306  0.0  0.092248  4.2e-05  4.042954  0.0  -0.013897  0.094239  4e-06  3.999739  0.0
C  C52  1  0.37251737  0.12908428  0.98730272  1  0.069261  -5.1e-05  3.783496  0.0  0.093374  -4.1e-05  4.017287  0.0  0.092275  -4.6e-05  4.042939  0.0  -0.013898  0.094254  -4e-06  3.999718  0.0
C  C53  1  0.62748028  0.01269584  0.87091734  1  0.069333  -3.6e-05  3.783425  0.0  0.093369  3.8e-05  4.017283  0.0  0.092272  4.4e-05  4.042937  0.0  -0.013897  0.094246  4e-06  3.999725  0.0
C  C54  1  0.80457278  0.97058753  0.11190758  1  -0.112559  0.000244  3.72769  0.0  -0.134945  0.000187  3.97624  0.0  -0.138074  0.000159  3.998937  0.0  -0.091005  -0.132741  -3e-06  3.96099  0.0
C  C55  1  0.19542825  0.88809346  0.02941137  1  -0.112636  -0.000145  3.727712  0.0  -0.134975  -0.000191  3.976286  0.0  -0.138106  -0.000156  3.998992  0.0  -0.091064  -0.132772  3e-06  3.961043  0.0
C  C56  1  0.19542664  0.02941295  0.88809218  1  -0.112613  0.000284  3.727695  0.0  -0.134995  0.000189  3.976254  0.0  -0.138122  0.000161  3.998947  0.0  -0.091047  -0.132793  -3e-06  3.96101  0.0
C  C57  1  0.80457246  0.11190703  0.97058872  1  -0.112613  -0.000198  3.727713  0.0  -0.134985  -0.000189  3.976286  0.0  -0.138116  -0.000159  3.998988  0.0  -0.091051  -0.132781  3e-06  3.961033  0.0
C  C58  1  0.89210011  0.09127287  0.09127362  1  -0.046921  -2.6e-05  3.761555  0.0  -0.057157  1e-06  4.007514  0.0  -0.057816  -1e-06  4.028397  0.0  -0.089027  -0.056357  0.0  3.99276  0.0
C  C59  1  0.10789939  0.90872560  0.90872581  1  -0.046957  -7e-05  3.761563  0.0  -0.057203  1e-06  4.00752  0.0  -0.057858  -2e-06  4.028397  0.0  -0.089016  -0.056408  -0.0  3.992784  0.0
C  C60  1  0.96686657  0.44896678  0.74017078  1  0.627715  -0.005211  3.91969  -0.009  0.583986  -0.001006  4.225156  -0.004  0.620692  -0.001412  4.218086  -0.004  0.199644  0.55936  -0.000228  4.229063  -0.004
C  C61  1  0.03313925  0.25983313  0.55103657  1  0.62771  0.005208  3.919591  0.009  0.583982  0.001006  4.225079  0.004  0.620692  0.00141  4.218006  0.004  0.19961  0.559352  0.000228  4.228975  0.004
C  C62  1  0.03313474  0.55103472  0.25982874  1  0.627748  -0.005211  3.919664  -0.009  0.584053  -0.001006  4.225084  -0.004  0.62076  -0.001412  4.21801  -0.004  0.199667  0.559425  -0.000229  4.22899  -0.004
C  C63  1  0.96686146  0.74016736  0.44896442  1  0.627743  0.005208  3.91971  0.009  0.584027  0.001006  4.225172  0.004  0.620737  0.001411  4.218097  0.004  0.199636  0.559407  0.000228  4.229077  0.004
C  C64  1  0.99227950  0.47515365  0.61818430  1  -0.055318  0.012185  3.714477  0.012  -0.042542  0.006413  3.950858  0.007  -0.047164  0.004543  3.970093  0.005  -0.0107  -0.040655  0.006564  3.939972  0.007
C  C65  1  0.00772066  0.38181646  0.52484847  1  -0.055337  -0.01218  3.714484  -0.012  -0.042569  -0.006413  3.950882  -0.007  -0.04719  -0.004542  3.970114  -0.005  -0.010717  -0.040673  -0.006565  3.939977  -0.007
C  C66  1  0.00771802  0.52484581  0.38181391  1  -0.055298  0.012162  3.714528  0.012  -0.042537  0.006413  3.9509  0.007  -0.047158  0.004544  3.970135  0.005  -0.010675  -0.040645  0.006564  3.940001  0.007
C  C67  1  0.99227428  0.61818298  0.47514998  1  -0.055307  -0.01217  3.714673  -0.012  -0.042527  -0.006412  3.951037  -0.007  -0.047151  -0.004543  3.970272  -0.005  -0.0107  -0.04064  -0.006564  3.940155  -0.007
C  C68  1  0.98630652  0.59223258  0.59223225  1  -0.093322  -1.1e-05  3.705528  0.0  -0.126733  -0.0  3.956998  0.0  -0.126414  1e-06  3.974686  0.0  -0.084178  -0.127967  -0.0  3.948014  0.0
C  C69  1  0.01368652  0.40776584  0.40776554  1  -0.09331  -0.0  3.705491  0.0  -0.126714  1e-06  3.95695  0.0  -0.126397  0.0  3.974638  0.0  -0.084151  -0.127929  0.0  3.947954  0.0
N  N70  1  0.78848911  0.54981961  0.94671991  1  -0.363563  0.067733  3.375237  0.082  -0.31641  0.047577  3.690893  0.061  -0.347994  0.040695  3.709396  0.055  -0.388852  -0.297069  0.051221  3.680025  0.064
N  N71  1  0.21150966  0.05327739  0.45018054  1  -0.36368  -0.067727  3.375247  -0.082  -0.316556  -0.047575  3.690959  -0.061  -0.348162  -0.040691  3.70949  -0.055  -0.388892  -0.297205  -0.051221  3.680101  -0.064
N  N72  1  0.21150962  0.45018188  0.05327896  1  -0.363559  0.067717  3.375177  0.082  -0.316406  0.047578  3.69083  0.061  -0.347991  0.040695  3.709336  0.055  -0.388848  -0.297065  0.051222  3.679961  0.064
N  N73  1  0.78848795  0.94672007  0.54981913  1  -0.363603  -0.067736  3.375165  -0.082  -0.316461  -0.047575  3.690836  -0.061  -0.348066  -0.040691  3.70937  -0.055  -0.388851  -0.297109  -0.05122  3.679964  -0.064
N  N74  1  0.59882317  0.64200514  0.96606328  1  -0.045692  0.001456  3.553614  0.002  0.04953  0.001098  3.767572  0.001  0.034805  0.000795  3.792785  0.001  -0.237111  0.059337  0.001297  3.750331  0.002
N  N75  1  0.40117880  0.03393639  0.35799222  1  -0.045768  -0.001466  3.553589  -0.002  0.04947  -0.001099  3.767543  -0.001  0.034734  -0.000795  3.792734  -0.001  -0.237094  0.059277  -0.001297  3.750299  -0.002
N  N76  1  0.40117755  0.35799535  0.03393771  1  -0.045797  0.001443  3.553659  0.002  0.049415  0.001098  3.767643  0.001  0.034691  0.000795  3.792846  0.001  -0.237169  0.059222  0.001297  3.750396  0.002
N  N77  1  0.59882070  0.96606208  0.64200722  1  -0.045877  -0.001463  3.553712  -0.002  0.049312  -0.001098  3.767686  -0.001  0.034591  -0.000794  3.792887  -0.001  -0.237175  0.059119  -0.001297  3.750448  -0.002
O  O78  1  0.06332752  0.55161404  0.85000328  1  -0.584022  0.108299  2.023331  0.14  -0.560095  0.073441  2.302593  0.104  -0.603217  0.057716  2.296825  0.086  -0.318186  -0.531427  0.081159  2.306672  0.11
O  O79  1  0.93668001  0.14999989  0.44839210  1  -0.584028  -0.1083  2.023245  -0.14  -0.560121  -0.073439  2.302526  -0.104  -0.603255  -0.05771  2.296771  -0.086  -0.318221  -0.531445  -0.081165  2.306604  -0.11
O  O80  1  0.93667440  0.44838847  0.14999568  1  -0.584052  0.108298  2.023344  0.14  -0.560146  0.07344  2.302605  0.104  -0.603266  0.057716  2.296835  0.086  -0.318208  -0.531475  0.081163  2.30668  0.11
O  O81  1  0.06332138  0.84999961  0.55160888  1  -0.584058  -0.108295  2.023278  -0.14  -0.560156  -0.073439  2.302555  -0.104  -0.603289  -0.05771  2.296799  -0.086  -0.318227  -0.531482  -0.081157  2.306642  -0.11
O  O82  1  0.85180361  0.33506021  0.72891872  1  -0.620288  -0.001313  1.941032  0.0  -0.591477  -0.000705  2.187234  0.0  -0.617699  -0.001368  2.178572  -0.001  -0.321769  -0.573102  0.000758  2.192863  0.002
O  O83  1  0.14820306  0.27108651  0.66494574  1  -0.620272  0.00131  1.940995  0.0  -0.591425  0.000705  2.187149  0.0  -0.617655  0.001367  2.178494  0.001  -0.321713  -0.57305  -0.000758  2.192777  -0.002
O  O84  1  0.14820029  0.66494131  0.27108325  1  -0.620311  -0.001309  1.941059  0.0  -0.591504  -0.000705  2.187238  0.0  -0.617727  -0.001367  2.178575  -0.001  -0.321783  -0.573131  0.000758  2.192871  0.002
O  O85  1  0.85179895  0.72891400  0.33505557  1  -0.620319  0.001311  1.941036  0.0  -0.591491  0.000704  2.187209  0.0  -0.617721  0.001366  2.178553  0.001  -0.32176  -0.57311  -0.000759  2.192835  -0.002
