# generated using pymatgen
data_CuH9C5N5O3
_symmetry_space_group_name_H-M   'P 1'
_cell_length_a   7.39969602
_cell_length_b   9.75111038
_cell_length_c   12.76486209
_cell_angle_alpha   81.18074738
_cell_angle_beta   73.17710482
_cell_angle_gamma   67.70178118
_symmetry_Int_Tables_number   1
_chemical_formula_structural   CuH9C5N5O3
_chemical_formula_sum   'Cu4 H36 C20 N20 O12'
_cell_volume   814.72231185
_cell_formula_units_Z   4
loop_
 _symmetry_equiv_pos_site_id
 _symmetry_equiv_pos_as_xyz
  1  'x, y, z'
loop_
 _atom_site_type_symbol
 _atom_site_label
 _atom_site_symmetry_multiplicity
 _atom_site_fract_x
 _atom_site_fract_y
 _atom_site_fract_z
 _atom_site_occupancy
 _atom_site_hle17_ddec_charge
 _atom_site_hle17_ddec_spin_density
 _atom_site_hle17_ddec_sum_bond_order
 _atom_site_hle17_magmom
 _atom_site_hse06_10hf_ddec_charge
 _atom_site_hse06_10hf_ddec_spin_density
 _atom_site_hse06_10hf_ddec_sum_bond_order
 _atom_site_hse06_10hf_magmom
 _atom_site_hse06_ddec_charge
 _atom_site_hse06_ddec_spin_density
 _atom_site_hse06_ddec_sum_bond_order
 _atom_site_hse06_magmom
 _atom_site_pbe_cm5_charge
 _atom_site_pbe_ddec_charge
 _atom_site_pbe_ddec_spin_density
 _atom_site_pbe_ddec_sum_bond_order
 _atom_site_pbe_magmom
Cu  Cu0  1  0.49276172  0.57554161  0.84857473  1  0.76999  0.669662  1.837986  0.501  0.734433  0.76437  2.225138  0.618  0.820874  0.827957  2.166583  0.702  0.747526  0.681993  0.721091  2.266296  0.564
Cu  Cu1  1  0.91716510  0.92434332  0.65141309  1  0.767972  0.669018  1.839633  0.5  0.731705  0.763705  2.227108  0.617  0.817985  0.827434  2.168956  0.702  0.746931  0.679957  0.720349  2.267263  0.564
Cu  Cu2  1  0.50723751  0.42446526  0.15142526  1  0.770022  0.669677  1.837988  0.501  0.734477  0.764381  2.225152  0.618  0.820954  0.827971  2.166588  0.702  0.747529  0.682008  0.721094  2.266346  0.564
Cu  Cu3  1  0.08282457  0.07566468  0.34858879  1  0.767941  0.669033  1.839772  0.5  0.731656  0.763723  2.227305  0.617  0.817922  0.827443  2.16911  0.702  0.746941  0.679883  0.720356  2.267475  0.564
H  H4  1  0.45671428  0.34004930  0.77370962  1  0.379696  -0.000256  0.901943  0.0  0.359382  -0.000259  0.972533  0.0  0.368406  -0.000242  0.961264  0.0  0.286691  0.352798  -0.000259  0.981004  0.0
H  H5  1  0.57093720  0.15928621  0.72632075  1  0.380007  -0.000259  0.90148  0.0  0.359683  -0.000258  0.971909  0.0  0.368704  -0.000244  0.960635  0.0  0.287045  0.353172  -0.000253  0.980127  0.0
H  H6  1  0.54326972  0.65997873  0.22629597  1  0.379703  -0.000255  0.902013  0.0  0.359367  -0.000258  0.972658  0.0  0.368393  -0.000242  0.961383  0.0  0.286643  0.352778  -0.000259  0.981136  0.0
H  H7  1  0.42904850  0.84074071  0.27368513  1  0.380067  -0.000259  0.901524  0.0  0.359748  -0.000259  0.971924  0.0  0.368764  -0.000244  0.960648  0.0  0.287046  0.353235  -0.000253  0.980148  0.0
H  H8  1  0.30850628  0.32322378  0.88565312  1  0.385371  0.000226  0.933789  0.0  0.345682  0.00022  1.01428  0.0  0.356934  0.000164  0.998194  0.0  0.275233  0.33795  0.000288  1.025325  0.0
H  H9  1  0.51680436  0.17690366  0.61453323  1  0.385896  0.000226  0.933223  0.0  0.346215  0.000219  1.013637  0.0  0.357448  0.000164  0.997596  0.0  0.275974  0.338442  0.000277  1.024724  0.0
H  H10  1  0.69149033  0.67676976  0.11434656  1  0.385295  0.000226  0.933905  0.0  0.345605  0.000219  1.014397  0.0  0.356855  0.000164  0.998314  0.0  0.275205  0.337874  0.000287  1.025441  0.0
H  H11  1  0.48320909  0.82308987  0.38546515  1  0.385942  0.000226  0.933163  0.0  0.346256  0.000219  1.013586  0.0  0.357488  0.000165  0.997544  0.0  0.275948  0.338482  0.000277  1.024675  0.0
H  H12  1  0.68713458  0.66810624  0.68093488  1  0.27077  -0.002239  0.932785  -0.002  0.253703  -0.000576  1.005696  -0.001  0.261721  -0.001013  1.000447  -0.001  0.29323  0.248131  -0.000162  1.009635  0.0
H  H13  1  0.03641672  0.83184254  0.81906005  1  0.268835  -0.002245  0.934786  -0.002  0.251726  -0.000586  1.007631  -0.001  0.259755  -0.001026  1.002401  -0.001  0.292548  0.24598  -0.000145  1.011837  0.0
H  H14  1  0.31286732  0.33189504  0.31906252  1  0.270794  -0.00224  0.932658  -0.002  0.25372  -0.000577  1.005598  -0.001  0.261736  -0.001013  1.000352  -0.001  0.29324  0.248149  -0.000162  1.009532  0.0
H  H15  1  0.96358477  0.16815877  0.18093915  1  0.268823  -0.002245  0.934756  -0.002  0.251726  -0.000587  1.007598  -0.001  0.259753  -0.001026  1.002367  -0.001  0.292549  0.245978  -0.000145  1.011803  0.0
H  H16  1  0.15588974  0.38422434  0.70808044  1  0.099891  -0.000118  0.941994  0.0  0.114432  4.4e-05  1.005073  0.0  0.115798  4e-06  1.004344  0.0  0.105474  0.113156  8.1e-05  1.006059  0.0
H  H17  1  0.24841263  0.11565677  0.79199530  1  0.098989  -7.1e-05  0.942684  0.0  0.113115  8.5e-05  1.006467  0.0  0.114411  3.7e-05  1.005737  0.0  0.105259  0.111989  0.000139  1.00722  0.0
H  H18  1  0.84411489  0.61577696  0.29191846  1  0.099888  -0.000111  0.942092  0.0  0.114453  4.4e-05  1.005106  0.0  0.115822  4e-06  1.004384  0.0  0.105474  0.113176  8.1e-05  1.006095  0.0
H  H19  1  0.75158653  0.88434453  0.20800343  1  0.098948  -6.8e-05  0.942666  0.0  0.113101  8.5e-05  1.006468  0.0  0.114397  3.7e-05  1.005741  0.0  0.105252  0.111976  0.000139  1.007225  0.0
H  H20  1  0.00815338  0.57351264  0.72475268  1  0.124312  -0.000758  0.946763  0.0  0.138352  -0.000424  1.005775  0.0  0.141296  -0.000399  1.004368  0.0  0.109776  0.136076  -0.00042  1.007035  0.0
H  H21  1  0.30666454  0.92631763  0.77533834  1  0.124065  -0.000741  0.946033  0.0  0.138001  -0.000419  1.005625  0.0  0.140846  -0.000397  1.004237  0.0  0.109333  0.135673  -0.000423  1.006973  0.0
H  H22  1  0.99184878  0.42648646  0.27524842  1  0.124333  -0.00075  0.946805  0.0  0.138367  -0.000424  1.005804  0.0  0.141315  -0.000399  1.0044  0.0  0.10979  0.13609  -0.00042  1.007062  0.0
H  H23  1  0.69333240  0.07368258  0.22466176  1  0.124014  -0.00074  0.946023  0.0  0.138004  -0.000419  1.005603  0.0  0.14085  -0.000397  1.004216  0.0  0.109331  0.135676  -0.000423  1.006952  0.0
H  H24  1  0.95252325  0.46305240  0.57800349  1  0.06868  0.007444  0.919625  0.01  0.082561  0.004774  0.981799  0.006  0.081288  0.003227  0.983031  0.004  0.106155  0.082995  0.005858  0.981404  0.007
H  H25  1  0.99390684  0.03685033  0.92213378  1  0.068817  0.007403  0.919895  0.01  0.082647  0.004744  0.981837  0.006  0.08139  0.003206  0.983052  0.004  0.106123  0.083096  0.005835  0.981362  0.007
H  H26  1  0.04748253  0.53694894  0.42199847  1  0.068646  0.007442  0.919637  0.01  0.082528  0.004775  0.981794  0.006  0.081254  0.003227  0.983025  0.004  0.106146  0.082962  0.005858  0.981399  0.007
H  H27  1  0.00608889  0.96315322  0.07786721  1  0.068872  0.007403  0.91992  0.01  0.082696  0.004744  0.981817  0.006  0.081439  0.003207  0.983034  0.004  0.106155  0.083143  0.005835  0.981343  0.007
H  H28  1  0.85804053  0.34107477  0.67562088  1  0.074096  0.000708  0.923467  0.001  0.089303  0.000553  0.984982  0.001  0.087866  0.000316  0.987366  0.001  0.108547  0.090084  0.000742  0.983483  0.001
H  H29  1  0.87521109  0.15884662  0.82443569  1  0.07459  0.000734  0.922098  0.001  0.089283  0.000572  0.983626  0.001  0.087865  0.000325  0.98601  0.001  0.108134  0.089973  0.000771  0.982242  0.001
H  H30  1  0.14196817  0.65892539  0.32437596  1  0.0741  0.000709  0.923456  0.001  0.089283  0.000553  0.98498  0.001  0.08785  0.000316  0.987357  0.001  0.108519  0.09006  0.000743  0.983488  0.001
H  H31  1  0.12478821  0.84115355  0.17556207  1  0.074585  0.000734  0.922104  0.001  0.089283  0.000572  0.983585  0.001  0.087866  0.000326  0.985967  0.001  0.108119  0.08997  0.000771  0.982207  0.001
H  H32  1  0.57337612  0.44759301  0.60530711  1  0.116202  0.000157  0.933615  0.0  0.131328  0.000161  0.993121  0.0  0.133098  7e-05  0.991566  0.0  0.115911  0.130052  0.000264  0.994188  0.0
H  H33  1  0.62662166  0.05244974  0.89457133  1  0.116218  0.000168  0.933647  0.0  0.13132  0.000173  0.9928  0.0  0.13312  7.9e-05  0.991232  0.0  0.116081  0.129759  0.000277  0.994216  0.0
H  H34  1  0.42663286  0.55240495  0.39469061  1  0.116239  0.000156  0.933476  0.0  0.131319  0.000161  0.993065  0.0  0.133085  7e-05  0.991516  0.0  0.11589  0.130044  0.000264  0.994133  0.0
H  H35  1  0.37337634  0.94754825  0.10542887  1  0.116188  0.000161  0.933633  0.0  0.131258  0.000173  0.992803  0.0  0.133058  7.9e-05  0.991233  0.0  0.11607  0.129694  0.000278  0.994225  0.0
H  H36  1  0.60772372  0.60952801  0.53224848  1  0.110134  0.003652  0.921751  0.004  0.120079  0.002531  0.985176  0.003  0.121174  0.001778  0.984568  0.002  0.114456  0.119019  0.003061  0.985949  0.003
H  H37  1  0.74991935  0.89066411  0.96776486  1  0.109487  0.003698  0.921681  0.004  0.11964  0.002575  0.98482  0.003  0.120771  0.001808  0.984145  0.002  0.114336  0.118641  0.003105  0.985507  0.003
H  H38  1  0.39227688  0.39047108  0.46775136  1  0.109975  0.003651  0.921824  0.004  0.120005  0.002531  0.985186  0.003  0.1211  0.001778  0.984578  0.002  0.11444  0.118945  0.003061  0.985959  0.003
H  H39  1  0.25008477  0.10933499  0.03223570  1  0.109502  0.003695  0.921694  0.004  0.119629  0.002575  0.984817  0.003  0.120753  0.001808  0.984151  0.002  0.114325  0.118629  0.003105  0.985504  0.003
C  C40  1  0.92417069  0.42577457  0.85422425  1  0.334105  -0.004793  3.734839  -0.001  0.318045  -0.000952  4.004407  0.001  0.33269  -0.00234  4.018761  0.0  0.223274  0.30855  0.000118  3.994692  0.002
C  C41  1  0.20416544  0.07417398  0.64589446  1  0.33198  -0.004739  3.735666  -0.001  0.316833  -0.000918  4.004284  0.002  0.331362  -0.002332  4.018669  0.0  0.223497  0.307402  0.000177  3.994416  0.002
C  C42  1  0.07583396  0.57422343  0.14577636  1  0.334082  -0.004784  3.734959  -0.001  0.318017  -0.000953  4.004519  0.001  0.332669  -0.00234  4.018882  0.0  0.223248  0.308521  0.000118  3.9948  0.002
C  C43  1  0.79583673  0.92582509  0.35410382  1  0.331926  -0.00472  3.735557  -0.001  0.316726  -0.000918  4.004325  0.002  0.331302  -0.002332  4.01865  0.0  0.223424  0.307295  0.000177  3.994457  0.002
C  C44  1  0.00056785  0.46154002  0.73628144  1  -0.229505  0.000367  3.703141  0.001  -0.269527  0.000343  3.944442  0.001  -0.273454  0.000165  3.954581  0.001  -0.154353  -0.266857  0.000478  3.937798  0.001
C  C45  1  0.19860442  0.03829336  0.76382996  1  -0.227438  0.000355  3.70209  0.001  -0.26854  0.000338  3.944304  0.001  -0.272155  0.000157  3.9542  0.001  -0.154137  -0.265895  0.000475  3.937559  0.001
C  C46  1  0.99943627  0.53845908  0.26371912  1  -0.229534  0.000341  3.703297  0.001  -0.269554  0.000344  3.944557  0.001  -0.273499  0.000166  3.954708  0.001  -0.154364  -0.266885  0.000478  3.937917  0.001
C  C47  1  0.80139473  0.96170794  0.23616877  1  -0.227198  0.000345  3.701873  0.001  -0.268465  0.000338  3.944255  0.001  -0.272096  0.000158  3.954145  0.001  -0.154098  -0.265815  0.000475  3.937497  0.001
C  C48  1  0.87497637  0.45001186  0.66474371  1  0.05887  -0.003128  3.617031  -0.004  0.004385  0.000591  3.888744  -0.001  0.010758  -0.000966  3.903887  -0.002  -0.063898  0.00071  0.002003  3.878785  0.0
C  C49  1  0.99009441  0.04984882  0.83534524  1  0.05811  -0.003017  3.615068  -0.004  0.004993  0.000698  3.884986  -0.001  0.011284  -0.000899  3.900061  -0.002  -0.063187  0.001361  0.002095  3.875108  0.0
C  C50  1  0.12502801  0.54998834  0.33525602  1  0.058866  -0.003116  3.617119  -0.004  0.004433  0.000589  3.888724  -0.001  0.010814  -0.000966  3.903871  -0.002  -0.063851  0.000758  0.002001  3.878764  0.0
C  C51  1  0.00990199  0.95015250  0.16465482  1  0.05794  -0.00301  3.61524  -0.004  0.004957  0.000699  3.88506  -0.001  0.011246  -0.0009  3.900134  -0.002  -0.063195  0.001326  0.002095  3.875183  0.0
C  C52  1  0.55469315  0.56325520  0.61438798  1  -0.149691  -0.003279  3.645926  -0.004  -0.202556  0.000565  3.902915  -0.001  -0.20177  -0.000435  3.912372  -0.002  -0.075793  -0.20292  0.001394  3.896924  -0.001
C  C53  1  0.73265747  0.93677521  0.88560546  1  -0.151192  -0.0033  3.645582  -0.004  -0.204088  0.000543  3.901584  -0.001  -0.203344  -0.00045  3.910981  -0.002  -0.076919  -0.20429  0.001388  3.895927  -0.001
C  C54  1  0.44530888  0.43674500  0.38561127  1  -0.1494  -0.003273  3.645793  -0.004  -0.202372  0.000566  3.902868  -0.001  -0.201587  -0.000432  3.912328  -0.001  -0.07576  -0.202743  0.001394  3.896883  -0.001
C  C55  1  0.26733584  0.06322277  0.11439379  1  -0.151127  -0.003274  3.64556  -0.004  -0.203824  0.000542  3.901381  -0.001  -0.203076  -0.000448  3.910779  -0.002  -0.076842  -0.204028  0.001388  3.89573  -0.001
C  C56  1  0.33383701  0.65106911  0.66154031  1  0.662007  -0.008056  3.84982  -0.006  0.626008  -0.001335  4.151752  -0.001  0.662129  -0.001258  4.146086  -0.001  0.204374  0.601549  -0.001313  4.154101  -0.001
C  C57  1  0.64689122  0.84883526  0.83845881  1  0.663135  -0.008067  3.845629  -0.006  0.626741  -0.001323  4.148086  -0.001  0.662872  -0.001241  4.142354  -0.001  0.204952  0.6021  -0.00137  4.150469  -0.001
C  C58  1  0.66615397  0.34892882  0.33845564  1  0.661875  -0.00806  3.84964  -0.006  0.625988  -0.001337  4.151458  -0.001  0.66211  -0.001261  4.145794  -0.001  0.204435  0.601527  -0.001315  4.153803  -0.001
C  C59  1  0.35310131  0.15115614  0.16154746  1  0.663131  -0.008085  3.845468  -0.006  0.626597  -0.001322  4.148082  -0.001  0.662727  -0.001241  4.142351  -0.001  0.204886  0.601953  -0.001369  4.150466  -0.001
N  N60  1  0.73288752  0.40444312  0.01315978  1  -0.063421  0.04837  3.204316  0.061  -0.037669  0.039531  3.532215  0.053  -0.052864  0.0335  3.549394  0.048  -0.124997  -0.029497  0.043015  3.523316  0.055
N  N61  1  0.15061676  0.09534047  0.48688897  1  -0.05902  0.048251  3.203773  0.061  -0.032716  0.039462  3.530852  0.053  -0.047792  0.033461  3.547937  0.048  -0.123658  -0.024762  0.042871  3.522088  0.055
N  N62  1  0.26711414  0.59555375  0.98684016  1  -0.063393  0.04834  3.204392  0.061  -0.037618  0.039532  3.532258  0.053  -0.052802  0.033495  3.549427  0.048  -0.124963  -0.029454  0.043013  3.52336  0.055
N  N63  1  0.84938150  0.90465861  0.51311041  1  -0.058943  0.048256  3.203748  0.061  -0.032639  0.03946  3.530807  0.053  -0.047725  0.033459  3.54791  0.048  -0.123598  -0.024691  0.042869  3.522044  0.055
N  N64  1  0.92072965  0.33443569  0.01891837  1  -0.041785  -0.00331  2.953404  0.0  -0.033886  0.000299  3.245719  0.002  -0.026009  -0.002528  3.254698  0.0  -0.08347  -0.038565  0.002373  3.240022  0.004
N  N65  1  0.27415363  0.16538359  0.48118650  1  -0.046232  -0.003192  2.952741  0.0  -0.038686  0.000313  3.245145  0.002  -0.030814  -0.002528  3.254057  0.0  -0.08495  -0.043434  0.002384  3.239519  0.004
N  N66  1  0.07927187  0.66556231  0.98108255  1  -0.041872  -0.003289  2.953404  0.0  -0.033977  0.000297  3.245715  0.002  -0.026103  -0.002525  3.254691  0.0  -0.083519  -0.038656  0.002373  3.240024  0.004
N  N67  1  0.72584488  0.83461660  0.51881204  1  -0.046301  -0.003205  2.952833  0.0  -0.038753  0.000314  3.245223  0.002  -0.030879  -0.002528  3.254139  0.0  -0.085  -0.0435  0.002384  3.2396  0.004
N  N68  1  0.04346059  0.34616562  0.92040719  1  -0.334733  0.008147  3.035293  0.011  -0.290267  0.004886  3.304617  0.007  -0.30434  0.003378  3.314232  0.005  -0.211406  -0.280973  0.006196  3.298078  0.008
N  N69  1  0.31001937  0.15374790  0.57974185  1  -0.332716  0.007957  3.03458  0.01  -0.288518  0.004778  3.303554  0.007  -0.302524  0.003334  3.313173  0.005  -0.210685  -0.279099  0.006059  3.296873  0.008
N  N70  1  0.95654082  0.65383015  0.07959359  1  -0.334633  0.008141  3.035179  0.011  -0.290189  0.004885  3.304518  0.007  -0.304261  0.00338  3.314132  0.005  -0.211374  -0.280897  0.006196  3.297983  0.008
N  N71  1  0.68997979  0.84625340  0.42025688  1  -0.332682  0.007952  3.034592  0.01  -0.288446  0.004778  3.303571  0.007  -0.30247  0.003333  3.313179  0.005  -0.210636  -0.27903  0.006059  3.296891  0.008
N  N72  1  0.67260830  0.56479746  0.68896415  1  -0.352486  0.121089  3.262677  0.157  -0.317962  0.076514  3.549351  0.106  -0.353034  0.058121  3.568484  0.088  -0.489578  -0.297378  0.086527  3.538165  0.113
N  N73  1  0.92663020  0.93517393  0.81105816  1  -0.350072  0.121276  3.264909  0.157  -0.315019  0.076716  3.549674  0.106  -0.350101  0.058258  3.568886  0.088  -0.488783  -0.29438  0.086684  3.538449  0.114
N  N74  1  0.32739267  0.43520496  0.31103501  1  -0.35256  0.121084  3.262722  0.157  -0.318032  0.076511  3.549397  0.106  -0.353114  0.058118  3.568541  0.088  -0.489589  -0.297435  0.086526  3.538193  0.113
N  N75  1  0.07336673  0.06482627  0.18894195  1  -0.350102  0.121266  3.265226  0.157  -0.315149  0.076713  3.549994  0.106  -0.35023  0.058257  3.569207  0.088  -0.488817  -0.294491  0.086683  3.538741  0.114
N  N76  1  0.72929073  0.46331629  0.91056315  1  -0.296112  0.05721  3.191785  0.074  -0.265305  0.04429  3.508539  0.06  -0.290633  0.036898  3.526695  0.054  -0.255036  -0.250577  0.048254  3.498816  0.062
N  N77  1  0.10322721  0.03659530  0.58949780  1  -0.295529  0.057257  3.193518  0.074  -0.264642  0.044281  3.509344  0.06  -0.289882  0.036902  3.527418  0.054  -0.254903  -0.250059  0.048253  3.499648  0.062
N  N78  1  0.27071225  0.53667946  0.08943606  1  -0.296108  0.057227  3.191871  0.074  -0.265312  0.04429  3.508626  0.06  -0.290652  0.036899  3.526791  0.054  -0.255045  -0.250576  0.048255  3.498901  0.062
N  N79  1  0.89677365  0.96340489  0.41050122  1  -0.295574  0.057254  3.193506  0.074  -0.264656  0.04428  3.509355  0.06  -0.289904  0.036903  3.5274  0.054  -0.254899  -0.250067  0.048253  3.499655  0.062
O  O80  1  0.21136569  0.69579512  0.60340103  1  -0.573626  0.021886  1.942315  0.03  -0.552328  0.008852  2.185911  0.013  -0.583007  0.00341  2.178429  0.007  -0.312589  -0.529098  0.015853  2.189299  0.022
O  O81  1  0.51114634  0.80399501  0.89651116  1  -0.573362  0.021787  1.940495  0.03  -0.552006  0.008745  2.184299  0.013  -0.582581  0.003338  2.176599  0.006  -0.312401  -0.528707  0.015734  2.187785  0.022
O  O82  1  0.78863680  0.30419512  0.39660155  1  -0.57374  0.021889  1.942073  0.03  -0.552455  0.008852  2.185613  0.013  -0.583135  0.003406  2.178123  0.007  -0.312687  -0.529218  0.015854  2.188997  0.022
O  O83  1  0.48886087  0.19599189  0.10349125  1  -0.573441  0.021803  1.940053  0.03  -0.55205  0.008747  2.183907  0.013  -0.582629  0.003337  2.176205  0.006  -0.312428  -0.528748  0.01574  2.187401  0.022
O  O84  1  0.28315146  0.67291224  0.76577008  1  -0.602013  0.088262  2.111485  0.125  -0.57161  0.056835  2.397801  0.087  -0.614986  0.042295  2.391599  0.07  -0.323993  -0.543225  0.065896  2.402522  0.096
O  O85  1  0.72218203  0.82703735  0.73422120  1  -0.601822  0.088337  2.109601  0.125  -0.571449  0.056819  2.396311  0.087  -0.614824  0.042319  2.390127  0.07  -0.323853  -0.543085  0.06606  2.400557  0.096
O  O86  1  0.71684666  0.32708794  0.23422744  1  -0.601885  0.088252  2.111524  0.125  -0.57154  0.05683  2.397804  0.087  -0.614922  0.042292  2.391615  0.07  -0.323979  -0.543155  0.065892  2.402525  0.096
O  O87  1  0.27781285  0.17295733  0.26578102  1  -0.601744  0.088325  2.109854  0.125  -0.571338  0.056813  2.396677  0.087  -0.614704  0.042316  2.390478  0.07  -0.323809  -0.542971  0.066052  2.400924  0.096
O  O88  1  0.45284903  0.31128165  0.85083362  1  -0.810242  -0.001018  1.854302  0.0  -0.7759  -0.001535  2.049293  0.0  -0.793365  -0.001909  2.019735  -0.001  -0.595628  -0.763299  -0.001031  2.070099  0.0
O  O89  1  0.61443236  0.18895330  0.64932939  1  -0.811189  -0.001074  1.853538  0.0  -0.776909  -0.001543  2.049141  0.0  -0.794352  -0.001903  2.019504  -0.001  -0.596639  -0.764485  -0.001047  2.069804  0.0
O  O90  1  0.54714996  0.68870855  0.14916542  1  -0.810236  -0.001019  1.854473  0.0  -0.775875  -0.001535  2.049458  0.0  -0.79335  -0.001909  2.019905  -0.001  -0.595583  -0.763255  -0.00103  2.070242  0.0
O  O91  1  0.38558189  0.81103690  0.35066992  1  -0.811261  -0.001074  1.853554  0.0  -0.776973  -0.001543  2.049119  0.0  -0.7944  -0.001903  2.019495  -0.001  -0.596574  -0.76454  -0.001047  2.069774  0.0
