# generated using pymatgen
data_Zn4H21C48N4Cl5O24
_symmetry_space_group_name_H-M   'P 1'
_cell_length_a   9.68566555
_cell_length_b   10.97290189
_cell_length_c   21.92962014
_cell_angle_alpha   89.85022428
_cell_angle_beta   89.39917002
_cell_angle_gamma   90.06058317
_symmetry_Int_Tables_number   1
_chemical_formula_structural   Zn4H21C48N4Cl5O24
_chemical_formula_sum   'Zn4 H21 C48 N4 Cl5 O24'
_cell_volume   2330.53942937
_cell_formula_units_Z   1
loop_
 _symmetry_equiv_pos_site_id
 _symmetry_equiv_pos_as_xyz
  1  'x, y, z'
loop_
 _atom_site_type_symbol
 _atom_site_label
 _atom_site_symmetry_multiplicity
 _atom_site_fract_x
 _atom_site_fract_y
 _atom_site_fract_z
 _atom_site_occupancy
 _atom_site_pbe_bader_charge
 _atom_site_pbe_bader_spin_density
 _atom_site_pbe_cm5_charge
 _atom_site_pbe_ddec_charge
 _atom_site_pbe_ddec_spin_density
 _atom_site_pbe_ddec_sum_bond_order
 _atom_site_pbe_magmom
Zn  Zn0  1  0.64841596  0.50744996  0.50093232  1  1.285498  0  0.666203  0.831585  0  2.394611  0
Zn  Zn1  1  0.36278629  0.51268201  0.49261675  1  1.281754  0  0.674351  0.819939  0  2.443076  0
Zn  Zn2  1  0.35624358  0.49750959  0.00154270  1  1.29257  0  0.670398  0.831287  0  2.412418  0
Zn  Zn3  1  0.64405846  0.50409233  0.99307250  1  1.274935  0  0.673579  0.817745  0  2.402908  0
H  H4  1  0.13178707  0.66319846  0.55402072  1  0.18786  0  0.14204  0.130728  0  0.97301  0
H  H5  1  0.14748262  0.35441763  0.44430674  1  0.193997  0  0.135701  0.1319  0  0.981239  0
H  H6  1  0.86890852  0.65072659  0.55583518  1  0.159904  0  0.147035  0.132199  0  0.946913  0
H  H7  1  0.72440099  0.90636423  0.49329891  1  0.103127  0  0.107579  0.113717  0  0.993295  0
H  H8  1  0.28573131  0.88609792  0.52309131  1  0.083287  0  0.107699  0.12593  0  1.004644  0
H  H9  1  0.70977596  0.13414337  0.49809372  1  0.105417  0  0.094464  0.097113  0  1.044754  0
H  H10  1  0.65278374  0.36001224  0.86498458  1  0.066937  0  0.104694  0.106297  0  1.074575  0
H  H11  1  0.64030576  0.31825576  0.63942953  1  0.110006  0  0.109667  0.128746  0  1.007558  0
H  H12  1  0.30366090  0.45714364  0.19265858  1  0.102315  0  0.098915  0.102696  0  1.025759  0
H  H13  1  0.74389402  0.50681499  0.18528220  1  0.103125  0  0.105066  0.121594  0  1.000276  0
H  H14  1  0.31154588  0.46986904  0.30662159  1  0.096273  0  0.107535  0.114512  0  0.996357  0
H  H15  1  0.88600185  0.60791083  0.91373651  1  0.179475  0  0.148684  0.134709  0  0.943557  0
H  H16  1  0.84879714  0.38643571  0.06742973  1  0.180306  0  0.129434  0.127014  0  1.01249  0
H  H17  1  0.14676957  0.59874088  0.92122083  1  0.177081  0  0.137859  0.125991  0  1.007399  0
H  H18  1  0.30506598  0.88747811  0.95496745  1  0.146333  0  0.110144  0.121015  0  0.993082  0
H  H19  1  0.70118628  0.88232551  0.04182691  1  0.108073  0  0.110068  0.130759  0  0.990807  0
H  H20  1  0.31829476  0.11487292  0.94814634  1  0.113756  0  0.113307  0.121917  0  0.973301  0
H  H21  1  0.45122558  0.76965747  0.65822071  1  0.593165  0  0.346479  0.384282  0  0.851616  0
H  H22  1  0.45273384  0.78126156  0.82403628  1  0.624581  0  0.345782  0.380677  0  0.855246  0
H  H23  1  0.73847847  0.22757608  0.90297084  1  0.630276  0  0.303376  0.352506  0  0.958202  0
H  H24  1  0.93353450  0.23597870  0.66694111  1  0.63217  0  0.342257  0.377612  0  0.861849  0
C  C25  1  0.50882606  0.74660214  0.50132736  1  1.533522  0  0.216691  0.592195  0  4.161128  0
C  C26  1  0.49505200  0.50942515  0.61548919  1  1.587671  0  0.210503  0.582436  0  4.22197  0
C  C27  1  0.49186498  0.27489409  0.50462970  1  1.569114  0  0.214625  0.606352  0  4.157755  0
C  C28  1  0.51945866  0.50561811  0.37865428  1  1.592635  0  0.216599  0.610662  0  4.150099  0
C  C29  1  0.49675361  0.73539469  0.00347300  1  1.5439  0  0.21677  0.595499  0  4.157339  0
C  C30  1  0.48425171  0.52334145  0.88005139  1  1.628983  0  0.214754  0.588302  0  4.20466  0
C  C31  1  0.51562427  0.26283643  0.98583670  1  1.572219  0  0.218182  0.609966  0  4.154101  0
C  C32  1  0.51702349  0.47962814  0.11387661  1  1.519166  0  0.220185  0.603143  0  4.14234  0
C  C33  1  0.94046841  0.41486633  0.46977829  1  0.634253  0  0.164768  0.243621  0  4.039556  0
C  C34  1  0.07565132  0.59327871  0.52932608  1  0.484941  0  0.079047  0.063095  0  3.833511  0
C  C35  1  0.08486877  0.42184924  0.46821206  1  0.581787  0  0.070634  -0.002415  0  3.866238  0
C  C36  1  0.93237398  0.58567798  0.53068713  1  0.516597  0  0.084488  0.086316  0  3.833047  0
C  C37  1  0.49014051  0.13871514  0.50921217  1  0.026255  0  -0.015139  -0.0822  0  3.916152  0
C  C38  1  0.50509617  0.88271735  0.50602955  1  -0.019171  0  -0.012485  -0.010761  0  3.964805  0
C  C39  1  0.37032606  0.06743865  0.51759288  1  0.108481  0  0.022353  0.141496  0  4.003484  0
C  C40  1  0.62572100  0.95212086  0.50004652  1  -0.006218  0  -0.082982  -0.093477  0  3.973829  0
C  C41  1  0.37834137  0.94075590  0.51620205  1  0.028949  0  -0.086497  -0.157725  0  3.949194  0
C  C42  1  0.61724025  0.07824107  0.50228547  1  -0.059421  0  -0.081629  -0.073272  0  3.969308  0
C  C43  1  0.48155725  0.51885878  0.81173272  1  -0.082046  0  -0.002666  -0.076899  0  3.926777  0
C  C44  1  0.56693091  0.43102864  0.78215788  1  0.012395  0  0.004172  0.074937  0  3.957966  0
C  C45  1  0.39219724  0.59129513  0.77847094  1  -0.00871  0  -0.009482  -0.104033  0  3.999707  0
C  C46  1  0.64925590  0.34876383  0.81577638  1  0.034283  0  -0.080952  -0.135323  0  3.935034  0
C  C47  1  0.72452119  0.25776276  0.78782189  1  -0.068942  0  -0.012564  -0.065255  0  3.998769  0
C  C48  1  0.48403941  0.50632557  0.68380442  1  0.086465  0  0.001043  -0.068626  0  3.906345  0
C  C49  1  0.39389926  0.58525172  0.71363292  1  -0.046342  0  -0.006476  -0.09617  0  3.98056  0
C  C50  1  0.56678037  0.42287064  0.71729177  1  0.006693  0  0.00974  0.0824  0  3.949126  0
C  C51  1  0.64389258  0.32809200  0.68891572  1  0.027244  0  -0.076947  -0.139884  0  3.899569  0
C  C52  1  0.71830939  0.24528215  0.72301203  1  -0.0255  0  -0.004162  -0.059092  0  3.975182  0
C  C53  1  0.52977197  0.49672752  0.31036143  1  -0.054727  0  -0.013113  -0.08037  0  3.898829  0
C  C54  1  0.52339030  0.48048739  0.18199976  1  0.025682  0  -0.01081  -0.002525  0  3.964806  0
C  C55  1  0.65230178  0.50660561  0.27530739  1  0.101704  0  0.023073  0.144703  0  3.992337  0
C  C56  1  0.40101071  0.46975179  0.21619836  1  -0.077713  0  -0.087669  -0.101846  0  3.986254  0
C  C57  1  0.64873050  0.49744027  0.21175964  1  0.021102  0  -0.08939  -0.166294  0  3.95162  0
C  C58  1  0.40553250  0.47717009  0.27918571  1  0.057981  0  -0.078957  -0.073734  0  3.97474  0
C  C59  1  0.06018203  0.42571810  0.03789508  1  0.611864  0  0.167227  0.246749  0  4.036062  0
C  C60  1  0.93699514  0.55692983  0.94970848  1  0.472819  0  0.079941  0.056527  0  3.83634  0
C  C61  1  0.91618181  0.43260465  0.03469546  1  0.606983  0  0.068472  -0.000598  0  3.859155  0
C  C62  1  0.07999999  0.55185238  0.95396384  1  0.541312  0  0.086006  0.099686  0  3.814001  0
C  C63  1  0.51757043  0.12661486  0.98984476  1  -0.037937  0  -0.017179  -0.090229  0  3.943987  0
C  C64  1  0.50227458  0.87156550  0.99899071  1  0.061839  0  -0.011492  -0.007332  0  3.96277  0
C  C65  1  0.62551112  0.05990909  0.01636956  1  0.043949  0  0.020002  0.138055  0  4.01326  0
C  C66  1  0.39393021  0.93663210  0.97241680  1  -0.076456  0  -0.081851  -0.096024  0  3.970063  0
C  C67  1  0.61787732  0.93344838  0.02084740  1  0.063667  0  -0.086164  -0.160745  0  3.948576  0
C  C68  1  0.40215760  0.06274701  0.96827108  1  -0.050181  0  -0.078493  -0.079803  0  3.9679  0
C  C69  1  0.29623662  0.66338845  0.67715097  1  1.548802  0  0.233554  0.582903  0  4.119401  0
C  C70  1  0.29520152  0.67589450  0.81200016  1  1.546338  0  0.237007  0.585337  0  4.111105  0
C  C71  1  0.82037959  0.17763989  0.82308179  1  1.549246  0  0.224245  0.568122  0  4.127052  0
C  C72  1  0.77803780  0.13665392  0.68981142  1  1.55365  0  0.233223  0.591221  0  4.13202  0
N  N73  1  0.86491813  0.49715858  0.50048232  1  -1.196177  0  -0.290318  -0.208337  0  3.449188  0
N  N74  1  0.14980935  0.51130381  0.49735234  1  -1.213043  0  -0.289944  -0.12266  0  3.505647  0
N  N75  1  0.14109891  0.48712694  0.99854680  1  -1.177664  0  -0.291445  -0.209947  0  3.45088  0
N  N76  1  0.85699853  0.49854009  0.99087921  1  -1.235731  0  -0.292599  -0.1296  0  3.518327  0
Cl  Cl77  1  0.86332701  0.29904215  0.43169512  1  -0.100509  0  0.082025  0.010053  0  1.588071  0
Cl  Cl78  1  0.20893902  0.12976794  0.53264646  1  -0.203657  0  -0.020518  -0.089843  0  1.488656  0
Cl  Cl79  1  0.81264858  0.53609317  0.30658401  1  -0.206861  0  -0.030857  -0.09788  0  1.489686  0
Cl  Cl80  1  0.13200059  0.33664404  0.09270696  1  -0.102538  0  0.080427  0.011353  0  1.51232  0
Cl  Cl81  1  0.76874598  0.13033589  0.04766872  1  -0.217546  0  -0.018818  -0.092845  0  1.502478  0
O  O82  1  0.62566316  0.69505695  0.49374971  1  -1.167859  0  -0.318068  -0.549995  0  2.295619  0
O  O83  1  0.39251987  0.69241537  0.50510404  1  -1.162162  0  -0.316927  -0.54638  0  2.372858  0
O  O84  1  0.38530885  0.48885231  0.58634977  1  -1.155597  0  -0.306699  -0.529591  0  2.32115  0
O  O85  1  0.61403311  0.53426687  0.59372426  1  -1.157397  0  -0.314855  -0.541231  0  2.299731  0
O  O86  1  0.38658558  0.32807203  0.48286480  1  -1.158805  0  -0.31741  -0.549142  0  2.365864  0
O  O87  1  0.60260654  0.32788911  0.52116612  1  -1.166048  0  -0.318294  -0.561522  0  2.365397  0
O  O88  1  0.62753741  0.48569542  0.40952996  1  -1.167855  0  -0.319893  -0.562757  0  2.434235  0
O  O89  1  0.40049895  0.53029453  0.40063527  1  -1.16473  0  -0.318846  -0.539294  0  2.293565  0
O  O90  1  0.38094429  0.68388412  0.99433235  1  -1.159357  0  -0.316221  -0.544431  0  2.306951  0
O  O91  1  0.60987936  0.68115820  0.01550325  1  -1.168969  0  -0.324084  -0.548646  0  2.313957  0
O  O92  1  0.59915277  0.55026931  0.90430798  1  -1.162542  0  -0.314879  -0.545123  0  2.32025  0
O  O93  1  0.37286165  0.49530686  0.90745628  1  -1.156172  0  -0.301528  -0.52186  0  2.324807  0
O  O94  1  0.62402957  0.31867365  0.96641105  1  -1.178087  0  -0.314452  -0.573024  0  2.34614  0
O  O95  1  0.40373358  0.31356242  0.00194323  1  -1.153277  0  -0.307754  -0.540758  0  2.348949  0
O  O96  1  0.40000620  0.50474792  0.09117139  1  -1.157076  0  -0.315744  -0.54695  0  2.375216  0
O  O97  1  0.62683342  0.45568918  0.08349296  1  -1.171369  0  -0.316907  -0.553038  0  2.336193  0
O  O98  1  0.35241000  0.76378767  0.64990763  1  -1.074846  0  -0.323465  -0.461191  0  2.219526  0
O  O99  1  0.17417327  0.64124031  0.67187136  1  -1.088544  0  -0.266977  -0.434351  0  2.058153  0
O  O100  1  0.35447995  0.77878513  0.83476780  1  -1.106939  0  -0.322518  -0.462589  0  2.207231  0
O  O101  1  0.17304910  0.65640101  0.82023650  1  -1.104934  0  -0.262613  -0.42968  0  2.069988  0
O  O102  1  0.81266452  0.17717358  0.88484448  1  -1.160836  0  -0.347862  -0.482582  0  2.263954  0
O  O103  1  0.90780281  0.11590838  0.79711938  1  -1.100525  0  -0.278654  -0.44667  0  2.062134  0
O  O104  1  0.89417902  0.15717268  0.65579554  1  -1.110229  0  -0.3364  -0.475885  0  2.208462  0
O  O105  1  0.71856360  0.03921542  0.68788037  1  -1.113465  0  -0.289422  -0.455162  0  2.023572  0
