# generated using pymatgen
data_Nd2Cu3H54C36(NO4)6
_symmetry_space_group_name_H-M   'P 1'
_cell_length_a   7.62641816
_cell_length_b   13.51745940
_cell_length_c   13.51747710
_cell_angle_alpha   120.00011823
_cell_angle_beta   90.00008925
_cell_angle_gamma   89.99990073
_symmetry_Int_Tables_number   1
_chemical_formula_structural   Nd2Cu3H54C36(NO4)6
_chemical_formula_sum   'Nd2 Cu3 H54 C36 N6 O24'
_cell_volume   1206.81706970
_cell_formula_units_Z   1
loop_
 _symmetry_equiv_pos_site_id
 _symmetry_equiv_pos_as_xyz
  1  'x, y, z'
loop_
 _atom_site_type_symbol
 _atom_site_label
 _atom_site_symmetry_multiplicity
 _atom_site_fract_x
 _atom_site_fract_y
 _atom_site_fract_z
 _atom_site_occupancy
 _atom_site_pbe_bader_charge
 _atom_site_pbe_bader_spin_density
 _atom_site_pbe_cm5_charge
 _atom_site_pbe_ddec_charge
 _atom_site_pbe_ddec_spin_density
 _atom_site_pbe_ddec_sum_bond_order
 _atom_site_pbe_magmom
Nd  Nd0  1  0.34236294  0.33333420  0.66666652  1  2.260055  0.002406  1.47337  2.098215  0.003559  2.098343  0.002
Nd  Nd1  1  0.65763580  0.66666644  0.33333217  1  2.260035  0.002406  1.473325  2.098126  0.00356  2.098503  0.002
Cu  Cu2  1  0.99999807  0.99999938  0.49999926  1  1.056275  0.578739  0.734063  0.776211  0.733057  2.17578  0.578
Cu  Cu3  1  0.00000055  0.50000146  0.00000200  1  1.055786  0.578748  0.734082  0.776198  0.733058  2.175791  0.578
Cu  Cu4  1  0.00000015  0.50000162  0.50000096  1  1.058576  0.578762  0.734063  0.776171  0.733058  2.175788  0.578
H  H5  1  0.85909206  0.96561118  0.64578552  1  0.471949  -0.000124  0.297292  0.260685  -3.7e-05  0.971656  0.0
H  H6  1  0.94115433  0.16473108  0.82654858  1  0.057026  0.004102  0.113472  0.067443  0.002091  1.02162  0.003
H  H7  1  0.75947386  0.20059620  0.73976868  1  0.09397  0.000201  0.124547  0.092555  0.000106  0.977133  0.0
H  H8  1  0.61964702  0.06666857  0.79262306  1  0.000637  0.00049  0.086693  0.120331  0.000234  0.99549  0.0
H  H9  1  0.54326620  0.98051070  0.64913653  1  0.080254  -1.3e-05  0.098741  0.150226  -5.3e-05  1.003007  0.0
H  H10  1  0.46758334  0.12441596  0.73618229  1  0.086488  0.001502  0.098809  0.135902  0.00073  1.061944  0.001
H  H11  1  0.04502202  0.98684432  0.81237178  1  -0.018028  0.000141  0.087926  0.118854  6e-05  1.02673  0.0
H  H12  1  0.21860297  0.08743172  0.85159981  1  0.054349  0.000193  0.096526  0.135881  8.4e-05  1.00455  0.0
H  H13  1  0.20830957  0.97133699  0.70926952  1  0.084499  0.000371  0.097539  0.14541  0.000232  1.022921  0.0
H  H14  1  0.85909431  0.68017705  0.03438782  1  0.463476  -9.5e-05  0.297307  0.26068  -3.7e-05  0.971719  0.0
H  H15  1  0.94116014  0.66181955  0.83526790  1  0.0583  0.004099  0.113481  0.067382  0.002091  1.021659  0.003
H  H16  1  0.75947735  0.53917311  0.79940499  1  0.086812  0.000205  0.124544  0.092559  0.000106  0.977146  0.0
H  H17  1  0.61965145  0.72595755  0.93333214  1  -0.0005  0.000491  0.086702  0.120314  0.000234  0.995483  0.0
H  H18  1  0.54326845  0.66862631  0.01948832  1  0.070077  -1.2e-05  0.098753  0.150255  -5.3e-05  1.002975  0.0
H  H19  1  0.46758802  0.61176718  0.87558315  1  0.108982  0.001479  0.098816  0.135903  0.00073  1.061946  0.001
H  H20  1  0.04502645  0.82552877  0.01315599  1  0.024449  0.000133  0.087926  0.118826  6e-05  1.026756  0.0
H  H21  1  0.21860595  0.76417144  0.91256988  1  0.045162  0.000195  0.096507  0.13584  8.4e-05  1.004575  0.0
H  H22  1  0.20831295  0.73793389  0.02866313  1  0.081025  0.00037  0.097543  0.145397  0.000232  1.02288  0.0
H  H23  1  0.85909388  0.35421119  0.31982450  1  0.467843  -0.00011  0.29729  0.260679  -3.7e-05  0.971737  0.0
H  H24  1  0.94116022  0.17344837  0.33818061  1  0.059921  0.004091  0.113475  0.067408  0.002091  1.021632  0.003
H  H25  1  0.75947864  0.26023071  0.46082836  1  0.08396  0.000203  0.124541  0.092565  0.000106  0.977153  0.0
H  H26  1  0.61965267  0.20737575  0.27404500  1  -0.001217  0.000494  0.086692  0.120305  0.000234  0.995522  0.0
H  H27  1  0.54326936  0.35086146  0.33137401  1  0.069903  -1.3e-05  0.098728  0.150203  -5.3e-05  1.002991  0.0
H  H28  1  0.46758790  0.26381509  0.38823254  1  0.093767  0.001497  0.09882  0.135917  0.00073  1.061946  0.001
H  H29  1  0.04502764  0.18762707  0.17447098  1  0.029413  0.000129  0.087923  0.118817  6e-05  1.026758  0.0
H  H30  1  0.21860730  0.14839870  0.23583061  1  0.048894  0.000194  0.096507  0.135836  8.4e-05  1.004591  0.0
H  H31  1  0.20831395  0.29072943  0.26206741  1  0.077749  0.000371  0.097538  0.145391  0.000232  1.022905  0.0
H  H32  1  0.14090536  0.03438596  0.35421222  1  0.471982  -0.000124  0.297306  0.260698  -3.7e-05  0.971658  0.0
H  H33  1  0.05884047  0.83526924  0.17344894  1  0.057213  0.004101  0.113491  0.067416  0.002091  1.021665  0.003
H  H34  1  0.24051833  0.79940199  0.26023097  1  0.093886  0.000201  0.124575  0.092608  0.000106  0.977131  0.0
H  H35  1  0.38034385  0.93332868  0.20737309  1  0.000408  0.000491  0.086697  0.120289  0.000234  0.995463  0.0
H  H36  1  0.45672861  0.01948539  0.35085931  1  0.080355  -1.3e-05  0.098753  0.150254  -5.3e-05  1.002919  0.0
H  H37  1  0.53241016  0.87558055  0.26381312  1  0.086512  0.001501  0.098806  0.135897  0.00073  1.061939  0.001
H  H38  1  0.95497409  0.01315558  0.18762616  1  -0.01802  0.000141  0.087942  0.118866  6e-05  1.026683  0.0
H  H39  1  0.78139446  0.91256903  0.14839728  1  0.054288  0.000193  0.096502  0.135846  8.4e-05  1.004578  0.0
H  H40  1  0.79168654  0.02866334  0.29072800  1  0.08452  0.000371  0.097541  0.145401  0.000232  1.02292  0.0
H  H41  1  0.14090443  0.31982581  0.96561309  1  0.463505  -9.6e-05  0.297304  0.260664  -3.7e-05  0.971793  0.0
H  H42  1  0.05884515  0.33818245  0.16473385  1  0.058214  0.004099  0.113484  0.06747  0.002091  1.021589  0.003
H  H43  1  0.24052401  0.46082730  0.20059688  1  0.086789  0.000204  0.124564  0.092564  0.000106  0.977129  0.0
H  H44  1  0.38034860  0.27404340  0.06666771  1  -0.000498  0.000491  0.086691  0.120307  0.000234  0.995494  0.0
H  H45  1  0.45673028  0.33137390  0.98051079  1  0.070078  -1.2e-05  0.098749  0.150245  -5.2e-05  1.002978  0.0
H  H46  1  0.53241334  0.38823261  0.12441639  1  0.108981  0.00148  0.098815  0.135889  0.00073  1.06197  0.001
H  H47  1  0.95498409  0.17446973  0.98684483  1  0.024417  0.000133  0.087978  0.118924  6e-05  1.026734  0.0
H  H48  1  0.78140197  0.23582577  0.08743222  1  0.045412  0.000195  0.096504  0.13583  8.4e-05  1.004539  0.0
H  H49  1  0.79169365  0.26206302  0.97133780  1  0.08091  0.00037  0.097538  0.145406  0.000232  1.022876  0.0
H  H50  1  0.14090486  0.64579007  0.68017652  1  0.467828  -0.00011  0.297301  0.26067  -3.7e-05  0.971715  0.0
H  H51  1  0.05884114  0.82655258  0.66181924  1  0.059902  0.004091  0.113491  0.067467  0.002091  1.021597  0.003
H  H52  1  0.24052272  0.73977191  0.53917573  1  0.083973  0.000203  0.124557  0.092546  0.000106  0.97719  0.0
H  H53  1  0.38035262  0.79262571  0.72595877  1  -0.001173  0.000494  0.086691  0.120299  0.000234  0.995509  0.0
H  H54  1  0.45673200  0.64913599  0.66862491  1  0.070004  -1.3e-05  0.098747  0.150237  -5.3e-05  1.003001  0.0
H  H55  1  0.53241346  0.73618279  0.61176595  1  0.093761  0.001497  0.098819  0.135941  0.00073  1.061933  0.001
H  H56  1  0.95497635  0.81237388  0.82552887  1  0.029388  0.000129  0.087931  0.11885  6e-05  1.026709  0.0
H  H57  1  0.78139537  0.85160330  0.76417115  1  0.048922  0.000194  0.096504  0.135844  8.4e-05  1.004595  0.0
H  H58  1  0.79169003  0.70927184  0.73793361  1  0.077819  0.000371  0.097561  0.145427  0.000232  1.022891  0.0
C  C59  1  0.13524898  0.18579245  0.72847287  1  1.579632  0.00285  0.200256  0.569124  0.001748  4.181054  0.002
C  C60  1  0.01882226  0.10673573  0.75086934  1  0.293912  0.000822  -0.001095  0.053273  0.00044  3.851753  -0.001
C  C61  1  0.73141355  0.11168144  0.67348247  1  0.269218  0.000628  0.003239  0.033452  0.000116  3.840104  -0.001
C  C62  1  0.68495384  0.12129575  0.56890362  1  1.591975  -9.6e-05  0.234259  0.625399  -0.00016  4.08565  0.0
C  C63  1  0.58046601  0.06738115  0.71461342  1  -0.080623  0.00247  -0.242691  -0.407582  0.001848  3.896161  0.002
C  C64  1  0.12907207  0.03229193  0.78212436  1  -0.056942  0.000785  -0.246236  -0.415963  0.000498  3.914855  0.0
C  C65  1  0.13525379  0.54268223  0.81421002  1  1.582653  0.002836  0.20028  0.569159  0.001748  4.181005  0.002
C  C66  1  0.01882687  0.64413585  0.89326393  1  0.274564  0.000857  -0.001137  0.053303  0.00044  3.851752  -0.001
C  C67  1  0.73141970  0.56180240  0.88831889  1  0.280437  0.000609  0.003208  0.033355  0.000116  3.840113  -0.001
C  C68  1  0.68495900  0.44760728  0.87870349  1  1.593162  -9.5e-05  0.234325  0.625487  -0.00016  4.085639  0.0
C  C69  1  0.58046935  0.64723386  0.93261912  1  -0.08912  0.002486  -0.242701  -0.407572  0.001848  3.896096  0.002
C  C70  1  0.12907516  0.74983414  0.96770772  1  -0.074451  0.000782  -0.246194  -0.415838  0.000498  3.914835  0.0
C  C71  1  0.13525504  0.27152686  0.45731778  1  1.59029  0.002836  0.200289  0.569201  0.001748  4.181023  0.002
C  C72  1  0.01882807  0.24912785  0.35586508  1  0.287103  0.000846  -0.001135  0.053225  0.000441  3.851865  -0.001
C  C73  1  0.73141946  0.32651632  0.43819905  1  0.278865  0.000612  0.003255  0.033372  0.000116  3.840169  -0.001
C  C74  1  0.68495859  0.43109718  0.55239327  1  1.59196  -0.000102  0.234315  0.625478  -0.00016  4.08556  0.0
C  C75  1  0.58047044  0.28538500  0.35276658  1  -0.07762  0.002474  -0.242686  -0.407534  0.001848  3.896126  0.002
C  C76  1  0.12907632  0.21787368  0.25016593  1  -0.099422  0.000796  -0.246197  -0.415817  0.000498  3.914893  0.0
C  C77  1  0.86474714  0.81420671  0.27152434  1  1.579685  0.00285  0.200252  0.569102  0.001748  4.181073  0.002
C  C78  1  0.98117255  0.89326385  0.24912744  1  0.292733  0.000823  -0.001126  0.053295  0.00044  3.851861  -0.001
C  C79  1  0.26857863  0.88831612  0.32651484  1  0.269299  0.000628  0.003171  0.033283  0.000116  3.840279  -0.001
C  C80  1  0.31504228  0.87870636  0.43109655  1  1.591952  -9.6e-05  0.234265  0.625452  -0.00016  4.085679  0.0
C  C81  1  0.41952748  0.93261610  0.28538273  1  -0.080424  0.00247  -0.242694  -0.407543  0.001848  3.896011  0.002
C  C82  1  0.87092404  0.96770766  0.21787242  1  -0.055999  0.000785  -0.246204  -0.415893  0.000498  3.914811  0.0
C  C83  1  0.86474757  0.45731627  0.18579080  1  1.582655  0.002836  0.200271  0.569114  0.001748  4.18105  0.002
C  C84  1  0.98117711  0.35586455  0.10673794  1  0.274614  0.000857  -0.001123  0.053285  0.00044  3.851704  -0.001
C  C85  1  0.26858297  0.43819843  0.11168256  1  0.280425  0.000609  0.0032  0.033416  0.000116  3.840055  -0.001
C  C86  1  0.31504367  0.55239145  0.12129414  1  1.593199  -9.7e-05  0.234314  0.625415  -0.000159  4.085691  0.0
C  C87  1  0.41953070  0.35276549  0.06738085  1  -0.08913  0.002487  -0.242681  -0.407551  0.001848  3.896089  0.002
C  C88  1  0.87093145  0.25016277  0.03229322  1  -0.074531  0.000782  -0.246233  -0.415944  0.000498  3.914799  0.0
C  C89  1  0.86474763  0.72847483  0.54268282  1  1.590339  0.002836  0.200303  0.569178  0.001748  4.181045  0.002
C  C90  1  0.98117460  0.75087299  0.64413636  1  0.286988  0.000845  -0.001149  0.053209  0.00044  3.851803  -0.001
C  C91  1  0.26858059  0.67348600  0.56180387  1  0.278802  0.000612  0.003208  0.033423  0.000116  3.840064  -0.001
C  C92  1  0.31504146  0.56890588  0.44761039  1  1.591905  -0.000102  0.234285  0.625472  -0.00016  4.08571  0.0
C  C93  1  0.41953355  0.71461541  0.64723529  1  -0.077776  0.002474  -0.242701  -0.407611  0.001848  3.89608  0.002
C  C94  1  0.87092635  0.78212875  0.74983540  1  -0.099377  0.000796  -0.246219  -0.415909  0.000498  3.914844  0.0
N  N95  1  0.89450854  0.04364594  0.65529302  1  -1.056077  0.093023  -0.486148  -0.356603  0.060296  3.447716  0.078
N  N96  1  0.89451463  0.61164987  0.95635462  1  -1.056254  0.092997  -0.486207  -0.356623  0.060295  3.447819  0.078
N  N97  1  0.89451428  0.34470504  0.38835206  1  -1.055884  0.093004  -0.486175  -0.3566  0.060295  3.447856  0.078
N  N98  1  0.10548364  0.95635279  0.34470461  1  -1.056138  0.093019  -0.486219  -0.356645  0.060293  3.447874  0.078
N  N99  1  0.10548804  0.38835171  0.04364756  1  -1.056279  0.092998  -0.486196  -0.356642  0.060296  3.447924  0.078
N  N100  1  0.10548708  0.65529696  0.61164970  1  -1.055905  0.093002  -0.486185  -0.356564  0.060295  3.447793  0.078
O  O101  1  0.24452964  0.24878682  0.80473853  1  -1.199474  0.001603  -0.334603  -0.596659  0.000768  2.231467  0.001
O  O102  1  0.11850836  0.18615124  0.63474447  1  -1.184711  -0.001174  -0.382738  -0.647866  -0.001602  2.343903  0.0
O  O103  1  0.78658341  0.07542299  0.48199984  1  -1.134246  0.08683  -0.311163  -0.517386  0.055361  2.297934  0.079
O  O104  1  0.55006213  0.17780086  0.57380812  1  -1.216192  0.015235  -0.392722  -0.65391  0.009528  2.280479  0.013
O  O105  1  0.24453303  0.55595005  0.75121247  1  -1.198478  0.001602  -0.334616  -0.596688  0.000768  2.231464  0.001
O  O106  1  0.11851344  0.44859493  0.81385034  1  -1.182496  -0.001174  -0.382737  -0.64786  -0.001602  2.34392  0.0
O  O107  1  0.78658874  0.40657840  0.92457784  1  -1.131997  0.086836  -0.311229  -0.517501  0.055361  2.297931  0.079
O  O108  1  0.55006606  0.39600687  0.82220064  1  -1.216751  0.015232  -0.392764  -0.653923  0.009528  2.280561  0.013
O  O109  1  0.24453449  0.19526031  0.44404808  1  -1.198794  0.001601  -0.334647  -0.596738  0.000768  2.231487  0.001
O  O110  1  0.11851453  0.36525592  0.55140381  1  -1.18594  -0.001181  -0.382724  -0.647839  -0.001602  2.343888  0.0
O  O111  1  0.78658944  0.51799934  0.59342511  1  -1.129402  0.086836  -0.311253  -0.517496  0.055358  2.297976  0.079
O  O112  1  0.55006441  0.42619219  0.60399193  1  -1.21344  0.015235  -0.392733  -0.653902  0.009527  2.28042  0.013
O  O113  1  0.75546910  0.75121117  0.19525836  1  -1.199534  0.001603  -0.334635  -0.596685  0.000768  2.231476  0.001
O  O114  1  0.88148251  0.81384982  0.36525379  1  -1.18466  -0.001174  -0.382698  -0.647808  -0.001601  2.343948  0.0
O  O115  1  0.21341401  0.92457574  0.51799779  1  -1.13422  0.086819  -0.311224  -0.517507  0.055354  2.298086  0.079
O  O116  1  0.44993792  0.82219935  0.42619099  1  -1.216142  0.015235  -0.392691  -0.653862  0.009527  2.280395  0.013
O  O117  1  0.75546701  0.44404771  0.24878761  1  -1.198517  0.001602  -0.334637  -0.596688  0.000768  2.231447  0.001
O  O118  1  0.88148530  0.55140431  0.18615121  1  -1.182437  -0.001174  -0.382714  -0.647812  -0.001602  2.34397  0.0
O  O119  1  0.21341393  0.59342423  0.07542625  1  -1.132167  0.086828  -0.311261  -0.517462  0.055354  2.298109  0.079
O  O120  1  0.44993924  0.60399089  0.17779944  1  -1.216644  0.015232  -0.392693  -0.653868  0.009527  2.280466  0.013
O  O121  1  0.75546687  0.80474064  0.55595177  1  -1.198812  0.001602  -0.334657  -0.596736  0.000768  2.231448  0.001
O  O122  1  0.88148552  0.63474663  0.44859593  1  -1.185937  -0.00118  -0.382698  -0.647804  -0.001601  2.343968  0.0
O  O123  1  0.21341454  0.48200445  0.40657929  1  -1.129278  0.086832  -0.311226  -0.517504  0.055356  2.298048  0.079
O  O124  1  0.44993826  0.57380981  0.39600982  1  -1.213404  0.015237  -0.392678  -0.653873  0.009528  2.280459  0.013
