# generated using pymatgen
data_SrH10C4(N4O3)2
_symmetry_space_group_name_H-M   'P 1'
_cell_length_a   7.59008850
_cell_length_b   7.64586604
_cell_length_c   11.34601226
_cell_angle_alpha   74.04681399
_cell_angle_beta   87.11246963
_cell_angle_gamma   63.12220375
_symmetry_Int_Tables_number   1
_chemical_formula_structural   SrH10C4(N4O3)2
_chemical_formula_sum   'Sr2 H20 C8 N16 O12'
_cell_volume   562.59265841
_cell_formula_units_Z   2
loop_
 _symmetry_equiv_pos_site_id
 _symmetry_equiv_pos_as_xyz
  1  'x, y, z'
loop_
 _atom_site_type_symbol
 _atom_site_label
 _atom_site_symmetry_multiplicity
 _atom_site_fract_x
 _atom_site_fract_y
 _atom_site_fract_z
 _atom_site_occupancy
 _atom_site_hle17_bader_spin_density
 _atom_site_hle17_ddec_charge
 _atom_site_hle17_ddec_spin_density
 _atom_site_hle17_ddec_sum_bond_order
 _atom_site_hle17_magmom
 _atom_site_hse06_10hf_bader_spin_density
 _atom_site_hse06_10hf_ddec_charge
 _atom_site_hse06_10hf_ddec_spin_density
 _atom_site_hse06_10hf_ddec_sum_bond_order
 _atom_site_hse06_10hf_magmom
 _atom_site_hse06_bader_spin_density
 _atom_site_hse06_ddec_charge
 _atom_site_hse06_ddec_spin_density
 _atom_site_hse06_ddec_sum_bond_order
 _atom_site_hse06_magmom
 _atom_site_pbe_bader_spin_density
 _atom_site_pbe_cm5_charge
 _atom_site_pbe_ddec_charge
 _atom_site_pbe_ddec_spin_density
 _atom_site_pbe_ddec_sum_bond_order
 _atom_site_pbe_magmom
Sr  Sr0  1  0.30293347  0.77489831  0.54043908  1  0  1.611762  0  1.05721  0  0  1.476455  0  1.412343  0  0  1.511145  0  1.370215  0  0  0.916052  1.450737  0  1.442419  0
Sr  Sr1  1  0.69706695  0.22510207  0.45956109  1  0  1.611748  0  1.057234  0  0  1.476455  0  1.412346  0  0  1.511146  0  1.370217  0  0  0.916049  1.450737  0  1.442424  0
H  H2  1  0.47072191  0.28506142  0.04515138  1  0  0.111189  0  0.956287  0  0  0.111905  0  1.034454  0  0  0.115486  0  1.0302  0  0  0.137003  0.109299  0  1.037489  0
H  H3  1  0.52927652  0.71494049  0.95484858  1  0  0.111201  0  0.95629  0  0  0.111913  0  1.034468  0  0  0.115494  0  1.030213  0  0  0.137007  0.109306  0  1.037504  0
H  H4  1  0.11891202  0.61593203  0.99510328  1  0  0.106222  0  0.967233  0  0  0.107259  0  1.045499  0  0  0.110744  0  1.041249  0  0  0.136152  0.104702  0  1.048568  0
H  H5  1  0.88108776  0.38406681  0.00489633  1  0  0.106226  0  0.967248  0  0  0.107266  0  1.045509  0  0  0.11075  0  1.04126  0  0  0.13617  0.104711  0  1.048576  0
H  H6  1  0.27981633  0.37265500  0.56339858  1  0  0.420257  0  0.891182  0  0  0.387178  0  0.958702  0  0  0.398018  0  0.94291  0  0  0.304042  0.379555  0  0.969797  0
H  H7  1  0.72018341  0.62734690  0.43660045  1  0  0.420244  0  0.891194  0  0  0.387169  0  0.958708  0  0  0.398008  0  0.942917  0  0  0.304043  0.379546  0  0.969802  0
H  H8  1  0.24673607  0.46005682  0.41851811  1  0  0.402047  0  0.90545  0  0  0.364817  0  0.98586  0  0  0.374836  0  0.971508  0  0  0.301638  0.357734  0  0.996007  0
H  H9  1  0.75326435  0.53994355  0.58148118  1  0  0.40205  0  0.905442  0  0  0.36483  0  0.985837  0  0  0.374847  0  0.971487  0  0  0.301649  0.357747  0  0.995985  0
H  H10  1  0.91299713  0.73239167  0.58909325  1  0  0.40466  0  0.90516  0  0  0.365531  0  0.984266  0  0  0.376357  0  0.968551  0  0  0.300914  0.357884  0  0.995362  0
H  H11  1  0.08700261  0.26761024  0.41090667  1  0  0.404654  0  0.905171  0  0  0.365526  0  0.984271  0  0  0.376353  0  0.968556  0  0  0.300913  0.35788  0  0.995367  0
H  H12  1  0.89926409  0.79593986  0.44391477  1  0  0.418865  0  0.889385  0  0  0.389417  0  0.949888  0  0  0.399851  0  0.934824  0  0  0.306402  0.382058  0  0.960512  0
H  H13  1  0.10073502  0.20406052  0.55608545  1  0  0.418865  0  0.889384  0  0  0.389417  0  0.949885  0  0  0.399853  0  0.934819  0  0  0.306406  0.382058  0  0.96051  0
H  H14  1  0.97526466  0.93915243  0.74258052  1  0  0.42424  0  0.874619  0  0  0.388186  0  0.947847  0  0  0.399156  0  0.931634  0  0  0.293796  0.380378  0  0.959371  0
H  H15  1  0.02473377  0.06084948  0.25741944  1  0  0.424235  0  0.874621  0  0  0.388182  0  0.947847  0  0  0.399151  0  0.931635  0  0  0.293813  0.380372  0  0.959373  0
H  H16  1  0.17735887  0.73012942  0.79976255  1  0  0.387056  0  0.932688  0  0  0.346375  0  1.015429  0  0  0.357176  0  0.999348  0  0  0.284797  0.338761  0  1.026743  0
H  H17  1  0.82264088  0.26987249  0.20023736  1  0  0.387092  0  0.932641  0  0  0.346418  0  1.015375  0  0  0.357218  0  0.999295  0  0  0.284831  0.338803  0  1.02669  0
H  H18  1  0.40164165  0.00135259  0.68908615  1  0  0.419114  0  0.885236  0  0  0.384661  0  0.955653  0  0  0.395338  0  0.939798  0  0  0.296722  0.377078  0  0.966918  0
H  H19  1  0.59835809  0.99864932  0.31091376  1  0  0.419129  0  0.885216  0  0  0.384678  0  0.95563  0  0  0.395354  0  0.939775  0  0  0.296728  0.377094  0  0.966896  0
H  H20  1  0.59729994  0.79063524  0.72602477  1  0  0.40021  0  0.912524  0  0  0.360498  0  0.992758  0  0  0.371292  0  0.976674  0  0  0.292707  0.352876  0  1.004096  0
H  H21  1  0.40269981  0.20936667  0.27397514  1  0  0.400199  0  0.912541  0  0  0.360485  0  0.992778  0  0  0.37128  0  0.976694  0  0  0.292702  0.352863  0  1.004116  0
C  C22  1  0.61697799  0.25240624  0.76916795  1  0  0.595355  0  3.876861  0  0  0.530738  0  4.184661  0  0  0.560222  0  4.187953  0  0  0.318102  0.510905  0  4.181661  0
C  C23  1  0.38302112  0.74759415  0.23083315  1  0  0.595358  0  3.876875  0  0  0.530739  0  4.18468  0  0  0.560221  0  4.187973  0  0  0.318106  0.510905  0  4.181674  0
C  C24  1  0.49083739  0.30642283  0.94787764  1  0  0.096719  0  3.717204  0  0  0.027272  0  4.011596  0  0  0.038363  0  4.02634  0  0  0.12788  0.020325  0  4.001241  0
C  C25  1  0.50916372  0.69357603  0.05212280  1  0  0.096675  0  3.717259  0  0  0.027228  0  4.011647  0  0  0.038318  0  4.02639  0  0  0.127883  0.020279  0  4.001292  0
C  C26  1  0.93038262  0.66429595  0.25832041  1  0  0.599908  0  3.860085  0  0  0.521666  0  4.173727  0  0  0.551505  0  4.174992  0  0  0.327975  0.501657  0  4.172263  0
C  C27  1  0.06961848  0.33570290  0.74168002  1  0  0.599898  0  3.860125  0  0  0.521691  0  4.173751  0  0  0.551533  0  4.175017  0  0  0.32796  0.501682  0  4.172291  0
C  C28  1  0.08369966  0.59916243  0.09007893  1  0  0.112322  0  3.687128  0  0  0.044161  0  3.981376  0  0  0.055192  0  3.995833  0  0  0.136308  0.03708  0  3.971428  0
C  C29  1  0.91629880  0.40083642  0.90992073  1  0  0.112332  0  3.687161  0  0  0.044187  0  3.981432  0  0  0.055217  0  3.99589  0  0  0.136238  0.037108  0  3.971484  0
N  N30  1  0.45826253  0.43821798  0.74613729  1  0  -0.468993  0  2.937325  0  0  -0.42921  0  3.226228  0  0  -0.447496  0  3.239233  0  0  -0.300059  -0.416632  0  3.21711  0
N  N31  1  0.54173857  0.56178087  0.25386315  1  0  -0.468979  0  2.937235  0  0  -0.4292  0  3.226143  0  0  -0.447486  0  3.239151  0  0  -0.300053  -0.41663  0  3.217048  0
N  N32  1  0.38334326  0.46717098  0.85754672  1  0  -0.226948  0  3.126421  0  0  -0.185695  0  3.412177  0  0  -0.195965  0  3.430004  0  0  -0.223219  -0.178688  0  3.399868  0
N  N33  1  0.61665784  0.53282787  0.14245284  1  0  -0.226964  0  3.126426  0  0  -0.185715  0  3.41219  0  0  -0.195984  0  3.430018  0  0  -0.223251  -0.178709  0  3.399879  0
N  N34  1  0.64039764  0.16529415  0.89958361  1  0  -0.125327  0  3.540564  0  0  -0.043752  0  3.784861  0  0  -0.06487  0  3.806858  0  0  -0.125482  -0.029694  0  3.769767  0
N  N35  1  0.35960346  0.83470470  0.10041683  1  0  -0.125261  0  3.540525  0  0  -0.043682  0  3.784815  0  0  -0.0648  0  3.806815  0  0  -0.12546  -0.029621  0  3.769716  0
N  N36  1  0.78915738  0.97819666  0.95592651  1  0  -0.028356  0  2.960567  0  0  -0.034376  0  3.261821  0  0  -0.02442  0  3.263848  0  0  -0.037615  -0.041481  0  3.261118  0
N  N37  1  0.21084241  0.02180220  0.04407486  1  0  -0.028338  0  2.960534  0  0  -0.034361  0  3.261782  0  0  -0.024407  0  3.26381  0  0  -0.037614  -0.041467  0  3.261079  0
N  N38  1  0.77406753  0.92951186  0.07047183  1  0  -0.018717  0  2.959727  0  0  -0.025988  0  3.265574  0  0  -0.015957  0  3.267103  0  0  -0.035767  -0.033101  0  3.265216  0
N  N39  1  0.22593289  0.07048852  0.92952834  1  0  -0.01874  0  2.959807  0  0  -0.025976  0  3.265654  0  0  -0.015945  0  3.267182  0  0  -0.035751  -0.033091  0  3.265296  0
N  N40  1  0.92281390  0.74378811  0.12997924  1  0  -0.117343  0  3.538049  0  0  -0.036861  0  3.786301  0  0  -0.057713  0  3.808763  0  0  -0.121792  -0.022983  0  3.770932  0
N  N41  1  0.07718456  0.25621073  0.87002042  1  0  -0.117382  0  3.538224  0  0  -0.036983  0  3.786551  0  0  -0.057835  0  3.809012  0  0  -0.121802  -0.023104  0  3.771185  0
N  N42  1  0.09140501  0.48140936  0.29061288  1  0  -0.438853  0  3.012233  0  0  -0.375035  0  3.270308  0  0  -0.392388  0  3.278619  0  0  -0.245056  -0.363348  0  3.264783  0
N  N43  1  0.90859409  0.51859102  0.70938734  1  0  -0.438846  0  3.012254  0  0  -0.375032  0  3.270316  0  0  -0.392386  0  3.278627  0  0  -0.245044  -0.363346  0  3.264794  0
N  N44  1  0.18426139  0.44347424  0.18482356  1  0  -0.211684  0  3.051868  0  0  -0.179699  0  3.330715  0  0  -0.188388  0  3.345363  0  0  -0.218502  -0.173836  0  3.320853  0
N  N45  1  0.81573839  0.55652461  0.81517605  1  0  -0.2117  0  3.051913  0  0  -0.179711  0  3.330751  0  0  -0.188399  0  3.3454  0  0  -0.218489  -0.173849  0  3.320892  0
O  O46  1  0.72915711  0.16221203  0.69663817  1  0  -0.662624  0  1.991278  0  0  -0.597071  0  2.227533  0  0  -0.62396  0  2.219781  0  0  -0.342245  -0.577792  0  2.23212  0
O  O47  1  0.27084535  0.83778377  0.30336279  1  0  -0.66264  0  1.991359  0  0  -0.597077  0  2.22761  0  0  -0.623959  0  2.219853  0  0  -0.342251  -0.577798  0  2.232195  0
O  O48  1  0.80554545  0.75513842  0.32635597  1  0  -0.639682  0  2.134014  0  0  -0.566458  0  2.361429  0  0  -0.592533  0  2.35249  0  0  -0.286198  -0.548239  0  2.367245  0
O  O49  1  0.19445629  0.24486196  0.67364416  1  0  -0.639638  0  2.133986  0  0  -0.566419  0  2.361396  0  0  -0.592489  0  2.352437  0  0  -0.286172  -0.548201  0  2.367212  0
O  O50  1  0.32735795  0.44326735  0.49116331  1  0  -0.916699  0  1.911812  0  0  -0.85596  0  2.123148  0  0  -0.876849  0  2.09251  0  0  -0.647351  -0.841044  0  2.1445  0
O  O51  1  0.67264180  0.55673456  0.50883660  1  0  -0.916695  0  1.911836  0  0  -0.85596  0  2.123168  0  0  -0.87685  0  2.092531  0  0  -0.647359  -0.841045  0  2.144519  0
O  O52  1  0.93177113  0.82908960  0.51621894  1  0  -0.89902  0  1.878113  0  0  -0.83125  0  2.074232  0  0  -0.852645  0  2.043024  0  0  -0.641995  -0.816002  0  2.096016  0
O  O53  1  0.06822862  0.17091231  0.48378097  1  0  -0.89901  0  1.878111  0  0  -0.831237  0  2.074223  0  0  -0.852631  0  2.043014  0  0  -0.641992  -0.81599  0  2.096014  0
O  O54  1  0.11498599  0.85583036  0.73059417  1  0  -0.881406  0  1.868291  0  0  -0.82689  0  2.064095  0  0  -0.845723  0  2.032332  0  0  -0.634829  -0.81319  0  2.086253  0
O  O55  1  0.88501375  0.14417154  0.26940486  1  0  -0.881423  0  1.868292  0  0  -0.826917  0  2.064085  0  0  -0.845747  0  2.032325  0  0  -0.634869  -0.813215  0  2.086247  0
O  O56  1  0.50130181  0.89328735  0.65598138  1  0  -0.874282  0  1.812339  0  0  -0.817894  0  1.995459  0  0  -0.8358  0  1.963966  0  0  -0.620385  -0.805011  0  2.017464  0
O  O57  1  0.49869729  0.10671303  0.34401885  1  0  -0.874283  0  1.812345  0  0  -0.817894  0  1.995465  0  0  -0.8358  0  1.963973  0  0  -0.620382  -0.805011  0  2.017472  0
