# generated using pymatgen
data_InH11C8O5
_symmetry_space_group_name_H-M   'P 1'
_cell_length_a   7.19630803
_cell_length_b   8.66039408
_cell_length_c   9.71971516
_cell_angle_alpha   102.95081060
_cell_angle_beta   102.45538972
_cell_angle_gamma   99.90094075
_symmetry_Int_Tables_number   1
_chemical_formula_structural   InH11C8O5
_chemical_formula_sum   'In2 H22 C16 O10'
_cell_volume   560.80051976
_cell_formula_units_Z   2
loop_
 _symmetry_equiv_pos_site_id
 _symmetry_equiv_pos_as_xyz
  1  'x, y, z'
loop_
 _atom_site_type_symbol
 _atom_site_label
 _atom_site_symmetry_multiplicity
 _atom_site_fract_x
 _atom_site_fract_y
 _atom_site_fract_z
 _atom_site_occupancy
 _atom_site_pbe_bader_charge
 _atom_site_pbe_bader_spin_density
 _atom_site_pbe_cm5_charge
 _atom_site_pbe_ddec_charge
 _atom_site_pbe_ddec_spin_density
 _atom_site_pbe_ddec_sum_bond_order
 _atom_site_pbe_magmom
In  In0  1  0.99999452  0.49999547  0.00000354  1  1.947667  0  0.765795  1.520387  0  2.802911  0
In  In1  1  0.49998897  0.49998744  0.99999174  1  1.940655  0  0.760358  1.516341  0  2.782279  0
H  H2  1  0.47917322  0.98064600  0.69875337  1  0.051306  0  0.104411  0.090228  0  0.962697  0
H  H3  1  0.78709948  0.11723392  0.55543900  1  0.037334  0  0.090254  0.0843  0  1.015328  0
H  H4  1  0.81037923  0.97761938  0.66148609  1  0.029806  0  0.092089  0.088082  0  0.988131  0
H  H5  1  0.08140788  0.26672253  0.34124777  1  0.051315  0  0.093675  0.096663  0  0.991869  0
H  H6  1  0.06021225  0.28611303  0.52251886  1  0.016248  0  0.087314  0.07808  0  1.009338  0
H  H7  1  0.20003742  0.56322319  0.39345110  1  0.050238  0  0.090812  0.090556  0  1.014716  0
H  H8  1  0.34940609  0.48959533  0.52203784  1  0.054016  0  0.090683  0.087103  0  1.020603  0
H  H9  1  0.28897333  0.16456010  0.60811683  1  0.031915  0  0.093767  0.090938  0  1.002747  0
H  H10  1  0.46601074  0.23052707  0.52047710  1  0.023424  0  0.095249  0.093238  0  0.985549  0
H  H11  1  0.73685922  0.25091362  0.36735530  1  0.033756  0  0.101644  0.081464  0  0.986367  0
H  H12  1  0.52084699  0.01936640  0.30123648  1  0.051123  0  0.104345  0.090083  0  0.962437  0
H  H13  1  0.21293104  0.88277469  0.44455580  1  0.037564  0  0.090232  0.084327  0  1.01524  0
H  H14  1  0.18964340  0.02238655  0.33851300  1  0.029763  0  0.092183  0.088254  0  0.9881  0
H  H15  1  0.91856844  0.73329080  0.65874129  1  0.051139  0  0.093663  0.096629  0  0.991804  0
H  H16  1  0.93978048  0.71387222  0.47746965  1  0.01666  0  0.087269  0.078008  0  1.009316  0
H  H17  1  0.79995705  0.43677936  0.60656732  1  0.049777  0  0.090818  0.090509  0  1.014791  0
H  H18  1  0.65057297  0.51039765  0.47797076  1  0.054361  0  0.090656  0.087138  0  1.020512  0
H  H19  1  0.71105958  0.83546714  0.39187227  1  0.031352  0  0.093708  0.090804  0  1.002825  0
H  H20  1  0.53401825  0.76947575  0.47950792  1  0.023204  0  0.09519  0.093108  0  0.985124  0
H  H21  1  0.26312295  0.74908043  0.63265817  1  0.033614  0  0.101632  0.0814  0  0.986395  0
H  H22  1  0.81176560  0.73640869  0.05775721  1  0.604941  0  0.320953  0.401848  0  0.893346  0
H  H23  1  0.18822218  0.26359423  0.94221697  1  0.604734  0  0.320891  0.401744  0  0.893479  0
C  C24  1  0.70363252  0.01631537  0.58489728  1  -0.020411  0  -0.164891  -0.159363  0  3.935842  0
C  C25  1  0.04992938  0.34688450  0.43379168  1  -0.031109  0  -0.166861  -0.160398  0  3.9142  0
C  C26  1  0.84044137  0.36927513  0.38957419  1  0.003098  0  -0.085853  -0.108083  0  3.858257  0
C  C27  1  0.20206000  0.50930527  0.48593122  1  -0.043113  0  -0.167226  -0.166518  0  3.903327  0
C  C28  1  0.79343021  0.41342354  0.24402545  1  1.561214  0  0.242547  0.62986  0  4.092547  0
C  C29  1  0.64171479  0.22330502  0.79343669  1  1.568627  0  0.247407  0.64485  0  4.088462  0
C  C30  1  0.55395137  0.07807116  0.65979460  1  -0.005171  0  -0.085336  -0.110682  0  3.864696  0
C  C31  1  0.39644605  0.12477826  0.55193377  1  -0.014379  0  -0.159093  -0.158088  0  3.895707  0
C  C32  1  0.29638745  0.98370657  0.41509983  1  -0.020618  0  -0.164994  -0.159543  0  3.936231  0
C  C33  1  0.95006645  0.65311740  0.56621138  1  -0.030854  0  -0.166809  -0.160359  0  3.91382  0
C  C34  1  0.15954937  0.63071900  0.61043864  1  0.003151  0  -0.08579  -0.10775  0  3.85817  0
C  C35  1  0.79792272  0.49070103  0.51408303  1  -0.043175  0  -0.167186  -0.166356  0  3.902976  0
C  C36  1  0.20654086  0.58655601  0.75597985  1  1.561028  0  0.242434  0.629734  0  4.09307  0
C  C37  1  0.35829672  0.77669694  0.20656792  1  1.568376  0  0.247343  0.644666  0  4.088459  0
C  C38  1  0.44605456  0.92193608  0.34019896  1  -0.004576  0  -0.08524  -0.110383  0  3.864189  0
C  C39  1  0.60358070  0.87523692  0.44804852  1  -0.014508  0  -0.159018  -0.15775  0  3.894996  0
O  O40  1  0.77238648  0.63045005  0.98579251  1  -1.191666  0  -0.521628  -0.868851  0  2.028751  0
O  O41  1  0.52796578  0.26424481  0.87180351  1  -1.19517  0  -0.297597  -0.601888  0  2.289015  0
O  O42  1  0.64014600  0.46795953  0.21372784  1  -1.178655  0  -0.28795  -0.574679  0  2.283748  0
O  O43  1  0.81991541  0.29597677  0.81550418  1  -1.183239  0  -0.284393  -0.576188  0  2.292925  0
O  O44  1  0.90652473  0.38717254  0.16146388  1  -1.198135  0  -0.293034  -0.591072  0  2.331025  0
O  O45  1  0.22760526  0.36953211  0.01421264  1  -1.191481  0  -0.521608  -0.868723  0  2.028608  0
O  O46  1  0.47204764  0.73574863  0.12819950  1  -1.195109  0  -0.297608  -0.601913  0  2.288935  0
O  O47  1  0.35981675  0.53200537  0.78627382  1  -1.178511  0  -0.287861  -0.574663  0  2.283985  0
O  O48  1  0.18010018  0.70402983  0.18450832  1  -1.183321  0  -0.284336  -0.576071  0  2.292822  0
O  O49  1  0.09346201  0.61282265  0.83855265  1  -1.198206  0  -0.293011  -0.591023  0  2.331195  0
