# generated using pymatgen
data_BaH4(CO)7
_symmetry_space_group_name_H-M   'P 1'
_cell_length_a   4.34564283
_cell_length_b   10.18435690
_cell_length_c   19.45392326
_cell_angle_alpha   89.99997505
_cell_angle_beta   89.99996355
_cell_angle_gamma   90.00000826
_symmetry_Int_Tables_number   1
_chemical_formula_structural   BaH4(CO)7
_chemical_formula_sum   'Ba4 H16 C28 O28'
_cell_volume   860.98351759
_cell_formula_units_Z   4
loop_
 _symmetry_equiv_pos_site_id
 _symmetry_equiv_pos_as_xyz
  1  'x, y, z'
loop_
 _atom_site_type_symbol
 _atom_site_label
 _atom_site_symmetry_multiplicity
 _atom_site_fract_x
 _atom_site_fract_y
 _atom_site_fract_z
 _atom_site_occupancy
 _atom_site_hle17_bader_spin_density
 _atom_site_hle17_ddec_charge
 _atom_site_hle17_ddec_spin_density
 _atom_site_hle17_ddec_sum_bond_order
 _atom_site_hle17_magmom
 _atom_site_hse06_10hf_bader_spin_density
 _atom_site_hse06_10hf_ddec_charge
 _atom_site_hse06_10hf_ddec_spin_density
 _atom_site_hse06_10hf_ddec_sum_bond_order
 _atom_site_hse06_10hf_magmom
 _atom_site_hse06_bader_spin_density
 _atom_site_hse06_ddec_charge
 _atom_site_hse06_ddec_spin_density
 _atom_site_hse06_ddec_sum_bond_order
 _atom_site_hse06_magmom
 _atom_site_pbe_bader_spin_density
 _atom_site_pbe_cm5_charge
 _atom_site_pbe_ddec_charge
 _atom_site_pbe_ddec_spin_density
 _atom_site_pbe_ddec_sum_bond_order
 _atom_site_pbe_magmom
Ba  Ba0  1  0.43791335  0.24999974  0.83732102  1  0  1.656268  0  1.123793  0  0  1.514474  0  1.514274  0  0  1.555698  0  1.470185  0  0  0.960431  1.482883  0  1.548036  0
Ba  Ba1  1  0.93791335  0.74999998  0.66267903  1  0  1.65628  0  1.123788  0  0  1.514494  0  1.514245  0  0  1.55572  0  1.470158  0  0  0.960441  1.482908  0  1.548009  0
Ba  Ba2  1  0.56208704  0.75000018  0.16267914  1  0  1.656277  0  1.123791  0  0  1.514492  0  1.514255  0  0  1.555717  0  1.470166  0  0  0.960443  1.482903  0  1.548017  0
Ba  Ba3  1  0.06208704  0.24999994  0.33732062  1  0  1.656292  0  1.123775  0  0  1.514484  0  1.514269  0  0  1.555709  0  1.47018  0  0  0.960455  1.482893  0  1.548032  0
H  H4  1  0.73840402  0.46498077  0.03359363  1  0  0.149313  0  0.930094  0  0  0.15671  0  0.993397  0  0  0.161377  0  0.990886  0  0  0.128232  0.153175  0  0.995711  0
H  H5  1  0.23840374  0.53501936  0.46640661  1  0  0.149331  0  0.930061  0  0  0.156726  0  0.993364  0  0  0.161392  0  0.990853  0  0  0.128245  0.153191  0  0.995676  0
H  H6  1  0.26159414  0.96498052  0.96640648  1  0  0.149314  0  0.93008  0  0  0.156711  0  0.993386  0  0  0.161377  0  0.990873  0  0  0.128235  0.153176  0  0.9957  0
H  H7  1  0.76159658  0.03501919  0.53359360  1  0  0.14933  0  0.930076  0  0  0.156726  0  0.99338  0  0  0.161393  0  0.990869  0  0  0.128242  0.153191  0  0.995696  0
H  H8  1  0.26159637  0.53501915  0.96640653  1  0  0.149335  0  0.93006  0  0  0.15673  0  0.993366  0  0  0.161398  0  0.990855  0  0  0.128244  0.153195  0  0.995678  0
H  H9  1  0.76159665  0.46498154  0.53359355  1  0  0.149309  0  0.930089  0  0  0.156704  0  0.993398  0  0  0.161372  0  0.990886  0  0  0.128229  0.153168  0  0.995712  0
H  H10  1  0.73840395  0.03501940  0.03359368  1  0  0.149317  0  0.930092  0  0  0.156711  0  0.993401  0  0  0.161378  0  0.990888  0  0  0.128234  0.153176  0  0.995713  0
H  H11  1  0.23840381  0.96498171  0.46640657  1  0  0.149322  0  0.930052  0  0  0.156715  0  0.993364  0  0  0.161381  0  0.990854  0  0  0.128239  0.153179  0  0.99568  0
H  H12  1  0.98283404  0.17155990  0.71370942  1  0  0.42642  0  0.881072  0  0  0.392563  0  0.950988  0  0  0.40414  0  0.934021  0  0  0.29421  0.384271  0  0.9631  0
H  H13  1  0.48283437  0.82843982  0.78629114  1  0  0.426408  0  0.881092  0  0  0.392551  0  0.951005  0  0  0.404129  0  0.934038  0  0  0.294205  0.384259  0  0.963117  0
H  H14  1  0.01716632  0.67156020  0.28629076  1  0  0.426402  0  0.881103  0  0  0.392542  0  0.951021  0  0  0.404119  0  0.934054  0  0  0.294201  0.38425  0  0.963133  0
H  H15  1  0.51716374  0.32843991  0.21370849  1  0  0.426367  0  0.881149  0  0  0.39251  0  0.951062  0  0  0.404089  0  0.934094  0  0  0.294198  0.38422  0  0.96317  0
H  H16  1  0.01716635  0.82844002  0.28629126  1  0  0.426414  0  0.881084  0  0  0.392554  0  0.951003  0  0  0.404131  0  0.934035  0  0  0.294206  0.384261  0  0.963116  0
H  H17  1  0.51716602  0.17156010  0.21370902  1  0  0.426376  0  0.881136  0  0  0.39252  0  0.951048  0  0  0.404098  0  0.93408  0  0  0.294206  0.384228  0  0.96316  0
H  H18  1  0.98283407  0.32843971  0.71370940  1  0  0.426431  0  0.881057  0  0  0.392575  0  0.950968  0  0  0.404153  0  0.934001  0  0  0.294216  0.384283  0  0.96308  0
H  H19  1  0.48283435  0.67156001  0.78629116  1  0  0.426402  0  0.8811  0  0  0.392546  0  0.951013  0  0  0.404124  0  0.934045  0  0  0.294203  0.384254  0  0.963124  0
C  C20  1  0.01989110  0.36494396  0.10427301  1  0  0.18017  0  3.64956  0  0  0.165726  0  3.915093  0  0  0.176021  0  3.925084  0  0  0.113244  0.158549  0  3.908617  0
C  C21  1  0.51989040  0.63505615  0.39572727  1  0  0.180187  0  3.649532  0  0  0.165739  0  3.915045  0  0  0.176034  0  3.925037  0  0  0.113257  0.158563  0  3.90857  0
C  C22  1  0.98010703  0.86494381  0.89572661  1  0  0.180237  0  3.649575  0  0  0.165765  0  3.915132  0  0  0.176063  0  3.925113  0  0  0.113234  0.158589  0  3.908661  0
C  C23  1  0.48010995  0.13505689  0.60427292  1  0  0.180262  0  3.649616  0  0  0.165757  0  3.915178  0  0  0.176051  0  3.92517  0  0  0.113212  0.158578  0  3.908708  0
C  C24  1  0.98011159  0.63505596  0.89572715  1  0  0.180216  0  3.649503  0  0  0.165761  0  3.915022  0  0  0.176058  0  3.925012  0  0  0.113266  0.158588  0  3.908545  0
C  C25  1  0.48010999  0.36494377  0.60427290  1  0  0.180262  0  3.649568  0  0  0.165777  0  3.915103  0  0  0.176072  0  3.925092  0  0  0.113262  0.158602  0  3.908626  0
C  C26  1  0.01989106  0.13505709  0.10427304  1  0  0.18018  0  3.649597  0  0  0.165716  0  3.915147  0  0  0.176016  0  3.92513  0  0  0.113212  0.158539  0  3.908674  0
C  C27  1  0.51989044  0.86494303  0.39572724  1  0  0.180221  0  3.649555  0  0  0.165749  0  3.915104  0  0  0.176048  0  3.925087  0  0  0.113224  0.158572  0  3.90863  0
C  C28  1  0.69202881  0.25000009  0.02207208  1  0  0.486208  0  3.831509  0  0  0.473367  0  4.09523  0  0  0.500012  0  4.095312  0  0  0.141745  0.455608  0  4.094391  0
C  C29  1  0.19203087  0.75000003  0.47792818  1  0  0.486291  0  3.831433  0  0  0.473408  0  4.0952  0  0  0.500056  0  4.095278  0  0  0.141717  0.455649  0  4.094366  0
C  C30  1  0.30797158  0.74999983  0.97792808  1  0  0.486229  0  3.831471  0  0  0.473386  0  4.095196  0  0  0.500031  0  4.095275  0  0  0.141749  0.455626  0  4.094359  0
C  C31  1  0.80797182  0.24999988  0.52207198  1  0  0.486208  0  3.831524  0  0  0.473364  0  4.095248  0  0  0.50001  0  4.095329  0  0  0.141743  0.455604  0  4.09441  0
C  C32  1  0.81310409  0.36925945  0.05200329  1  0  -0.236876  0  3.618569  0  0  -0.274329  0  3.882442  0  0  -0.284648  0  3.895926  0  0  -0.076437  -0.267455  0  3.873459  0
C  C33  1  0.31310389  0.63074166  0.44799694  1  0  -0.236923  0  3.618553  0  0  -0.274355  0  3.882423  0  0  -0.284677  0  3.895909  0  0  -0.076444  -0.267481  0  3.873442  0
C  C34  1  0.18689404  0.86925921  0.94799633  1  0  -0.236882  0  3.618549  0  0  -0.274325  0  3.882414  0  0  -0.284656  0  3.895923  0  0  -0.076442  -0.26745  0  3.873434  0
C  C35  1  0.68689646  0.13074148  0.55200324  1  0  -0.236908  0  3.618547  0  0  -0.274361  0  3.882441  0  0  -0.284679  0  3.895921  0  0  -0.076441  -0.267486  0  3.873462  0
C  C36  1  0.18689631  0.63074145  0.94799687  1  0  -0.236912  0  3.618562  0  0  -0.274369  0  3.882447  0  0  -0.284684  0  3.895918  0  0  -0.076449  -0.267495  0  3.873465  0
C  C37  1  0.68689650  0.36925924  0.55200322  1  0  -0.236867  0  3.618538  0  0  -0.274319  0  3.882419  0  0  -0.284638  0  3.8959  0  0  -0.076432  -0.267445  0  3.873435  0
C  C38  1  0.81310405  0.13074071  0.05200332  1  0  -0.23689  0  3.618566  0  0  -0.274338  0  3.882449  0  0  -0.284657  0  3.895924  0  0  -0.076436  -0.267465  0  3.87347  0
C  C39  1  0.31310393  0.86925844  0.44799692  1  0  -0.236925  0  3.618535  0  0  -0.274357  0  3.882417  0  0  -0.284681  0  3.895904  0  0  -0.076436  -0.267484  0  3.873439  0
C  C40  1  0.15576510  0.48488280  0.13836020  1  0  0.611455  0  3.974652  0  0  0.562452  0  4.268777  0  0  0.59519  0  4.260029  0  0  0.219884  0.540427  0  4.273392  0
C  C41  1  0.65576676  0.51511634  0.36164006  1  0  0.611442  0  3.97472  0  0  0.562435  0  4.268845  0  0  0.595172  0  4.260099  0  0  0.219854  0.540409  0  4.273459  0
C  C42  1  0.84423307  0.98488267  0.86163991  1  0  0.611404  0  3.974661  0  0  0.562416  0  4.268775  0  0  0.595154  0  4.260025  0  0  0.219878  0.540392  0  4.273393  0
C  C43  1  0.34423585  0.01511705  0.63836016  1  0  0.611435  0  3.974686  0  0  0.562444  0  4.268804  0  0  0.595182  0  4.260056  0  0  0.219868  0.540422  0  4.273422  0
C  C44  1  0.84423529  0.51511712  0.86164048  1  0  0.611479  0  3.974597  0  0  0.56249  0  4.268703  0  0  0.595227  0  4.259955  0  0  0.219904  0.540464  0  4.273314  0
C  C45  1  0.34423593  0.48488259  0.63836010  1  0  0.611424  0  3.97473  0  0  0.562427  0  4.268848  0  0  0.595164  0  4.2601  0  0  0.219869  0.540401  0  4.27346  0
C  C46  1  0.15576502  0.01511627  0.13835974  1  0  0.611399  0  3.974782  0  0  0.562416  0  4.268874  0  0  0.595153  0  4.260124  0  0  0.219863  0.540391  0  4.273489  0
C  C47  1  0.65576454  0.98488287  0.36164001  1  0  0.611436  0  3.974689  0  0  0.562442  0  4.268806  0  0  0.595178  0  4.260058  0  0  0.219895  0.540416  0  4.27342  0
O  O48  1  0.91741907  0.24999980  0.74086640  1  0  -0.945081  0  1.838978  0  0  -0.890018  0  2.034118  0  0  -0.911195  0  2.001006  0  0  -0.64938  -0.874797  0  2.057852  0
O  O49  1  0.41741945  0.74999992  0.75913365  1  0  -0.945053  0  1.839001  0  0  -0.889984  0  2.034131  0  0  -0.911162  0  2.00102  0  0  -0.649372  -0.874762  0  2.057865  0
O  O50  1  0.08258132  0.74999914  0.25913376  1  0  -0.945061  0  1.838986  0  0  -0.889981  0  2.034126  0  0  -0.911159  0  2.001016  0  0  -0.649372  -0.87476  0  2.057861  0
O  O51  1  0.58258094  0.24999999  0.24086651  1  0  -0.945008  0  1.839079  0  0  -0.889931  0  2.034211  0  0  -0.91111  0  2.0011  0  0  -0.649389  -0.874711  0  2.057943  0
O  O52  1  0.49200181  0.24999968  0.97527828  1  0  -0.589243  0  1.940097  0  0  -0.54444  0  2.174576  0  0  -0.565675  0  2.16733  0  0  -0.348765  -0.529196  0  2.179553  0
O  O53  1  0.99200221  0.75000004  0.52472177  1  0  -0.589284  0  1.940054  0  0  -0.544473  0  2.174545  0  0  -0.565709  0  2.1673  0  0  -0.348763  -0.52923  0  2.179525  0
O  O54  1  0.50799858  0.75000023  0.02472188  1  0  -0.589247  0  1.94008  0  0  -0.544452  0  2.17456  0  0  -0.565685  0  2.167316  0  0  -0.348765  -0.529208  0  2.179538  0
O  O55  1  0.00799818  0.24999988  0.47527788  1  0  -0.589251  0  1.940101  0  0  -0.544449  0  2.174583  0  0  -0.565685  0  2.167338  0  0  -0.348773  -0.529205  0  2.17956  0
O  O56  1  0.12724685  0.25000003  0.13021997  1  0  -0.206348  0  2.534778  0  0  -0.125737  0  2.746698  0  0  -0.145553  0  2.755022  0  0  -0.088483  -0.11247  0  2.741409  0
O  O57  1  0.62724627  0.75000009  0.36978029  1  0  -0.206393  0  2.534799  0  0  -0.125761  0  2.7467  0  0  -0.145577  0  2.755025  0  0  -0.088488  -0.112494  0  2.741411  0
O  O58  1  0.87275354  0.74999989  0.86978019  1  0  -0.206435  0  2.534757  0  0  -0.1258  0  2.746662  0  0  -0.145616  0  2.754985  0  0  -0.08851  -0.112537  0  2.741376  0
O  O59  1  0.37275642  0.24999884  0.63021935  1  0  -0.206505  0  2.535004  0  0  -0.125798  0  2.746856  0  0  -0.145616  0  2.755185  0  0  -0.088473  -0.112533  0  2.741569  0
O  O60  1  0.37365685  0.47078764  0.18111814  1  0  -0.633259  0  1.965384  0  0  -0.57934  0  2.18655  0  0  -0.603927  0  2.178153  0  0  -0.307016  -0.561629  0  2.191404  0
O  O61  1  0.87365864  0.52921249  0.31888209  1  0  -0.633282  0  1.965355  0  0  -0.579361  0  2.186518  0  0  -0.603948  0  2.178121  0  0  -0.307028  -0.56165  0  2.191372  0
O  O62  1  0.62634131  0.97078753  0.81888197  1  0  -0.633273  0  1.965398  0  0  -0.57936  0  2.186559  0  0  -0.603948  0  2.178162  0  0  -0.30703  -0.56165  0  2.191417  0
O  O63  1  0.12634398  0.02921315  0.68111813  1  0  -0.633276  0  1.965395  0  0  -0.579351  0  2.18653  0  0  -0.603938  0  2.178133  0  0  -0.30703  -0.56164  0  2.191387  0
O  O64  1  0.62634124  0.52921228  0.81888253  1  0  -0.633273  0  1.965361  0  0  -0.57935  0  2.186521  0  0  -0.603939  0  2.178124  0  0  -0.307033  -0.56164  0  2.191376  0
O  O65  1  0.12634405  0.47078742  0.68111808  1  0  -0.633269  0  1.965384  0  0  -0.579338  0  2.186521  0  0  -0.603926  0  2.178124  0  0  -0.307027  -0.561628  0  2.191375  0
O  O66  1  0.37365908  0.02921238  0.18111768  1  0  -0.633267  0  1.965343  0  0  -0.579347  0  2.186498  0  0  -0.603936  0  2.178101  0  0  -0.307022  -0.561636  0  2.191352  0
O  O67  1  0.87365641  0.97078775  0.31888152  1  0  -0.633272  0  1.965419  0  0  -0.579354  0  2.186582  0  0  -0.603942  0  2.178184  0  0  -0.307026  -0.561643  0  2.191436  0
O  O68  1  0.04391058  0.59400211  0.11945655  1  0  -0.69812  0  2.019435  0  0  -0.637601  0  2.261818  0  0  -0.664793  0  2.255122  0  0  -0.379881  -0.618349  0  2.267003  0
O  O69  1  0.54391445  0.40599702  0.38054269  1  0  -0.698068  0  2.019523  0  0  -0.637552  0  2.261921  0  0  -0.664742  0  2.255226  0  0  -0.379831  -0.618299  0  2.267106  0
O  O70  1  0.95608516  0.09400363  0.88054262  1  0  -0.698104  0  2.019439  0  0  -0.637578  0  2.261797  0  0  -0.664768  0  2.255102  0  0  -0.379872  -0.618325  0  2.266984  0
O  O71  1  0.45608369  0.90599609  0.61945692  1  0  -0.698122  0  2.019512  0  0  -0.637599  0  2.261869  0  0  -0.664789  0  2.255174  0  0  -0.379862  -0.618346  0  2.267057  0
O  O72  1  0.95608751  0.40599781  0.88054361  1  0  -0.698103  0  2.019387  0  0  -0.637611  0  2.261803  0  0  -0.664802  0  2.255107  0  0  -0.379879  -0.618359  0  2.266986  0
O  O73  1  0.45609054  0.59400192  0.61945644  1  0  -0.698079  0  2.019489  0  0  -0.637588  0  2.261912  0  0  -0.664779  0  2.255217  0  0  -0.37986  -0.618336  0  2.267096  0
O  O74  1  0.04391063  0.90599727  0.11945652  1  0  -0.698067  0  2.019578  0  0  -0.63757  0  2.261969  0  0  -0.664761  0  2.255272  0  0  -0.379857  -0.618318  0  2.267155  0
O  O75  1  0.54391440  0.09400383  0.38054273  1  0  -0.698125  0  2.019457  0  0  -0.637594  0  2.261819  0  0  -0.664784  0  2.255124  0  0  -0.379891  -0.618341  0  2.267004  0
