# generated using pymatgen
data_RbH6C9Cl4O3
_symmetry_space_group_name_H-M   'P 1'
_cell_length_a   7.69938784
_cell_length_b   10.51748650
_cell_length_c   17.10982795
_cell_angle_alpha   90.00001599
_cell_angle_beta   90.00005708
_cell_angle_gamma   103.77814859
_symmetry_Int_Tables_number   1
_chemical_formula_structural   RbH6C9Cl4O3
_chemical_formula_sum   'Rb4 H24 C36 Cl16 O12'
_cell_volume   1345.65502106
_cell_formula_units_Z   4
loop_
 _symmetry_equiv_pos_site_id
 _symmetry_equiv_pos_as_xyz
  1  'x, y, z'
loop_
 _atom_site_type_symbol
 _atom_site_label
 _atom_site_symmetry_multiplicity
 _atom_site_fract_x
 _atom_site_fract_y
 _atom_site_fract_z
 _atom_site_occupancy
 _atom_site_hle17_bader_spin_density
 _atom_site_hle17_ddec_charge
 _atom_site_hle17_ddec_spin_density
 _atom_site_hle17_ddec_sum_bond_order
 _atom_site_hle17_magmom
 _atom_site_hse06_10hf_bader_spin_density
 _atom_site_hse06_10hf_ddec_charge
 _atom_site_hse06_10hf_ddec_spin_density
 _atom_site_hse06_10hf_ddec_sum_bond_order
 _atom_site_hse06_10hf_magmom
 _atom_site_hse06_bader_spin_density
 _atom_site_hse06_ddec_charge
 _atom_site_hse06_ddec_spin_density
 _atom_site_hse06_ddec_sum_bond_order
 _atom_site_hse06_magmom
 _atom_site_pbe_bader_spin_density
 _atom_site_pbe_cm5_charge
 _atom_site_pbe_ddec_charge
 _atom_site_pbe_ddec_spin_density
 _atom_site_pbe_ddec_sum_bond_order
 _atom_site_pbe_magmom
Rb  Rb0  1  0.43600934  0.79728279  0.23317843  1  0  0.928599  0  0.580822  0  0  0.866144  0  0.825483  0  0  0.882465  0  0.800852  0  0  0.768799  0.854185  0  0.842953  0
Rb  Rb1  1  0.06398881  0.20271732  0.73317748  1  0  0.928581  0  0.580838  0  0  0.866135  0  0.825505  0  0  0.88246  0  0.800873  0  0  0.768822  0.85418  0  0.842975  0
Rb  Rb2  1  0.56398836  0.20271815  0.76682025  1  0  0.928576  0  0.580838  0  0  0.866123  0  0.825521  0  0  0.882444  0  0.800892  0  0  0.768832  0.854164  0  0.842994  0
Rb  Rb3  1  0.93601144  0.79728755  0.26681828  1  0  0.928604  0  0.580813  0  0  0.866136  0  0.825503  0  0  0.882455  0  0.800873  0  0  0.768807  0.854177  0  0.842973  0
H  H4  1  0.36724868  0.47142708  0.32543239  1  0  0.143652  0  0.945657  0  0  0.16113  0  1.005683  0  0  0.163988  0  1.004224  0  0  0.101767  0.159086  0  1.006769  0
H  H5  1  0.13274970  0.52857310  0.82543094  1  0  0.143724  0  0.945694  0  0  0.161253  0  1.005664  0  0  0.164116  0  1.004195  0  0  0.101809  0.15921  0  1.006748  0
H  H6  1  0.63274970  0.52857191  0.67457156  1  0  0.14373  0  0.945624  0  0  0.161246  0  1.00561  0  0  0.16411  0  1.004136  0  0  0.101842  0.159198  0  1.006707  0
H  H7  1  0.86725710  0.47142787  0.17457242  1  0  0.143725  0  0.945706  0  0  0.16125  0  1.005677  0  0  0.164115  0  1.004202  0  0  0.101821  0.159201  0  1.006777  0
H  H8  1  0.25053243  0.43187865  0.41639996  1  0  0.13022  0  0.954058  0  0  0.146888  0  1.020157  0  0  0.148274  0  1.020217  0  0  0.089749  0.145795  0  1.020409  0
H  H9  1  0.24946753  0.56811770  0.91639798  1  0  0.130242  0  0.954083  0  0  0.146913  0  1.020172  0  0  0.148299  0  1.020232  0  0  0.089778  0.145821  0  1.020424  0
H  H10  1  0.74946564  0.56811935  0.58360165  1  0  0.130224  0  0.954038  0  0  0.146883  0  1.020157  0  0  0.148269  0  1.020216  0  0  0.089749  0.145791  0  1.020407  0
H  H11  1  0.75054032  0.43187838  0.08360304  1  0  0.130234  0  0.954026  0  0  0.146885  0  1.020148  0  0  0.148276  0  1.020204  0  0  0.089756  0.145793  0  1.0204  0
H  H12  1  0.19693052  0.32281270  0.33799646  1  0  0.134418  0  0.95386  0  0  0.150402  0  1.021122  0  0  0.151578  0  1.021571  0  0  0.090502  0.149526  0  1.020879  0
H  H13  1  0.30306597  0.67718553  0.83799628  1  0  0.134448  0  0.953829  0  0  0.150432  0  1.021088  0  0  0.151608  0  1.021538  0  0  0.090512  0.149557  0  1.020845  0
H  H14  1  0.80306822  0.67718335  0.66200456  1  0  0.134481  0  0.953795  0  0  0.150442  0  1.02108  0  0  0.151617  0  1.02153  0  0  0.090521  0.149565  0  1.020838  0
H  H15  1  0.69693725  0.32281641  0.16200591  1  0  0.134451  0  0.953823  0  0  0.150409  0  1.021101  0  0  0.151585  0  1.021551  0  0  0.090511  0.149533  0  1.020858  0
H  H16  1  0.82284042  0.50860792  0.33983299  1  0  0.136828  0  0.951326  0  0  0.154469  0  1.012008  0  0  0.157542  0  1.010111  0  0  0.100331  0.152158  0  1.013625  0
H  H17  1  0.67715706  0.49139001  0.83982921  1  0  0.136819  0  0.951378  0  0  0.154461  0  1.012061  0  0  0.157527  0  1.01017  0  0  0.100354  0.152147  0  1.013681  0
H  H18  1  0.17715702  0.49138813  0.66016978  1  0  0.136819  0  0.951393  0  0  0.154443  0  1.0121  0  0  0.157527  0  1.010192  0  0  0.100333  0.152131  0  1.013717  0
H  H19  1  0.32284688  0.50860606  0.16017005  1  0  0.136799  0  0.951281  0  0  0.154433  0  1.011982  0  0  0.157523  0  1.010067  0  0  0.100336  0.152122  0  1.0136  0
H  H20  1  0.85996861  0.34830131  0.35398041  1  0  0.131072  0  0.976546  0  0  0.143892  0  1.049866  0  0  0.145248  0  1.050447  0  0  0.087203  0.14288  0  1.049484  0
H  H21  1  0.64003052  0.65169762  0.85397840  1  0  0.131074  0  0.976517  0  0  0.143892  0  1.049831  0  0  0.145249  0  1.05041  0  0  0.08722  0.142881  0  1.049448  0
H  H22  1  0.14002753  0.65169474  0.64602061  1  0  0.131057  0  0.976429  0  0  0.143876  0  1.049756  0  0  0.145236  0  1.050334  0  0  0.087205  0.142864  0  1.049373  0
H  H23  1  0.35997925  0.34830043  0.14602204  1  0  0.131076  0  0.976523  0  0  0.143883  0  1.049853  0  0  0.145243  0  1.050431  0  0  0.087226  0.14287  0  1.049471  0
H  H24  1  0.92779275  0.46579265  0.42692331  1  0  0.127017  0  0.958348  0  0  0.143566  0  1.024691  0  0  0.14491  0  1.024801  0  0  0.089587  0.14272  0  1.02426  0
H  H25  1  0.57220463  0.53420438  0.92691949  1  0  0.127028  0  0.958319  0  0  0.143578  0  1.024657  0  0  0.144924  0  1.024763  0  0  0.089623  0.142732  0  1.024227  0
H  H26  1  0.07220307  0.53420242  0.57307830  1  0  0.12702  0  0.958279  0  0  0.143573  0  1.024617  0  0  0.144917  0  1.024728  0  0  0.089602  0.142727  0  1.024184  0
H  H27  1  0.42780061  0.46579170  0.07307919  1  0  0.12703  0  0.958314  0  0  0.143582  0  1.024652  0  0  0.144927  0  1.024762  0  0  0.089615  0.142735  0  1.024224  0
C  C28  1  0.78623299  0.96589370  0.08521678  1  0  0.304706  0  3.937233  0  0  0.283483  0  4.216646  0  0  0.29957  0  4.229974  0  0  0.089778  0.272537  0  4.208079  0
C  C29  1  0.71376736  0.03411087  0.58521996  1  0  0.304623  0  3.937358  0  0  0.283428  0  4.216756  0  0  0.299501  0  4.230102  0  0  0.089798  0.272489  0  4.208171  0
C  C30  1  0.21376909  0.03412095  0.91477664  1  0  0.304295  0  3.937841  0  0  0.28329  0  4.216877  0  0  0.299386  0  4.230213  0  0  0.089795  0.272375  0  4.208277  0
C  C31  1  0.28622982  0.96588030  0.41477814  1  0  0.304453  0  3.937504  0  0  0.283293  0  4.216789  0  0  0.299395  0  4.230121  0  0  0.089796  0.272372  0  4.208203  0
C  C32  1  0.68745410  0.91127116  0.01521313  1  0  -0.020661  0  3.752053  0  0  -0.025408  0  4.036314  0  0  -0.02554  0  4.056099  0  0  -0.008415  -0.025102  0  4.023031  0
C  C33  1  0.81252787  0.08873328  0.51521461  1  0  -0.02054  0  3.752161  0  0  -0.025316  0  4.03643  0  0  -0.025446  0  4.056227  0  0  -0.00845  -0.025015  0  4.023149  0
C  C34  1  0.31253493  0.08874735  0.98478614  1  0  -0.020352  0  3.752136  0  0  -0.025214  0  4.03647  0  0  -0.025334  0  4.056254  0  0  -0.008338  -0.024905  0  4.023187  0
C  C35  1  0.18746478  0.91125591  0.48478758  1  0  -0.020423  0  3.751905  0  0  -0.025254  0  4.036257  0  0  -0.025362  0  4.056043  0  0  -0.008339  -0.024934  0  4.022971  0
C  C36  1  0.71056612  0.97514392  0.94457608  1  0  -0.023781  0  3.762055  0  0  -0.027142  0  4.045814  0  0  -0.027307  0  4.065683  0  0  -0.008904  -0.02742  0  4.032418  0
C  C37  1  0.78943297  0.02485020  0.44458268  1  0  -0.024041  0  3.762056  0  0  -0.027361  0  4.045738  0  0  -0.027546  0  4.065641  0  0  -0.008924  -0.027651  0  4.032361  0
C  C38  1  0.28944094  0.02486195  0.05541734  1  0  -0.02389  0  3.762126  0  0  -0.027336  0  4.046034  0  0  -0.027507  0  4.065913  0  0  -0.008923  -0.027623  0  4.032663  0
C  C39  1  0.21056067  0.97513802  0.55542127  1  0  -0.023783  0  3.761926  0  0  -0.027195  0  4.045798  0  0  -0.027382  0  4.065704  0  0  -0.008903  -0.027478  0  4.032422  0
C  C40  1  0.83393169  0.10328606  0.93441754  1  0  0.303422  0  3.938343  0  0  0.281649  0  4.218532  0  0  0.29777  0  4.231644  0  0  0.090396  0.27152  0  4.208689  0
C  C41  1  0.66606343  0.89671195  0.43442190  1  0  0.30361  0  3.938132  0  0  0.281882  0  4.218309  0  0  0.297985  0  4.231454  0  0  0.090489  0.27175  0  4.208473  0
C  C42  1  0.16606305  0.89671781  0.06558231  1  0  0.303486  0  3.938234  0  0  0.281662  0  4.218551  0  0  0.297808  0  4.231652  0  0  0.090345  0.27155  0  4.208712  0
C  C43  1  0.33393635  0.10327922  0.56558613  1  0  0.303394  0  3.938397  0  0  0.281542  0  4.218705  0  0  0.297697  0  4.231806  0  0  0.090273  0.271433  0  4.208864  0
C  C44  1  0.92358616  0.16137558  0.00529660  1  0  -0.029438  0  3.768766  0  0  -0.034975  0  4.056443  0  0  -0.037073  0  4.079704  0  0  -0.011479  -0.033855  0  4.041453  0
C  C45  1  0.57641175  0.83862598  0.50530102  1  0  -0.029518  0  3.768936  0  0  -0.035103  0  4.056687  0  0  -0.037201  0  4.079957  0  0  -0.011547  -0.033979  0  4.041688  0
C  C46  1  0.07641342  0.83863124  0.99469975  1  0  -0.029511  0  3.768674  0  0  -0.035115  0  4.056469  0  0  -0.037206  0  4.079723  0  0  -0.011553  -0.033984  0  4.041474  0
C  C47  1  0.42359417  0.16136815  0.49470117  1  0  -0.029466  0  3.768786  0  0  -0.035038  0  4.056527  0  0  -0.037122  0  4.079778  0  0  -0.0115  -0.033904  0  4.041526  0
C  C48  1  0.90174027  0.09644158  0.07608456  1  0  -0.028729  0  3.762405  0  0  -0.033278  0  4.048691  0  0  -0.03559  0  4.072294  0  0  -0.011573  -0.032594  0  4.033824  0
C  C49  1  0.59825745  0.90356297  0.57608666  1  0  -0.028697  0  3.76237  0  0  -0.033289  0  4.048786  0  0  -0.035603  0  4.072394  0  0  -0.011599  -0.032613  0  4.033916  0
C  C50  1  0.09825437  0.90357011  0.92391413  1  0  -0.028526  0  3.762232  0  0  -0.033155  0  4.048539  0  0  -0.035457  0  4.072138  0  0  -0.011561  -0.032477  0  4.033671  0
C  C51  1  0.40175169  0.09643312  0.42391669  1  0  -0.028657  0  3.762376  0  0  -0.033261  0  4.04872  0  0  -0.035556  0  4.0723  0  0  -0.011626  -0.032573  0  4.033847  0
C  C52  1  0.09667249  0.49481877  0.32565559  1  0  0.620973  0  3.610401  0  0  0.620647  0  3.869399  0  0  0.641007  0  3.872642  0  0  0.174806  0.606675  0  3.866995  0
C  C53  1  0.40332558  0.50518043  0.82565134  1  0  0.620949  0  3.610812  0  0  0.620618  0  3.869804  0  0  0.640977  0  3.873047  0  0  0.174704  0.606646  0  3.867401  0
C  C54  1  0.90332428  0.50517923  0.67434484  1  0  0.620806  0  3.610673  0  0  0.62059  0  3.86953  0  0  0.640948  0  3.872775  0  0  0.174758  0.606617  0  3.867126  0
C  C55  1  0.59668091  0.49481956  0.17434734  1  0  0.620955  0  3.61059  0  0  0.620686  0  3.869508  0  0  0.641043  0  3.872755  0  0  0.174827  0.606715  0  3.867105  0
C  C56  1  0.23789914  0.42772028  0.35240515  1  0  -0.452213  0  3.665477  0  0  -0.528177  0  3.894168  0  0  -0.534212  0  3.900274  0  0  -0.249134  -0.523701  0  3.889822  0
C  C57  1  0.26209868  0.57227797  0.85240377  1  0  -0.452329  0  3.665505  0  0  -0.528359  0  3.894204  0  0  -0.53439  0  3.900299  0  0  -0.249198  -0.523885  0  3.889863  0
C  C58  1  0.76209601  0.57227674  0.64759586  1  0  -0.452262  0  3.665416  0  0  -0.528282  0  3.894104  0  0  -0.534312  0  3.900201  0  0  -0.249199  -0.523806  0  3.889755  0
C  C59  1  0.73791041  0.42772203  0.14759783  1  0  -0.452319  0  3.665436  0  0  -0.528315  0  3.894113  0  0  -0.534354  0  3.900213  0  0  -0.249201  -0.52384  0  3.889765  0
C  C60  1  0.91552471  0.45368607  0.36317982  1  0  -0.459478  0  3.681521  0  0  -0.535428  0  3.911362  0  0  -0.541687  0  3.917422  0  0  -0.252405  -0.530688  0  3.907052  0
C  C61  1  0.58447283  0.54631188  0.86317601  1  0  -0.459503  0  3.681571  0  0  -0.535456  0  3.91141  0  0  -0.541707  0  3.917469  0  0  -0.25252  -0.530708  0  3.907084  0
C  C62  1  0.08447372  0.54630900  0.63682120  1  0  -0.459438  0  3.681492  0  0  -0.535408  0  3.911307  0  0  -0.541677  0  3.917355  0  0  -0.25244  -0.530671  0  3.907008  0
C  C63  1  0.41553335  0.45368714  0.13682267  1  0  -0.459501  0  3.681487  0  0  -0.535452  0  3.911293  0  0  -0.541729  0  3.91733  0  0  -0.252507  -0.530708  0  3.906977  0
Cl  Cl64  1  0.53265575  0.76516626  0.02726639  1  0  -0.044231  0  1.475234  0  0  -0.025579  0  1.728724  0  0  -0.027551  0  1.725255  0  0  0.0305  -0.023849  0  1.730999  0
Cl  Cl65  1  0.96734091  0.23483531  0.52726796  1  0  -0.044237  0  1.475088  0  0  -0.025586  0  1.728615  0  0  -0.027556  0  1.725143  0  0  0.030512  -0.023853  0  1.730889  0
Cl  Cl66  1  0.46734602  0.23484741  0.97273229  1  0  -0.044262  0  1.475155  0  0  -0.025596  0  1.728708  0  0  -0.027571  0  1.725242  0  0  0.030483  -0.023871  0  1.730987  0
Cl  Cl67  1  0.03265236  0.76515584  0.47273247  1  0  -0.044251  0  1.475108  0  0  -0.025587  0  1.728649  0  0  -0.027562  0  1.725179  0  0  0.030499  -0.023862  0  1.730927  0
Cl  Cl68  1  0.58825786  0.91226331  0.86362959  1  0  -0.056758  0  1.526661  0  0  -0.041559  0  1.788281  0  0  -0.042617  0  1.782782  0  0  0.028367  -0.04051  0  1.792294  0
Cl  Cl69  1  0.91172897  0.08773363  0.36363391  1  0  -0.056689  0  1.526512  0  0  -0.041509  0  1.788095  0  0  -0.04256  0  1.782604  0  0  0.028365  -0.040455  0  1.792109  0
Cl  Cl70  1  0.41172877  0.08773955  0.13636851  1  0  -0.05675  0  1.526618  0  0  -0.041517  0  1.788231  0  0  -0.042575  0  1.78274  0  0  0.028362  -0.040467  0  1.79225  0
Cl  Cl71  1  0.08826072  0.91225849  0.63637120  1  0  -0.056804  0  1.526563  0  0  -0.041593  0  1.788196  0  0  -0.042643  0  1.782715  0  0  0.028347  -0.040546  0  1.792219  0
Cl  Cl72  1  0.04501998  0.32043726  0.99702292  1  0  -0.038825  0  1.44584  0  0  -0.021772  0  1.685461  0  0  -0.02245  0  1.680651  0  0  0.021016  -0.021665  0  1.691274  0
Cl  Cl73  1  0.45498533  0.67956310  0.49702971  1  0  -0.038818  0  1.445863  0  0  -0.021742  0  1.685488  0  0  -0.022419  0  1.680674  0  0  0.021035  -0.021637  0  1.6913  0
Cl  Cl74  1  0.95498319  0.67956859  0.00297050  1  0  -0.03879  0  1.445811  0  0  -0.021703  0  1.685433  0  0  -0.022385  0  1.680623  0  0  0.021069  -0.0216  0  1.691249  0
Cl  Cl75  1  0.54501928  0.32043102  0.50297482  1  0  -0.038776  0  1.445829  0  0  -0.021703  0  1.68544  0  0  -0.022385  0  1.680628  0  0  0.021062  -0.021603  0  1.691254  0
Cl  Cl76  1  0.99715767  0.17032844  0.16044955  1  0  -0.041885  0  1.45657  0  0  -0.025018  0  1.700049  0  0  -0.025837  0  1.695145  0  0  0.022849  -0.02435  0  1.703799  0
Cl  Cl77  1  0.50284478  0.82967815  0.66045510  1  0  -0.041935  0  1.456502  0  0  -0.025053  0  1.70004  0  0  -0.025868  0  1.695123  0  0  0.022813  -0.024384  0  1.703792  0
Cl  Cl78  1  0.00284019  0.82968521  0.83954271  1  0  -0.041949  0  1.456476  0  0  -0.025085  0  1.700025  0  0  -0.025906  0  1.695114  0  0  0.022806  -0.024417  0  1.703783  0
Cl  Cl79  1  0.49716015  0.17031695  0.33954708  1  0  -0.041898  0  1.456516  0  0  -0.025035  0  1.700049  0  0  -0.02585  0  1.695128  0  0  0.022844  -0.024372  0  1.703809  0
O  O80  1  0.76383784  0.90705512  0.14997897  1  0  -0.603927  0  2.060848  0  0  -0.570915  0  2.315982  0  0  -0.590654  0  2.314368  0  0  -0.451413  -0.557462  0  2.317089  0
O  O81  1  0.73615612  0.09295339  0.64998158  1  0  -0.603835  0  2.060786  0  0  -0.570831  0  2.315956  0  0  -0.590581  0  2.314352  0  0  -0.451423  -0.557392  0  2.317056  0
O  O82  1  0.23615837  0.09296146  0.85001562  1  0  -0.603655  0  2.0612  0  0  -0.570865  0  2.316397  0  0  -0.590581  0  2.314786  0  0  -0.45145  -0.5574  0  2.317495  0
O  O83  1  0.26384132  0.90704266  0.35001710  1  0  -0.6037  0  2.061085  0  0  -0.570831  0  2.316288  0  0  -0.590538  0  2.314679  0  0  -0.451439  -0.55736  0  2.317396  0
O  O84  1  0.85213724  0.16223968  0.86966822  1  0  -0.595668  0  2.039162  0  0  -0.560952  0  2.286861  0  0  -0.580231  0  2.284632  0  0  -0.436043  -0.54715  0  2.287552  0
O  O85  1  0.64785767  0.83776218  0.36967080  1  0  -0.595765  0  2.038969  0  0  -0.561041  0  2.286614  0  0  -0.580325  0  2.284396  0  0  -0.436073  -0.547242  0  2.287294  0
O  O86  1  0.14785886  0.83776028  0.13033105  1  0  -0.59563  0  2.039098  0  0  -0.560965  0  2.286844  0  0  -0.580226  0  2.284609  0  0  -0.43601  -0.547136  0  2.287515  0
O  O87  1  0.35214169  0.16223583  0.63033256  1  0  -0.595529  0  2.039337  0  0  -0.560856  0  2.287063  0  0  -0.580105  0  2.284831  0  0  -0.435914  -0.547026  0  2.287743  0
O  O88  1  0.12761313  0.57986463  0.27417759  1  0  -0.565434  0  1.91576  0  0  -0.522006  0  2.128806  0  0  -0.541585  0  2.124197  0  0  -0.356267  -0.508714  0  2.132074  0
O  O89  1  0.37238669  0.42014040  0.77417155  1  0  -0.565401  0  1.916196  0  0  -0.521923  0  2.129149  0  0  -0.54152  0  2.124576  0  0  -0.356131  -0.50863  0  2.132416  0
O  O90  1  0.87238816  0.42013535  0.72582577  1  0  -0.56537  0  1.915867  0  0  -0.521976  0  2.128844  0  0  -0.541571  0  2.124261  0  0  -0.356244  -0.508682  0  2.13211  0
O  O91  1  0.62761939  0.57986643  0.22582421  1  0  -0.56539  0  1.915939  0  0  -0.521976  0  2.128927  0  0  -0.54157  0  2.124347  0  0  -0.356255  -0.508685  0  2.132194  0
