# generated using pymatgen
data_ZnH27C27N4O5
_symmetry_space_group_name_H-M   'P 1'
_cell_length_a   8.97391257
_cell_length_b   10.26795390
_cell_length_c   18.02112356
_cell_angle_alpha   100.57505318
_cell_angle_beta   90.94226524
_cell_angle_gamma   106.95541360
_symmetry_Int_Tables_number   1
_chemical_formula_structural   ZnH27C27N4O5
_chemical_formula_sum   'Zn2 H54 C54 N8 O10'
_cell_volume   1557.04727017
_cell_formula_units_Z   2
loop_
 _symmetry_equiv_pos_site_id
 _symmetry_equiv_pos_as_xyz
  1  'x, y, z'
loop_
 _atom_site_type_symbol
 _atom_site_label
 _atom_site_symmetry_multiplicity
 _atom_site_fract_x
 _atom_site_fract_y
 _atom_site_fract_z
 _atom_site_occupancy
 _atom_site_pbe_bader_charge
 _atom_site_pbe_bader_spin_density
 _atom_site_pbe_cm5_charge
 _atom_site_pbe_ddec_charge
 _atom_site_pbe_ddec_spin_density
 _atom_site_pbe_ddec_sum_bond_order
 _atom_site_pbe_magmom
Zn  Zn0  1  0.31907813  0.29386173  0.13705911  1  1.296763  0  0.675498  0.784587  0  2.358996  0
Zn  Zn1  1  0.68092271  0.70613782  0.86293956  1  1.296794  0  0.675494  0.784595  0  2.359028  0
H  H2  1  0.53488054  0.10918412  0.30813574  1  0.037071  0  0.103174  0.111609  0  1.009  0
H  H3  1  0.46512141  0.89081543  0.69186405  1  0.037098  0  0.103181  0.111616  0  1.009001  0
H  H4  1  0.26415507  0.78948232  0.12671473  1  0.101426  0  0.100199  0.108062  0  1.041312  0
H  H5  1  0.73583986  0.21051619  0.87328767  1  0.10149  0  0.100194  0.108058  0  1.041273  0
H  H6  1  0.50310248  0.67603563  0.30018837  1  0.103037  0  0.099206  0.111302  0  1.037096  0
H  H7  1  0.49690059  0.32396393  0.69981144  1  0.103012  0  0.099227  0.111318  0  1.037105  0
H  H8  1  0.76761089  0.79601480  0.34299143  1  0.024705  0  0.09603  0.064097  0  1.003031  0
H  H9  1  0.23238737  0.20398370  0.65700823  1  0.02472  0  0.096041  0.064088  0  1.003021  0
H  H10  1  0.65260129  0.76562670  0.41984685  1  0.03002  0  0.102991  0.079215  0  0.972878  0
H  H11  1  0.34740102  0.23437390  0.58015472  1  0.030023  0  0.102978  0.079224  0  0.972846  0
H  H12  1  0.92484547  0.96388785  0.30629959  1  0.034866  0  0.086256  0.113274  0  1.043955  0
H  H13  1  0.07515586  0.03610651  0.69369856  1  0.034781  0  0.086242  0.113242  0  1.043982  0
H  H14  1  0.06073699  0.86993965  0.31323839  1  0.010851  0  0.091922  0.129053  0  0.997958  0
H  H15  1  0.93927527  0.13006408  0.68676081  1  0.010861  0  0.091928  0.129079  0  0.997922  0
H  H16  1  0.12693065  0.05180443  0.32346576  1  0.062371  0  0.093916  0.13501  0  1.015031  0
H  H17  1  0.87307311  0.94819721  0.67653371  1  0.062381  0  0.09392  0.134995  0  1.015084  0
H  H18  1  0.59839832  0.88388325  0.51511956  1  0.025597  0  0.08911  0.124794  0  1.027286  0
H  H19  1  0.40160509  0.11611734  0.48487869  1  0.025766  0  0.089129  0.124794  0  1.027282  0
H  H20  1  0.67892698  0.97929660  0.60568594  1  0.070912  0  0.089454  0.131826  0  1.028789  0
H  H21  1  0.32107394  0.02069985  0.39431408  1  0.071132  0  0.089469  0.131851  0  1.028822  0
H  H22  1  0.67705749  0.80495590  0.57994812  1  0.047442  0  0.092191  0.129402  0  0.986368  0
H  H23  1  0.32294376  0.19504157  0.42004979  1  0.04745  0  0.092188  0.129403  0  0.986383  0
H  H24  1  0.76881497  0.08441077  0.00372535  1  0.153378  0  0.116046  0.142061  0  1.021726  0
H  H25  1  0.23118476  0.91558878  0.99627554  1  0.153358  0  0.116059  0.142121  0  1.021616  0
H  H26  1  0.62099292  0.06640923  0.11803266  1  0.14577  0  0.112948  0.115911  0  1.00252  0
H  H27  1  0.37900939  0.93359138  0.88197002  1  0.145996  0  0.11303  0.116006  0  1.002619  0
H  H28  1  0.76750102  0.14118631  0.24654416  1  0.077111  0  0.101701  0.101181  0  1.03273  0
H  H29  1  0.23250791  0.85881742  0.75345835  1  0.077047  0  0.101711  0.101157  0  1.032708  0
H  H30  1  0.06201566  0.23500883  0.25345020  1  0.092676  0  0.120946  0.091349  0  0.976185  0
H  H31  1  0.93799395  0.76499697  0.74654974  1  0.092428  0  0.120962  0.09131  0  0.976296  0
H  H32  1  0.90367972  0.10384775  0.91575796  1  0.148595  0  0.108805  0.127113  0  1.062829  0
H  H33  1  0.09631521  0.89615075  0.08424444  1  0.148603  0  0.108772  0.127108  0  1.062854  0
H  H34  1  0.08131471  0.14411474  0.81233651  1  0.098093  0  0.104829  0.095912  0  1.020062  0
H  H35  1  0.91867658  0.85587960  0.18766377  1  0.098117  0  0.104828  0.095901  0  1.020066  0
H  H36  1  0.37013740  0.25366500  0.84548820  1  0.086465  0  0.102723  0.106108  0  1.04598  0
H  H37  1  0.62985689  0.74632830  0.15450978  1  0.086473  0  0.102729  0.106094  0  1.045962  0
H  H38  1  0.46739852  0.31772963  0.98273123  1  0.151181  0  0.125263  0.1059  0  0.995749  0
H  H39  1  0.53259861  0.68226886  0.01726676  1  0.151112  0  0.125239  0.105868  0  0.9958  0
H  H40  1  0.63297472  0.44041504  0.21777781  1  0.105955  0  0.121642  0.051103  0  0.989032  0
H  H41  1  0.36702242  0.55958345  0.78222018  1  0.105927  0  0.121654  0.05114  0  0.989023  0
H  H42  1  0.98575535  0.47343452  0.07155227  1  0.090083  0  0.107518  0.142924  0  1.020945  0
H  H43  1  0.01424344  0.52657228  0.92844714  1  0.090049  0  0.107521  0.142983  0  1.020909  0
H  H44  1  0.83710266  0.54043336  0.04029246  1  0.067692  0  0.100573  0.122061  0  1.025226  0
H  H45  1  0.16289086  0.45956098  0.95970618  1  0.067664  0  0.100562  0.122113  0  1.025102  0
H  H46  1  0.79361729  0.36006606  0.03607515  1  0.080442  0  0.105488  0.125577  0  1.012748  0
H  H47  1  0.20638174  0.63993141  0.96392385  1  0.080373  0  0.105479  0.125577  0  1.012808  0
H  H48  1  0.99696494  0.65154434  0.19491045  1  0.096082  0  0.103167  0.117758  0  1.020243  0
H  H49  1  0.00303367  0.34845520  0.80508932  1  0.096111  0  0.103167  0.117713  0  1.020283  0
H  H50  1  0.00517871  0.49300689  0.21812073  1  0.056823  0  0.102809  0.121674  0  1.002881  0
H  H51  1  0.99481390  0.50699472  0.78188087  1  0.056708  0  0.102769  0.121612  0  1.002926  0
H  H52  1  0.86646563  0.57449152  0.25968758  1  0.051957  0  0.104529  0.111355  0  1.000355  0
H  H53  1  0.13352990  0.42551216  0.74031148  1  0.051995  0  0.104494  0.111307  0  1.000341  0
H  H54  1  0.69878862  0.04237841  0.39071220  1  0.420519  0  0.309425  0.25523  0  0.949103  0
H  H55  1  0.30121591  0.95762218  0.60928551  1  0.420534  0  0.309459  0.25524  0  0.949131  0
C  C56  1  0.53703057  0.89890222  0.31277246  1  0.391223  0  0.089116  0.22687  0  4.117907  0
C  C57  1  0.46297019  0.10110044  0.68722764  1  0.391344  0  0.089132  0.227016  0  4.117742  0
C  C58  1  0.49132698  0.99923271  0.28176322  1  -0.096544  0  -0.100105  -0.221581  0  3.972966  0
C  C59  1  0.50867420  0.00076788  0.71823612  1  -0.09653  0  -0.100143  -0.22162  0  3.972925  0
C  C60  1  0.39350561  0.96067282  0.21538275  1  0.023451  0  -0.023234  -0.015979  0  4.026724  0
C  C61  1  0.60649446  0.03932777  0.78461769  1  0.023392  0  -0.023214  -0.016059  0  4.026929  0
C  C62  1  0.33522001  0.82042782  0.18012256  1  -0.047579  0  -0.102062  -0.16484  0  3.990924  0
C  C63  1  0.66477671  0.17957277  0.81987841  1  -0.047653  0  -0.102053  -0.164786  0  3.990861  0
C  C64  1  0.37334384  0.71937003  0.21216012  1  -0.104847  0  -0.02625  -0.017703  0  4.02208  0
C  C65  1  0.62665581  0.28063263  0.78784053  1  -0.104785  0  -0.026255  -0.01767  0  4.022033  0
C  C66  1  0.47383450  0.75800296  0.27802401  1  -0.011357  0  -0.106358  -0.223385  0  3.946215  0
C  C67  1  0.52616702  0.24199866  0.72197434  1  -0.011406  0  -0.106389  -0.223452  0  3.946251  0
C  C68  1  0.72940024  0.84883848  0.39493858  1  0.327041  0  -0.060785  -0.036668  0  3.985208  0
C  C69  1  0.27060137  0.15116004  0.60506110  1  0.327068  0  -0.060777  -0.036624  0  3.985139  0
C  C70  1  0.01578678  0.98197355  0.42115436  1  -0.056917  0  -0.021075  0.053012  0  3.958353  0
C  C71  1  0.98421671  0.01802394  0.57884468  1  -0.056915  0  -0.021041  0.053005  0  3.958322  0
C  C72  1  0.86932416  0.92964667  0.44949565  1  0.023271  0  -0.025344  -0.05213  0  3.968632  0
C  C73  1  0.13068079  0.07035185  0.55050351  1  0.023236  0  -0.025356  -0.052111  0  3.968607  0
C  C74  1  0.85187546  0.94966893  0.52794855  1  -0.050151  0  -0.018467  0.059843  0  3.956116  0
C  C75  1  0.14812615  0.05032958  0.47205003  1  -0.04978  0  -0.018455  0.05979  0  3.956155  0
C  C76  1  0.03245748  0.96608578  0.33695672  1  -0.05734  0  -0.24312  -0.410188  0  3.978249  0
C  C77  1  0.96754705  0.03391482  0.66304209  1  -0.057494  0  -0.243126  -0.410174  0  3.978311  0
C  C78  1  0.69348654  0.90138236  0.55816780  1  -0.082469  0  -0.24539  -0.40925  0  3.976286  0
C  C79  1  0.30651506  0.09861615  0.44183078  1  -0.08289  0  -0.24544  -0.409276  0  3.976374  0
C  C80  1  0.35888986  0.06930112  0.17818390  1  1.555987  0  0.190012  0.547465  0  4.237281  0
C  C81  1  0.64110721  0.93070049  0.82181607  1  1.555404  0  0.189889  0.547234  0  4.237149  0
C  C82  1  0.31643435  0.56940817  0.17133366  1  1.588205  0  0.189944  0.55039  0  4.250087  0
C  C83  1  0.68356314  0.43059138  0.82866666  1  1.588216  0  0.190019  0.550462  0  4.250045  0
C  C84  1  0.99406232  0.17335696  0.06861335  1  0.507017  0  0.128734  0.172601  0  3.971646  0
C  C85  1  0.00593852  0.82664260  0.93138755  1  0.507076  0  0.128648  0.172525  0  3.971513  0
C  C86  1  0.83076767  0.11904169  0.05973167  1  -0.045595  0  -0.070955  -0.147643  0  3.885311  0
C  C87  1  0.16923282  0.88095683  0.94026856  1  -0.045621  0  -0.070949  -0.147643  0  3.885172  0
C  C88  1  0.74793506  0.10787359  0.12402365  1  -0.050079  0  -0.059984  -0.008624  0  3.932809  0
C  C89  1  0.25206871  0.89212806  0.87597860  1  -0.050371  0  -0.06008  -0.008746  0  3.933035  0
C  C90  1  0.82926355  0.14994560  0.19531221  1  0.003106  0  -0.086054  -0.136651  0  3.987653  0
C  C91  1  0.17074502  0.85005710  0.80468963  1  0.003072  0  -0.086093  -0.136698  0  3.987541  0
C  C92  1  0.99150855  0.20156105  0.19955446  1  0.431478  0  0.050331  0.09087  0  3.970594  0
C  C93  1  0.00849779  0.79844163  0.80044624  1  0.431849  0  0.050444  0.091133  0  3.97052  0
C  C94  1  0.09239291  0.19244993  0.00389012  1  0.533395  0  0.125369  0.166159  0  3.975604  0
C  C95  1  0.90760346  0.80754960  0.99610908  1  0.533305  0  0.125445  0.166257  0  3.975503  0
C  C96  1  0.02872918  0.15370370  0.92885107  1  -0.081998  0  -0.078913  -0.158356  0  3.917551  0
C  C97  1  0.97126986  0.84629378  0.07114960  1  -0.0819  0  -0.078996  -0.158504  0  3.917487  0
C  C98  1  0.12857247  0.17547279  0.87110850  1  -0.051327  0  -0.070616  -0.031012  0  3.987771  0
C  C99  1  0.87142064  0.82452363  0.12889201  1  -0.051571  0  -0.070547  -0.030934  0  3.987589  0
C  C100  1  0.28843937  0.23569522  0.88914417  1  -0.013545  0  -0.079683  -0.117719  0  3.954779  0
C  C101  1  0.71155673  0.76430016  0.11085404  1  -0.01347  0  -0.079689  -0.117688  0  3.954799  0
C  C102  1  0.34358882  0.27126571  0.96513798  1  0.490084  0  0.062337  0.114799  0  3.886043  0
C  C103  1  0.65640754  0.72873382  0.03485955  1  0.490491  0  0.062346  0.114766  0  3.88622  0
C  C104  1  0.66093226  0.42208593  0.15808845  1  1.374534  0  0.171326  0.289747  0  4.106112  0
C  C105  1  0.33906600  0.57791257  0.84191065  1  1.374507  0  0.171271  0.289621  0  4.106127  0
C  C106  1  0.86038677  0.46191262  0.06879283  1  0.255401  0  -0.142181  -0.2827  0  3.848972  0
C  C107  1  0.13961149  0.53808589  0.93120683  1  0.255531  0  -0.14215  -0.282824  0  3.848989  0
C  C108  1  0.92597050  0.55300366  0.20818153  1  0.247535  0  -0.13097  -0.278322  0  3.926207  0
C  C109  1  0.07402468  0.44699899  0.79181909  1  0.247526  0  -0.13087  -0.278153  0  3.926243  0
N  N110  1  0.64190047  0.93935435  0.37587201  1  -1.184437  0  -0.447757  -0.351452  0  3.5494  0
N  N111  1  0.35810072  0.06064625  0.62412899  1  -1.184595  0  -0.447764  -0.351511  0  3.549397  0
N  N112  1  0.07125629  0.21310515  0.13772442  1  -1.247206  0  -0.315755  -0.259746  0  3.538468  0
N  N113  1  0.92874601  0.78689544  0.86227549  1  -1.247146  0  -0.315809  -0.25991  0  3.538499  0
N  N114  1  0.24774809  0.24974258  0.02094629  1  -1.236873  0  -0.310653  -0.247373  0  3.535664  0
N  N115  1  0.75225310  0.75025801  0.97905250  1  -1.237166  0  -0.310632  -0.247271  0  3.535719  0
N  N116  1  0.81035325  0.47724838  0.14586214  1  -1.213375  0  -0.281226  0.028148  0  3.732764  0
N  N117  1  0.18964425  0.52275116  0.85413762  1  -1.213349  0  -0.28127  0.028161  0  3.732835  0
O  O118  1  0.31698043  0.03792425  0.10823917  1  -1.191601  0  -0.323177  -0.560143  0  2.197549  0
O  O119  1  0.68301658  0.96208050  0.89176556  1  -1.190857  0  -0.323098  -0.560017  0  2.197197  0
O  O120  1  0.37631810  0.19082204  0.21844837  1  -1.172725  0  -0.339344  -0.556461  0  2.212757  0
O  O121  1  0.62368352  0.80917648  0.78155354  1  -1.172889  0  -0.339295  -0.556352  0  2.212775  0
O  O122  1  0.35723507  0.48185338  0.20455721  1  -1.178084  0  -0.345933  -0.571556  0  2.305452  0
O  O123  1  0.64276757  0.51814825  0.79544114  1  -1.17809  0  -0.345983  -0.571662  0  2.305402  0
O  O124  1  0.23850615  0.53905397  0.10895292  1  -1.184513  0  -0.327169  -0.55665  0  2.158461  0
O  O125  1  0.76148645  0.46094763  0.89104757  1  -1.184452  0  -0.327179  -0.556642  0  2.158547  0
O  O126  1  0.55764076  0.35398973  0.10624564  1  -1.161107  0  -0.292991  -0.43923  0  2.380941  0
O  O127  1  0.44235757  0.64600566  0.89375369  1  -1.161036  0  -0.292947  -0.439145  0  2.380906  0
