# generated using pymatgen
data_Mg5H26(C8O9)2
_symmetry_space_group_name_H-M   'P 1'
_cell_length_a   12.43019721
_cell_length_b   17.49828158
_cell_length_c   17.50165808
_cell_angle_alpha   82.76000949
_cell_angle_beta   69.19168220
_cell_angle_gamma   69.20367421
_symmetry_Int_Tables_number   1
_chemical_formula_structural   Mg5H26(C8O9)2
_chemical_formula_sum   'Mg20 H104 C64 O72'
_cell_volume   3326.59936598
_cell_formula_units_Z   4
loop_
 _symmetry_equiv_pos_site_id
 _symmetry_equiv_pos_as_xyz
  1  'x, y, z'
loop_
 _atom_site_type_symbol
 _atom_site_label
 _atom_site_symmetry_multiplicity
 _atom_site_fract_x
 _atom_site_fract_y
 _atom_site_fract_z
 _atom_site_occupancy
 _atom_site_pbe_bader_charge
 _atom_site_pbe_bader_spin_density
 _atom_site_pbe_cm5_charge
 _atom_site_pbe_ddec_charge
 _atom_site_pbe_ddec_spin_density
 _atom_site_pbe_ddec_sum_bond_order
 _atom_site_pbe_magmom
Mg  Mg0  1  0.04143330  0.58756010  0.32600184  1  1.688464  0  0.82009  1.382676  0  1.410346  0
Mg  Mg1  1  0.45506243  0.91235043  0.17398366  1  1.688559  0  0.82025  1.383915  0  1.408644  0
Mg  Mg2  1  0.36747155  0.67398873  0.08757320  1  1.690214  0  0.819692  1.382646  0  1.409878  0
Mg  Mg3  1  0.62910214  0.82597392  0.41233250  1  1.688399  0  0.81978  1.384599  0  1.407872  0
Mg  Mg4  1  0.95856651  0.41244094  0.67399772  1  1.688466  0  0.820104  1.38269  0  1.410309  0
Mg  Mg5  1  0.54493803  0.08764817  0.82601648  1  1.688561  0  0.820268  1.38394  0  1.4086  0
Mg  Mg6  1  0.63252830  0.32601109  0.91242693  1  1.690245  0  0.819694  1.382633  0  1.409894  0
Mg  Mg7  1  0.37089893  0.17402589  0.58766728  1  1.688398  0  0.819748  1.384592  0  1.407894  0
Mg  Mg8  1  0.99999995  0.50000036  0.50000009  1  1.692443  0  0.814152  1.368728  0  1.411567  0
Mg  Mg9  1  0.49999953  0.99999962  0.00000020  1  1.693552  0  0.815253  1.369656  0  1.411488  0
Mg  Mg10  1  0.50000068  0.50000050  0.99999999  1  1.692918  0  0.813661  1.36773  0  1.413748  0
Mg  Mg11  1  0.50000019  0.99999957  0.50000050  1  1.693205  0  0.814587  1.369705  0  1.411607  0
Mg  Mg12  1  0.90729568  0.77451528  0.31844465  1  1.683535  0  0.819387  1.413482  0  1.393656  0
Mg  Mg13  1  0.50012778  0.72544628  0.18157139  1  1.683138  0  0.819569  1.41289  0  1.393999  0
Mg  Mg14  1  0.22564411  0.68155048  0.27451736  1  1.685562  0  0.819466  1.412427  0  1.395121  0
Mg  Mg15  1  0.68179521  0.81837485  0.22544459  1  1.684288  0  0.82039  1.413765  0  1.39261  0
Mg  Mg16  1  0.09270413  0.22548576  0.68155491  1  1.683536  0  0.819349  1.413373  0  1.393838  0
Mg  Mg17  1  0.49987017  0.27455476  0.81842831  1  1.683127  0  0.819568  1.41292  0  1.393997  0
Mg  Mg18  1  0.77435607  0.31844995  0.72548300  1  1.685571  0  0.819467  1.412472  0  1.395011  0
Mg  Mg19  1  0.31820529  0.18162497  0.77455576  1  1.684284  0  0.820406  1.413862  0  1.39246  0
H  H20  1  0.04661484  0.70874146  0.40051889  1  0.587751  0  0.325128  0.423771  0  0.871605  0
H  H21  1  0.65582289  0.79114501  0.09950627  1  0.603257  0  0.324523  0.424169  0  0.871016  0
H  H22  1  0.44703191  0.59948733  0.20879972  1  0.592933  0  0.325254  0.423882  0  0.871321  0
H  H23  1  0.75538485  0.90045922  0.29119987  1  0.594334  0  0.325733  0.424576  0  0.870573  0
H  H24  1  0.95338528  0.29125897  0.59948067  1  0.587744  0  0.325119  0.423754  0  0.871632  0
H  H25  1  0.34417574  0.20885480  0.90049421  1  0.603242  0  0.324516  0.424141  0  0.871052  0
H  H26  1  0.55296649  0.40051310  0.79120156  1  0.592928  0  0.32524  0.423841  0  0.871385  0
H  H27  1  0.24461558  0.09954060  0.70879969  1  0.59433  0  0.325743  0.424588  0  0.870555  0
H  H28  1  0.36041643  0.29946775  0.43119349  1  0.082223  0  0.102853  0.160449  0  1.028158  0
H  H29  1  0.59133394  0.20037254  0.06877524  1  0.090181  0  0.10167  0.159596  0  1.02955  0
H  H30  1  0.79170873  0.56877288  0.79960048  1  0.098444  0  0.101874  0.159963  0  1.029541  0
H  H31  1  0.66023142  0.93130977  0.70035906  1  0.091046  0  0.10095  0.158317  0  1.028847  0
H  H32  1  0.63958406  0.70053207  0.56880687  1  0.08224  0  0.102859  0.160457  0  1.028149  0
H  H33  1  0.40866466  0.79962606  0.93122503  1  0.090127  0  0.10171  0.159642  0  1.029507  0
H  H34  1  0.20829304  0.43122694  0.20040031  1  0.098452  0  0.10186  0.159975  0  1.029547  0
H  H35  1  0.33976843  0.06869005  0.29964107  1  0.091058  0  0.100947  0.15833  0  1.028826  0
H  H36  1  0.23714659  0.37897256  0.40590712  1  0.078167  0  0.099839  0.153598  0  1.036538  0
H  H37  1  0.52228041  0.12084730  0.09405060  1  0.074703  0  0.100143  0.153763  0  1.036194  0
H  H38  1  0.64312856  0.59408112  0.87910816  1  0.075919  0  0.099635  0.153681  0  1.036962  0
H  H39  1  0.61649201  0.90605324  0.62081872  1  0.076378  0  0.099702  0.152788  0  1.037693  0
H  H40  1  0.76285440  0.62102725  0.59409187  1  0.078172  0  0.099835  0.153597  0  1.036537  0
H  H41  1  0.47771596  0.87915191  0.90594901  1  0.074715  0  0.100132  0.153751  0  1.036203  0
H  H42  1  0.35687284  0.40591931  0.12089184  1  0.075931  0  0.099631  0.153707  0  1.036945  0
H  H43  1  0.38350906  0.09394658  0.37918106  1  0.076383  0  0.099711  0.152813  0  1.037698  0
H  H44  1  0.24303966  0.27472197  0.41696262  1  0.031605  0  0.106357  0.166316  0  0.96903  0
H  H45  1  0.43492422  0.22511724  0.08317824  1  0.06557  0  0.106628  0.165914  0  0.968862  0
H  H46  1  0.66007841  0.58305697  0.77487252  1  0.068571  0  0.106773  0.166076  0  0.969643  0
H  H47  1  0.51823021  0.91690722  0.72507667  1  0.043897  0  0.10664  0.16677  0  0.96848  0
H  H48  1  0.75696077  0.72527785  0.58303694  1  0.031605  0  0.106364  0.166344  0  0.968998  0
H  H49  1  0.56507333  0.77488319  0.91682045  1  0.065595  0  0.106636  0.165904  0  0.968896  0
H  H50  1  0.33992242  0.41694346  0.22512805  1  0.068558  0  0.106788  0.166082  0  0.969584  0
H  H51  1  0.48177021  0.08309260  0.27492289  1  0.043884  0  0.106628  0.166757  0  0.968506  0
H  H52  1  0.92493647  0.58257899  0.10482083  1  0.047164  0  0.098285  0.155586  0  1.0005  0
H  H53  1  0.11238904  0.91739327  0.39531303  1  0.040924  0  0.097236  0.154248  0  1.001092  0
H  H54  1  0.02968482  0.89522202  0.08275907  1  0.033308  0  0.097752  0.154415  0  1.000841  0
H  H55  1  0.50751601  0.60462169  0.41727240  1  0.04978  0  0.096798  0.153043  0  0.999817  0
H  H56  1  0.07506452  0.41742082  0.89517816  1  0.047164  0  0.0983  0.155596  0  1.000506  0
H  H57  1  0.88760953  0.08260655  0.60468667  1  0.040953  0  0.097216  0.154228  0  1.00115  0
H  H58  1  0.97031591  0.10477718  0.91724049  1  0.033297  0  0.097761  0.154424  0  1.000836  0
H  H59  1  0.49248498  0.39537813  0.58272659  1  0.049768  0  0.096805  0.153044  0  0.999836  0
H  H60  1  0.99557983  0.53210578  0.18039494  1  0.086022  0  0.097569  0.154116  0  1.036831  0
H  H61  1  0.20819775  0.96781273  0.31968589  1  0.085718  0  0.097859  0.154033  0  1.036308  0
H  H62  1  0.17594107  0.81967768  0.03222045  1  0.062992  0  0.097708  0.153966  0  1.036468  0
H  H63  1  0.52766058  0.68020336  0.46777826  1  0.092976  0  0.097386  0.153987  0  1.036366  0
H  H64  1  0.00442086  0.46789465  0.81960405  1  0.085996  0  0.09759  0.154142  0  1.036807  0
H  H65  1  0.79179994  0.03218770  0.68031437  1  0.085723  0  0.097885  0.154065  0  1.036302  0
H  H66  1  0.82406030  0.18032153  0.96777933  1  0.062653  0  0.097706  0.153945  0  1.036485  0
H  H67  1  0.47234079  0.31979585  0.53222152  1  0.092951  0  0.097385  0.153977  0  1.036365  0
H  H68  1  0.06398659  0.59254961  0.10247298  1  0.070126  0  0.103654  0.160654  0  0.996343  0
H  H69  1  0.25917028  0.90730059  0.39753452  1  0.062494  0  0.104269  0.161671  0  0.99598  0
H  H70  1  0.16637586  0.89760240  0.09269847  1  0.048926  0  0.103214  0.160193  0  0.995261  0
H  H71  1  0.65651684  0.60230175  0.40731676  1  0.067234  0  0.103348  0.160462  0  0.995041  0
H  H72  1  0.93601643  0.40744959  0.89752430  1  0.069797  0  0.103695  0.160705  0  0.996347  0
H  H73  1  0.74082799  0.09269984  0.60246517  1  0.062451  0  0.104257  0.161646  0  0.995991  0
H  H74  1  0.83362578  0.10239742  0.90730074  1  0.04896  0  0.10322  0.160207  0  0.995226  0
H  H75  1  0.34348446  0.39769746  0.59268223  1  0.067179  0  0.103348  0.160468  0  0.995021  0
H  H76  1  0.92173190  0.34105657  0.34047874  1  0.047951  0  0.103416  0.15707  0  0.978249  0
H  H77  1  0.10333916  0.15873705  0.15961125  1  0.052795  0  0.103638  0.158135  0  0.979345  0
H  H78  1  0.26222201  0.65958704  0.84121176  1  0.04752  0  0.104598  0.157792  0  0.977152  0
H  H79  1  0.26326864  0.84042295  0.65887844  1  0.048401  0  0.104105  0.157431  0  0.978264  0
H  H80  1  0.07826818  0.65894509  0.65952026  1  0.047925  0  0.103432  0.157067  0  0.978235  0
H  H81  1  0.89665966  0.84125910  0.84039173  1  0.052984  0  0.103644  0.158198  0  0.979311  0
H  H82  1  0.73777966  0.34041400  0.15878767  1  0.047478  0  0.10461  0.157819  0  0.977113  0
H  H83  1  0.73673324  0.15957381  0.34112033  1  0.0484  0  0.104112  0.157422  0  0.978325  0
H  H84  1  0.07691944  0.29253486  0.33111957  1  0.04922  0  0.097147  0.146306  0  0.999101  0
H  H85  1  0.20046945  0.20740506  0.16900535  1  0.047718  0  0.096749  0.145921  0  1.000259  0
H  H86  1  0.40803294  0.66896385  0.79251239  1  0.052498  0  0.097292  0.147001  0  0.999701  0
H  H87  1  0.36980160  0.83112613  0.70748633  1  0.04845  0  0.097477  0.14665  0  0.999306  0
H  H88  1  0.92308006  0.70746680  0.66887999  1  0.049223  0  0.097132  0.146277  0  0.999096  0
H  H89  1  0.79952895  0.79259292  0.83099628  1  0.047628  0  0.096809  0.146045  0  1.00018  0
H  H90  1  0.59196693  0.33103964  0.20748761  1  0.052515  0  0.097297  0.147007  0  0.999737  0
H  H91  1  0.63019765  0.16887247  0.29251416  1  0.04844  0  0.097494  0.146677  0  0.999243  0
H  H92  1  0.03712620  0.35217292  0.24755995  1  0.005563  0  0.093401  0.14248  0  1.003451  0
H  H93  1  0.13686589  0.14766712  0.25253113  1  0.066279  0  0.094163  0.143349  0  1.00345  0
H  H94  1  0.28475081  0.75250216  0.85228136  1  0.063795  0  0.093208  0.142964  0  1.003099  0
H  H95  1  0.38976353  0.74750569  0.64783601  1  0.010602  0  0.093929  0.143325  0  1.003181  0
H  H96  1  0.96287452  0.64782873  0.75243926  1  0.005571  0  0.093402  0.142456  0  1.003489  0
H  H97  1  0.86313360  0.85233025  0.74747229  1  0.066292  0  0.094185  0.143434  0  1.003407  0
H  H98  1  0.71524698  0.24749949  0.14771992  1  0.063833  0  0.093213  0.142943  0  1.003135  0
H  H99  1  0.61023788  0.25249230  0.35216435  1  0.010653  0  0.093915  0.143312  0  1.003148  0
H  H100  1  0.36890265  0.44935398  0.44519720  1  0.061602  0  0.102185  0.156761  0  0.987117  0
H  H101  1  0.76353358  0.05060573  0.05476404  1  0.054258  0  0.10279  0.156508  0  0.987077  0
H  H102  1  0.81416615  0.55475204  0.94938074  1  0.068134  0  0.102203  0.156217  0  0.988005  0
H  H103  1  0.81832766  0.94533387  0.55052486  1  0.031704  0  0.102155  0.155904  0  0.987035  0
H  H104  1  0.63109747  0.55064645  0.55480236  1  0.06161  0  0.102165  0.15673  0  0.987167  0
H  H105  1  0.23646387  0.94939531  0.94523702  1  0.054272  0  0.102777  0.156517  0  0.987085  0
H  H106  1  0.18583404  0.44524839  0.05061962  1  0.068137  0  0.102221  0.15623  0  0.987983  0
H  H107  1  0.18167337  0.05466472  0.44947470  1  0.031782  0  0.102149  0.155901  0  0.987047  0
H  H108  1  0.22853079  0.48984329  0.52566392  1  0.063478  0  0.10055  0.148006  0  1.042168  0
H  H109  1  0.74418352  0.01013757  0.97425329  1  0.086035  0  0.099099  0.147146  0  1.042743  0
H  H110  1  0.75426160  0.47427921  0.98986009  1  0.063936  0  0.099704  0.147194  0  1.043718  0
H  H111  1  0.71851103  0.02583630  0.51005443  1  0.079631  0  0.099908  0.148108  0  1.042324  0
H  H112  1  0.77146842  0.51015653  0.47433599  1  0.063519  0  0.10054  0.147999  0  1.042202  0
H  H113  1  0.25581393  0.98986347  0.02574776  1  0.08611  0  0.099097  0.147161  0  1.042733  0
H  H114  1  0.24573953  0.52572061  0.01014048  1  0.063922  0  0.099689  0.147176  0  1.043724  0
H  H115  1  0.28149072  0.97416229  0.48994614  1  0.079603  0  0.099905  0.148084  0  1.042329  0
H  H116  1  0.33362351  0.54590900  0.48706761  1  0.063233  0  0.100633  0.155331  0  0.990296  0
H  H117  1  0.86669396  0.95405882  0.01287223  1  0.047483  0  0.100995  0.15566  0  0.989904  0
H  H118  1  0.82074242  0.51287906  0.04592379  1  0.042963  0  0.10066  0.15644  0  0.991449  0
H  H119  1  0.87966753  0.98718918  0.45400153  1  0.036137  0  0.101168  0.156294  0  0.991137  0
H  H120  1  0.66637597  0.45409143  0.51293173  1  0.063224  0  0.100628  0.155321  0  0.990305  0
H  H121  1  0.13330406  0.04594222  0.98712826  1  0.047565  0  0.100982  0.155648  0  0.989927  0
H  H122  1  0.17925719  0.48712137  0.95407713  1  0.042975  0  0.10067  0.156446  0  0.991472  0
H  H123  1  0.12033334  0.01281002  0.54599961  1  0.036116  0  0.101163  0.156284  0  0.991111  0
C  C124  1  0.19103329  0.33245661  0.52986632  1  1.582429  0  0.256263  0.770989  0  4.024088  0
C  C125  1  0.55338604  0.16752385  0.97015249  1  1.548979  0  0.255061  0.770381  0  4.025778  0
C  C126  1  0.72095580  0.47010991  0.83252911  1  1.594277  0  0.256889  0.773022  0  4.021071  0
C  C127  1  0.52359739  0.02995447  0.66753398  1  1.550423  0  0.255226  0.770793  0  4.02747  0
C  C128  1  0.80896581  0.66754443  0.47013223  1  1.582484  0  0.256203  0.770936  0  4.024146  0
C  C129  1  0.44661435  0.83247475  0.02984685  1  1.548985  0  0.255162  0.770606  0  4.025532  0
C  C130  1  0.27904375  0.52989052  0.16747103  1  1.594272  0  0.25684  0.772946  0  4.021149  0
C  C131  1  0.47640557  0.97004412  0.33246624  1  1.550601  0  0.255231  0.770802  0  4.02731  0
C  C132  1  0.26248072  0.32241971  0.43980157  1  -0.083239  0  -0.245234  -0.550769  0  3.875672  0
C  C133  1  0.52489313  0.17744938  0.06020762  1  -0.093658  0  -0.24448  -0.549078  0  3.875691  0
C  C134  1  0.70235931  0.56018927  0.82254434  1  -0.138269  0  -0.244566  -0.551217  0  3.876837  0
C  C135  1  0.58523811  0.93988550  0.67742570  1  -0.083033  0  -0.242887  -0.548052  0  3.874838  0
C  C136  1  0.73752035  0.67758010  0.56019821  1  -0.08328  0  -0.245239  -0.550793  0  3.875623  0
C  C137  1  0.47510446  0.82254983  0.93979164  1  -0.093685  0  -0.244517  -0.549142  0  3.875717  0
C  C138  1  0.29764152  0.43981115  0.17745623  1  -0.138262  0  -0.24456  -0.551253  0  3.876794  0
C  C139  1  0.41476295  0.06011431  0.32257409  1  -0.083165  0  -0.242908  -0.54811  0  3.874764  0
C  C140  1  0.90775862  0.66267056  0.19510998  1  1.563056  0  0.249014  0.767129  0  4.059418  0
C  C141  1  0.26542919  0.83728171  0.30492928  1  1.565877  0  0.243656  0.764059  0  4.062803  0
C  C142  1  0.10286589  0.80490042  0.16274925  1  1.591503  0  0.245373  0.764572  0  4.065004  0
C  C143  1  0.57036534  0.69499177  0.33725123  1  1.572316  0  0.247054  0.765566  0  4.061395  0
C  C144  1  0.09224230  0.33733171  0.80488787  1  1.563031  0  0.248927  0.767104  0  4.059395  0
C  C145  1  0.73456873  0.16272056  0.69506984  1  1.566383  0  0.243654  0.764078  0  4.062899  0
C  C146  1  0.89713423  0.19510001  0.83725032  1  1.591505  0  0.245381  0.764557  0  4.065044  0
C  C147  1  0.42963487  0.30500988  0.66274934  1  1.57239  0  0.247078  0.765567  0  4.061372  0
C  C148  1  0.97621438  0.58693774  0.14271182  1  -0.086437  0  -0.245789  -0.542507  0  3.879102  0
C  C149  1  0.20593022  0.91297101  0.35735054  1  -0.066735  0  -0.245174  -0.541691  0  3.878255  0
C  C150  1  0.11888257  0.85733345  0.08707990  1  -0.046226  0  -0.244507  -0.539894  0  3.877753  0
C  C151  1  0.56313386  0.64254394  0.41292609  1  -0.110665  0  -0.243596  -0.538622  0  3.875668  0
C  C152  1  0.02378543  0.41306330  0.85728774  1  -0.086086  0  -0.245834  -0.542585  0  3.879134  0
C  C153  1  0.79406746  0.08702942  0.64264973  1  -0.066709  0  -0.245168  -0.541663  0  3.878341  0
C  C154  1  0.88111876  0.14266698  0.91291931  1  -0.045884  0  -0.244522  -0.539895  0  3.877756  0
C  C155  1  0.43686656  0.35745588  0.58707347  1  -0.110669  0  -0.243588  -0.538593  0  3.87568  0
C  C156  1  0.01091755  0.42225578  0.35060020  1  1.588858  0  0.225546  0.728691  0  4.12045  0
C  C157  1  0.28390019  0.07769426  0.14946824  1  1.592381  0  0.227192  0.731702  0  4.117647  0
C  C158  1  0.36174446  0.64942819  0.92222046  1  1.597599  0  0.224495  0.72841  0  4.124323  0
C  C159  1  0.43357943  0.85055638  0.57776792  1  1.585212  0  0.226633  0.730746  0  4.121263  0
C  C160  1  0.98908199  0.57774465  0.64939994  1  1.58886  0  0.225523  0.728645  0  4.120459  0
C  C161  1  0.71609852  0.92230311  0.85053339  1  1.594108  0  0.227156  0.731682  0  4.117482  0
C  C162  1  0.63825656  0.35057286  0.07777875  1  1.597619  0  0.22442  0.728319  0  4.124043  0
C  C163  1  0.56642255  0.14944160  0.42223187  1  1.585211  0  0.226649  0.73074  0  4.121227  0
C  C164  1  0.01254561  0.34759535  0.31416552  1  -0.036408  0  -0.24076  -0.518781  0  3.903348  0
C  C165  1  0.17433593  0.15227597  0.18592628  1  -0.092712  0  -0.241373  -0.521617  0  3.906254  0
C  C166  1  0.32680480  0.68589057  0.84764066  1  -0.09827  0  -0.241186  -0.520296  0  3.903012  0
C  C167  1  0.36058019  0.81411738  0.65241131  1  -0.033755  0  -0.241923  -0.520674  0  3.903688  0
C  C168  1  0.98745447  0.65240630  0.68583347  1  -0.036423  0  -0.240754  -0.518703  0  3.90338  0
C  C169  1  0.82566316  0.84772079  0.81407614  1  -0.092901  0  -0.24143  -0.521893  0  3.906116  0
C  C170  1  0.67319542  0.31411109  0.15235991  1  -0.098273  0  -0.241218  -0.520305  0  3.903033  0
C  C171  1  0.63942180  0.18588060  0.34758847  1  -0.033785  0  -0.241915  -0.520666  0  3.903661  0
C  C172  1  0.23607165  0.54639624  0.40735766  1  1.572692  0  0.23793  0.75079  0  4.066051  0
C  C173  1  0.68988456  0.95355273  0.09256002  1  1.572602  0  0.236349  0.747874  0  4.07045  0
C  C174  1  0.64346898  0.59260134  0.04642437  1  1.564632  0  0.236062  0.748109  0  4.071352  0
C  C175  1  0.78252205  0.90750735  0.45348611  1  1.571256  0  0.236912  0.748252  0  4.068494  0
C  C176  1  0.76392844  0.45360297  0.59264169  1  1.57285  0  0.237925  0.75079  0  4.066199  0
C  C177  1  0.31011384  0.04644770  0.90744125  1  1.572652  0  0.236388  0.747936  0  4.070328  0
C  C178  1  0.35653061  0.40739787  0.95357633  1  1.564303  0  0.236025  0.748017  0  4.071387  0
C  C179  1  0.21747996  0.09249186  0.54651389  1  1.571235  0  0.236915  0.748271  0  4.068507  0
C  C180  1  0.29409861  0.50588110  0.47118470  1  -0.094643  0  -0.243512  -0.536457  0  3.895598  0
C  C181  1  0.77124364  0.99407681  0.02875771  1  -0.093037  0  -0.242943  -0.535206  0  3.896224  0
C  C182  1  0.76532138  0.52877202  0.00590899  1  -0.081354  0  -0.242589  -0.536052  0  3.899676  0
C  C183  1  0.80007410  0.97132298  0.49400029  1  -0.053155  0  -0.243542  -0.536508  0  3.897115  0
C  C184  1  0.70590150  0.49411933  0.52881486  1  -0.094704  0  -0.243503  -0.536426  0  3.895677  0
C  C185  1  0.22875381  0.00592423  0.97124335  1  -0.093232  0  -0.242923  -0.535258  0  3.896272  0
C  C186  1  0.23467881  0.47122840  0.99409137  1  -0.081357  0  -0.242615  -0.536071  0  3.899677  0
C  C187  1  0.19992768  0.02867684  0.50600050  1  -0.053154  0  -0.243503  -0.536448  0  3.897111  0
O  O188  1  0.22004672  0.27345309  0.57737027  1  -1.279773  0  -0.342937  -0.696355  0  2.310929  0
O  O189  1  0.57083481  0.22657091  0.92269159  1  -1.278898  0  -0.341367  -0.695532  0  2.311837  0
O  O190  1  0.79746306  0.42264118  0.77348007  1  -1.280673  0  -0.343498  -0.695381  0  2.311074  0
O  O191  1  0.49350734  0.07741049  0.72660192  1  -1.273593  0  -0.343191  -0.695704  0  2.3122  0
O  O192  1  0.77995336  0.72654612  0.42262907  1  -1.279771  0  -0.342889  -0.696328  0  2.31099  0
O  O193  1  0.42916744  0.77342769  0.07730762  1  -1.27892  0  -0.341383  -0.695592  0  2.311801  0
O  O194  1  0.20253743  0.57735863  0.22652028  1  -1.280681  0  -0.343485  -0.695337  0  2.311096  0
O  O195  1  0.50649217  0.92258872  0.27339799  1  -1.273601  0  -0.343151  -0.695638  0  2.312102  0
O  O196  1  0.10188030  0.39862060  0.55645561  1  -1.278338  0  -0.350597  -0.705586  0  2.307512  0
O  O197  1  0.55695120  0.10138691  0.94352349  1  -1.275623  0  -0.350378  -0.706142  0  2.30812  0
O  O198  1  0.65840974  0.44349666  0.89868580  1  -1.287208  0  -0.350624  -0.70687  0  2.305481  0
O  O199  1  0.50052895  0.05657032  0.60140630  1  -1.273272  0  -0.349728  -0.7064  0  2.308545  0
O  O200  1  0.89812006  0.60137922  0.44354317  1  -1.278355  0  -0.350595  -0.705573  0  2.307492  0
O  O201  1  0.44304767  0.89861230  0.05647621  1  -1.275575  0  -0.350448  -0.706263  0  2.307975  0
O  O202  1  0.34159052  0.55650377  0.10131534  1  -1.287219  0  -0.350602  -0.70685  0  2.305542  0
O  O203  1  0.49947218  0.94342949  0.39859427  1  -1.273312  0  -0.34974  -0.706407  0  2.308564  0
O  O204  1  0.93627987  0.66610712  0.25850947  1  -1.287615  0  -0.371967  -0.727616  0  2.267411  0
O  O205  1  0.36076990  0.83383427  0.24149843  1  -1.291541  0  -0.370778  -0.726854  0  2.267386  0
O  O206  1  0.19476484  0.74147179  0.16612952  1  -1.293361  0  -0.369543  -0.726212  0  2.269592  0
O  O207  1  0.60233683  0.75839119  0.33385313  1  -1.287669  0  -0.36988  -0.727087  0  2.267471  0
O  O208  1  0.06372166  0.33389392  0.74148838  1  -1.287642  0  -0.371932  -0.727537  0  2.267377  0
O  O209  1  0.63922714  0.16616616  0.75850162  1  -1.291569  0  -0.370763  -0.726879  0  2.267394  0
O  O210  1  0.80523632  0.25852925  0.83387127  1  -1.293386  0  -0.369525  -0.726184  0  2.269605  0
O  O211  1  0.39766583  0.24160802  0.66614708  1  -1.287626  0  -0.369909  -0.727136  0  2.2674  0
O  O212  1  0.82864839  0.72000217  0.17372964  1  -1.242364  0  -0.347349  -0.641648  0  2.179593  0
O  O213  1  0.22219465  0.77997756  0.32629926  1  -1.248347  0  -0.343083  -0.639287  0  2.180182  0
O  O214  1  0.00238649  0.82628225  0.22013260  1  -1.247463  0  -0.345954  -0.641289  0  2.180311  0
O  O215  1  0.54853590  0.67363925  0.27991602  1  -1.236195  0  -0.346829  -0.641542  0  2.178956  0
O  O216  1  0.17135368  0.27999765  0.82626742  1  -1.242303  0  -0.34733  -0.641687  0  2.179545  0
O  O217  1  0.77780182  0.22002287  0.67370136  1  -1.248842  0  -0.343084  -0.639294  0  2.180226  0
O  O218  1  0.99761515  0.17371757  0.77986661  1  -1.247479  0  -0.345971  -0.641284  0  2.18033  0
O  O219  1  0.45146175  0.32636240  0.72008368  1  -1.236234  0  -0.346843  -0.641554  0  2.179013  0
O  O220  1  0.02298228  0.48281930  0.30370748  1  -1.252493  0  -0.363197  -0.674023  0  2.230705  0
O  O221  1  0.30976755  0.01716035  0.19635181  1  -1.252309  0  -0.36316  -0.675328  0  2.23046  0
O  O222  1  0.32698231  0.69630636  0.98277582  1  -1.253326  0  -0.362411  -0.674611  0  2.232728  0
O  O223  1  0.50622362  0.80367052  0.51720835  1  -1.253599  0  -0.362356  -0.676141  0  2.232318  0
O  O224  1  0.97701787  0.51718235  0.69629230  1  -1.252463  0  -0.363217  -0.674067  0  2.230705  0
O  O225  1  0.69022988  0.98283702  0.80364938  1  -1.254507  0  -0.363169  -0.67532  0  2.230481  0
O  O226  1  0.67301666  0.30369407  0.01722489  1  -1.253287  0  -0.362383  -0.674563  0  2.232696  0
O  O227  1  0.49377468  0.19632869  0.48279192  1  -1.253563  0  -0.362377  -0.676146  0  2.232213  0
O  O228  1  0.99760430  0.41973032  0.42613696  1  -1.249631  0  -0.363144  -0.665272  0  2.219169  0
O  O229  1  0.34351678  0.08022995  0.07391715  1  -1.260798  0  -0.365332  -0.666329  0  2.218437  0
O  O230  1  0.42398140  0.57387352  0.91965199  1  -1.257465  0  -0.363666  -0.665012  0  2.219573  0
O  O231  1  0.41761542  0.92612522  0.58029001  1  -1.251709  0  -0.365996  -0.666474  0  2.220964  0
O  O232  1  0.00239639  0.58027011  0.57386203  1  -1.249663  0  -0.363143  -0.665223  0  2.219143  0
O  O233  1  0.65648415  0.91976926  0.92608478  1  -1.260243  0  -0.365327  -0.666316  0  2.218376  0
O  O234  1  0.57602148  0.42612997  0.08034673  1  -1.257527  0  -0.363618  -0.664983  0  2.219337  0
O  O235  1  0.58238697  0.07387337  0.41971078  1  -1.251742  0  -0.366007  -0.666463  0  2.220978  0
O  O236  1  0.14416453  0.52824431  0.40584586  1  -1.286155  0  -0.37644  -0.748102  0  2.303071  0
O  O237  1  0.57835154  0.97167016  0.09405190  1  -1.284896  0  -0.375392  -0.747148  0  2.302547  0
O  O238  1  0.55006766  0.59410399  0.02827193  1  -1.28026  0  -0.374698  -0.746449  0  2.303885  0
O  O239  1  0.67247221  0.90601667  0.47160133  1  -1.288575  0  -0.37502  -0.746627  0  2.302456  0
O  O240  1  0.85583346  0.47175550  0.59415441  1  -1.286267  0  -0.376423  -0.748112  0  2.303202  0
O  O241  1  0.42164591  0.02833088  0.90594916  1  -1.284918  0  -0.375382  -0.747147  0  2.30253  0
O  O242  1  0.44993279  0.40589705  0.97172785  1  -1.279946  0  -0.374708  -0.746429  0  2.30379  0
O  O243  1  0.32752974  0.09398254  0.52839788  1  -1.288611  0  -0.375038  -0.746669  0  2.30252  0
O  O244  1  0.28172743  0.59408066  0.35761398  1  -1.234334  0  -0.3374  -0.625715  0  2.175587  0
O  O245  1  0.73343887  0.90589098  0.14232517  1  -1.236073  0  -0.337446  -0.624452  0  2.177232  0
O  O246  1  0.63935133  0.64236069  0.09409145  1  -1.231557  0  -0.33694  -0.624231  0  2.177047  0
O  O247  1  0.87585448  0.85771442  0.40584323  1  -1.229471  0  -0.337256  -0.624518  0  2.176157  0
O  O248  1  0.71827171  0.40591916  0.64238515  1  -1.234347  0  -0.337371  -0.625677  0  2.175569  0
O  O249  1  0.26655803  0.09411129  0.85767668  1  -1.236077  0  -0.33749  -0.624495  0  2.17714  0
O  O250  1  0.36064744  0.35763912  0.90591061  1  -1.231517  0  -0.336898  -0.624133  0  2.177123  0
O  O251  1  0.12414743  0.14228601  0.59415541  1  -1.229426  0  -0.337249  -0.624513  0  2.17615  0
O  O252  1  0.05113346  0.69631184  0.34675850  1  -1.388594  0  -0.718273  -1.145482  0  2.042739  0
O  O253  1  0.59420424  0.80359471  0.15328846  1  -1.401636  0  -0.717484  -1.146501  0  2.04185  0
O  O254  1  0.39783197  0.65324447  0.19633086  1  -1.392599  0  -0.719478  -1.14597  0  2.042378  0
O  O255  1  0.74755585  0.84666834  0.30359679  1  -1.395361  0  -0.720192  -1.148103  0  2.042489  0
O  O256  1  0.94886723  0.30368859  0.65324049  1  -1.388577  0  -0.718258  -1.145478  0  2.042809  0
O  O257  1  0.40579534  0.19640449  0.84671224  1  -1.401626  0  -0.717473  -1.146488  0  2.041851  0
O  O258  1  0.60216636  0.34675596  0.80366963  1  -1.392589  0  -0.719471  -1.145986  0  2.04245  0
O  O259  1  0.25244464  0.15333147  0.69640356  1  -1.395348  0  -0.720187  -1.148092  0  2.042443  0
