# generated using pymatgen
data_CuH5C3SN4
_symmetry_space_group_name_H-M   'P 1'
_cell_length_a   6.47137205
_cell_length_b   8.72938689
_cell_length_c   10.75709795
_cell_angle_alpha   106.00083352
_cell_angle_beta   90.00003330
_cell_angle_gamma   89.99999464
_symmetry_Int_Tables_number   1
_chemical_formula_structural   CuH5C3SN4
_chemical_formula_sum   'Cu4 H20 C12 S4 N16'
_cell_volume   584.13746156
_cell_formula_units_Z   4
loop_
 _symmetry_equiv_pos_site_id
 _symmetry_equiv_pos_as_xyz
  1  'x, y, z'
loop_
 _atom_site_type_symbol
 _atom_site_label
 _atom_site_symmetry_multiplicity
 _atom_site_fract_x
 _atom_site_fract_y
 _atom_site_fract_z
 _atom_site_occupancy
 _atom_site_hle17_bader_spin_density
 _atom_site_hle17_ddec_charge
 _atom_site_hle17_ddec_spin_density
 _atom_site_hle17_ddec_sum_bond_order
 _atom_site_hle17_magmom
 _atom_site_hse06_10hf_bader_spin_density
 _atom_site_hse06_10hf_ddec_charge
 _atom_site_hse06_10hf_ddec_spin_density
 _atom_site_hse06_10hf_ddec_sum_bond_order
 _atom_site_hse06_10hf_magmom
 _atom_site_hse06_bader_spin_density
 _atom_site_hse06_ddec_charge
 _atom_site_hse06_ddec_spin_density
 _atom_site_hse06_ddec_sum_bond_order
 _atom_site_hse06_magmom
 _atom_site_pbe_bader_spin_density
 _atom_site_pbe_cm5_charge
 _atom_site_pbe_ddec_charge
 _atom_site_pbe_ddec_spin_density
 _atom_site_pbe_ddec_sum_bond_order
 _atom_site_pbe_magmom
Cu  Cu0  1  0.08914807  0.49074896  0.15257165  1  0  0.321852  0  2.092128  0  0  0.189974  0  2.608871  0  0  0.184296  0  2.565811  0  0  0.544285  0.197024  0  2.636831  0
Cu  Cu1  1  0.58914569  0.50925260  0.34742988  1  0  0.32187  0  2.092188  0  0  0.190004  0  2.608922  0  0  0.184304  0  2.565845  0  0  0.544327  0.197076  0  2.636928  0
Cu  Cu2  1  0.91085205  0.50925190  0.84742924  1  0  0.321876  0  2.092162  0  0  0.189982  0  2.608893  0  0  0.184268  0  2.565798  0  0  0.544334  0.19707  0  2.636906  0
Cu  Cu3  1  0.41085289  0.49074945  0.65257220  1  0  0.321869  0  2.09214  0  0  0.189992  0  2.608866  0  0  0.184298  0  2.56579  0  0  0.544302  0.197052  0  2.636846  0
H  H4  1  0.71215215  0.22411741  0.49908377  1  0  0.086358  0  0.968181  0  0  0.091944  0  1.04936  0  0  0.093963  0  1.048112  0  0  0.093238  0.089395  0  1.052411  0
H  H5  1  0.21215281  0.77587938  0.00091488  1  0  0.086385  0  0.968219  0  0  0.091958  0  1.049418  0  0  0.093978  0  1.048169  0  0  0.093249  0.089405  0  1.052474  0
H  H6  1  0.28784797  0.77587868  0.50091513  1  0  0.086328  0  0.968183  0  0  0.091909  0  1.0494  0  0  0.093928  0  1.048152  0  0  0.093225  0.089355  0  1.052452  0
H  H7  1  0.78784731  0.22411790  0.99908428  1  0  0.086345  0  0.968171  0  0  0.091939  0  1.049367  0  0  0.093958  0  1.048119  0  0  0.093237  0.089386  0  1.052414  0
H  H8  1  0.51742832  0.13952496  0.38449199  1  0  0.088039  0  0.944898  0  0  0.104497  0  1.004252  0  0  0.104863  0  1.005754  0  0  0.098422  0.104289  0  1.003102  0
H  H9  1  0.01742908  0.86047420  0.11550713  1  0  0.088067  0  0.944875  0  0  0.104516  0  1.004233  0  0  0.104881  0  1.005735  0  0  0.098425  0.104309  0  1.003082  0
H  H10  1  0.48257180  0.86047231  0.61550717  1  0  0.088037  0  0.944909  0  0  0.104497  0  1.004272  0  0  0.104862  0  1.005775  0  0  0.098421  0.104288  0  1.003119  0
H  H11  1  0.98257104  0.13952546  0.88449164  1  0  0.088049  0  0.944915  0  0  0.104514  0  1.004273  0  0  0.10488  0  1.005775  0  0  0.098432  0.104304  0  1.00312  0
H  H12  1  0.72885642  0.92222303  0.44102804  1  0  0.111338  0  0.945001  0  0  0.131694  0  1.007825  0  0  0.133071  0  1.007562  0  0  0.089531  0.130586  0  1.008274  0
H  H13  1  0.22885567  0.07777494  0.05896903  1  0  0.111393  0  0.944897  0  0  0.131704  0  1.007766  0  0  0.133081  0  1.007502  0  0  0.089523  0.130597  0  1.00821  0
H  H14  1  0.27114833  0.07777424  0.55896741  1  0  0.111355  0  0.944926  0  0  0.13168  0  1.007779  0  0  0.133056  0  1.007517  0  0  0.089508  0.130572  0  1.008227  0
H  H15  1  0.77114600  0.92222352  0.94102854  1  0  0.111327  0  0.945009  0  0  0.131691  0  1.007829  0  0  0.133068  0  1.007564  0  0  0.089524  0.130583  0  1.008276  0
H  H16  1  0.95493519  0.99802429  0.38698184  1  0  0.103883  0  0.958848  0  0  0.125123  0  1.020356  0  0  0.125864  0  1.021651  0  0  0.086336  0.124594  0  1.019382  0
H  H17  1  0.45493449  0.00197489  0.11301650  1  0  0.103916  0  0.958869  0  0  0.125159  0  1.020355  0  0  0.125901  0  1.021649  0  0  0.086353  0.124632  0  1.019378  0
H  H18  1  0.04506802  0.00197537  0.61301599  1  0  0.103808  0  0.958978  0  0  0.125073  0  1.020443  0  0  0.125813  0  1.021738  0  0  0.08633  0.124549  0  1.019461  0
H  H19  1  0.54506563  0.99802357  0.88698200  1  0  0.103869  0  0.958872  0  0  0.125116  0  1.020372  0  0  0.125857  0  1.021668  0  0  0.08634  0.124589  0  1.019394  0
H  H20  1  0.75373824  0.91435394  0.27536914  1  0  0.095288  0  0.974077  0  0  0.113615  0  1.039452  0  0  0.113758  0  1.042021  0  0  0.080341  0.113551  0  1.037516  0
H  H21  1  0.25373764  0.08564522  0.22462820  1  0  0.095262  0  0.97408  0  0  0.113588  0  1.039468  0  0  0.113731  0  1.042037  0  0  0.080341  0.113524  0  1.037532  0
H  H22  1  0.24626652  0.08564809  0.72462829  1  0  0.095256  0  0.974076  0  0  0.113552  0  1.039518  0  0  0.113695  0  1.042089  0  0  0.080307  0.113494  0  1.037574  0
H  H23  1  0.74626402  0.91435324  0.77537030  1  0  0.095303  0  0.974058  0  0  0.113623  0  1.039459  0  0  0.113765  0  1.04203  0  0  0.080353  0.113562  0  1.037518  0
C  C24  1  0.01144441  0.32552247  0.35743528  1  0  0.2241  0  3.829344  0  0  0.210941  0  4.115521  0  0  0.219093  0  4.132318  0  0  0.203575  0.20549  0  4.104336  0
C  C25  1  0.51144799  0.67447671  0.14256756  1  0  0.224064  0  3.829261  0  0  0.210837  0  4.115567  0  0  0.218989  0  4.132365  0  0  0.203535  0.20539  0  4.104376  0
C  C26  1  0.98855107  0.67447721  0.64256814  1  0  0.224107  0  3.829289  0  0  0.210873  0  4.115591  0  0  0.219023  0  4.132387  0  0  0.203556  0.205427  0  4.104399  0
C  C27  1  0.48855367  0.32552177  0.85743466  1  0  0.224113  0  3.829296  0  0  0.210909  0  4.115544  0  0  0.21906  0  4.132341  0  0  0.203577  0.205459  0  4.104355  0
C  C28  1  0.68497085  0.14923886  0.40032025  1  0  -0.088971  0  3.645495  0  0  -0.120178  0  3.906837  0  0  -0.120321  0  3.919047  0  0  -0.147901  -0.119563  0  3.898793  0
C  C29  1  0.18497469  0.85076031  0.09967986  1  0  -0.089038  0  3.645615  0  0  -0.120196  0  3.906864  0  0  -0.120341  0  3.919077  0  0  -0.147879  -0.119606  0  3.898883  0
C  C30  1  0.31502927  0.85076199  0.59967971  1  0  -0.088914  0  3.645475  0  0  -0.12013  0  3.906801  0  0  -0.120269  0  3.919006  0  0  -0.147877  -0.119542  0  3.898841  0
C  C31  1  0.81502852  0.14923816  0.90031957  1  0  -0.088936  0  3.645446  0  0  -0.120177  0  3.906829  0  0  -0.120318  0  3.919035  0  0  -0.14789  -0.11958  0  3.898852  0
C  C32  1  0.78700016  0.98707180  0.37394618  1  0  -0.282658  0  3.701833  0  0  -0.355248  0  3.942489  0  0  -0.35813  0  3.955092  0  0  -0.251957  -0.352958  0  3.933509  0
C  C33  1  0.28700257  0.01292856  0.12605236  1  0  -0.282691  0  3.70182  0  0  -0.355267  0  3.942499  0  0  -0.358148  0  3.955099  0  0  -0.251969  -0.352976  0  3.933512  0
C  C34  1  0.21300150  0.01292904  0.62605099  1  0  -0.28256  0  3.701916  0  0  -0.355129  0  3.942614  0  0  -0.358011  0  3.955221  0  0  -0.251895  -0.352843  0  3.933617  0
C  C35  1  0.71299910  0.98707110  0.87394640  1  0  -0.282657  0  3.701872  0  0  -0.35525  0  3.942538  0  0  -0.358134  0  3.955143  0  0  -0.251962  -0.352961  0  3.933543  0
S  S36  1  0.77057397  0.26190026  0.28982993  1  0  0.04031  0  2.634843  0  0  0.052426  0  3.039325  0  0  0.055644  0  3.02502  0  0  0.027237  0.049561  0  3.050802  0
S  S37  1  0.27057483  0.73810368  0.21017220  1  0  0.040266  0  2.634882  0  0  0.052402  0  3.039378  0  0  0.055615  0  3.02508  0  0  0.027176  0.049543  0  3.050843  0
S  S38  1  0.22942461  0.73810417  0.71017268  1  0  0.040234  0  2.63482  0  0  0.052394  0  3.039321  0  0  0.055611  0  3.025012  0  0  0.027199  0.049532  0  3.050795  0
S  S39  1  0.72942374  0.26189837  0.78982896  1  0  0.040275  0  2.63479  0  0  0.052429  0  3.039287  0  0  0.05565  0  3.024974  0  0  0.027204  0.04956  0  3.050774  0
N  N40  1  0.14450271  0.40257204  0.29874867  1  0  -0.272632  0  3.298945  0  0  -0.223765  0  3.630194  0  0  -0.228603  0  3.628866  0  0  -0.281425  -0.221517  0  3.631907  0
N  N41  1  0.64450018  0.59742834  0.20125727  1  0  -0.272672  0  3.298922  0  0  -0.223801  0  3.630204  0  0  -0.228626  0  3.628858  0  0  -0.281479  -0.22157  0  3.631948  0
N  N42  1  0.85549895  0.59742883  0.70125687  1  0  -0.272675  0  3.298958  0  0  -0.223784  0  3.630221  0  0  -0.228602  0  3.628862  0  0  -0.281472  -0.221554  0  3.631976  0
N  N43  1  0.35549376  0.40257253  0.79874827  1  0  -0.272677  0  3.299024  0  0  -0.223792  0  3.63028  0  0  -0.228622  0  3.628934  0  0  -0.281431  -0.221542  0  3.632002  0
N  N44  1  0.30690417  0.44011169  0.38008011  1  0  -0.074428  0  3.258508  0  0  -0.031203  0  3.584759  0  0  -0.027288  0  3.581676  0  0  -0.163743  -0.034864  0  3.587728  0
N  N45  1  0.80690310  0.55988988  0.11992150  1  0  -0.074371  0  3.258413  0  0  -0.031141  0  3.584661  0  0  -0.027238  0  3.581591  0  0  -0.163705  -0.034788  0  3.587607  0
N  N46  1  0.69309595  0.55989036  0.61992104  1  0  -0.07437  0  3.258478  0  0  -0.031146  0  3.584716  0  0  -0.027237  0  3.581634  0  0  -0.163706  -0.034799  0  3.587677  0
N  N47  1  0.19309392  0.44011217  0.88007965  1  0  -0.074396  0  3.258546  0  0  -0.031165  0  3.584779  0  0  -0.027243  0  3.581682  0  0  -0.16373  -0.034831  0  3.587752  0
N  N48  1  0.26899572  0.38787143  0.48326471  1  0  -0.076876  0  3.264298  0  0  -0.03316  0  3.594152  0  0  -0.029736  0  3.594109  0  0  -0.155957  -0.036043  0  3.59492  0
N  N49  1  0.76899764  0.61213012  0.01673409  1  0  -0.076942  0  3.264418  0  0  -0.033201  0  3.594252  0  0  -0.029765  0  3.594195  0  0  -0.155947  -0.036091  0  3.595033  0
N  N50  1  0.73100131  0.61213061  0.51673458  1  0  -0.076946  0  3.264465  0  0  -0.033204  0  3.5943  0  0  -0.029775  0  3.594257  0  0  -0.155947  -0.036089  0  3.595075  0
N  N51  1  0.23100248  0.38787072  0.98326400  1  0  -0.076909  0  3.26436  0  0  -0.033188  0  3.594209  0  0  -0.029771  0  3.594177  0  0  -0.155972  -0.036065  0  3.594964  0
N  N52  1  0.08439499  0.31438363  0.47134487  1  0  -0.275616  0  2.916336  0  0  -0.256675  0  3.195013  0  0  -0.266478  0  3.208642  0  0  -0.222004  -0.249561  0  3.185994  0
N  N53  1  0.58440000  0.68561673  0.02865547  1  0  -0.275494  0  2.916289  0  0  -0.256544  0  3.194986  0  0  -0.26635  0  3.208615  0  0  -0.221943  -0.249427  0  3.185965  0
N  N54  1  0.91559895  0.68561723  0.52865602  1  0  -0.27553  0  2.916342  0  0  -0.256588  0  3.195064  0  0  -0.266393  0  3.208697  0  0  -0.221974  -0.249469  0  3.186041  0
N  N55  1  0.41560320  0.31438293  0.97134516  1  0  -0.275582  0  2.916302  0  0  -0.256623  0  3.194972  0  0  -0.266427  0  3.208606  0  0  -0.221979  -0.249507  0  3.185948  0
