# generated using pymatgen
data_CuH7C7N4O
_symmetry_space_group_name_H-M   'P 1'
_cell_length_a   4.82364214
_cell_length_b   8.72380630
_cell_length_c   19.36183988
_cell_angle_alpha   89.99951407
_cell_angle_beta   92.13204405
_cell_angle_gamma   90.00077343
_symmetry_Int_Tables_number   1
_chemical_formula_structural   CuH7C7N4O
_chemical_formula_sum   'Cu4 H28 C28 N16 O4'
_cell_volume   814.19226422
_cell_formula_units_Z   4
loop_
 _symmetry_equiv_pos_site_id
 _symmetry_equiv_pos_as_xyz
  1  'x, y, z'
loop_
 _atom_site_type_symbol
 _atom_site_label
 _atom_site_symmetry_multiplicity
 _atom_site_fract_x
 _atom_site_fract_y
 _atom_site_fract_z
 _atom_site_occupancy
 _atom_site_pbe_bader_spin_density
 _atom_site_pbe_cm5_charge
 _atom_site_pbe_ddec_charge
 _atom_site_pbe_ddec_spin_density
 _atom_site_pbe_ddec_sum_bond_order
 _atom_site_pbe_magmom
Cu  Cu0  1  0.26992168  0.74428830  0.26774326  1  0  0.519037  0.30345  0  2.885163  0
Cu  Cu1  1  0.73009170  0.24429071  0.23225651  1  0  0.518998  0.303444  0  2.885114  0
Cu  Cu2  1  0.73007349  0.25570995  0.73225610  1  0  0.519019  0.303429  0  2.885028  0
Cu  Cu3  1  0.26989724  0.75570181  0.76774281  1  0  0.518985  0.303441  0  2.884943  0
H  H4  1  0.36877164  0.91922143  0.39607972  1  0  0.112114  0.089169  0  1.000339  0
H  H5  1  0.63125004  0.41922665  0.10391790  1  0  0.112101  0.089074  0  1.000432  0
H  H6  1  0.63123184  0.08077223  0.60392075  1  0  0.112101  0.089153  0  1.00034  0
H  H7  1  0.36875549  0.58077962  0.89608103  1  0  0.112126  0.089145  0  1.000449  0
H  H8  1  0.23645768  0.90509292  0.51965135  1  0  0.107725  0.112656  0  1.011602  0
H  H9  1  0.76355600  0.40509438  0.98034580  1  0  0.107731  0.112676  0  1.011594  0
H  H10  1  0.76354995  0.09490189  0.48034967  1  0  0.107729  0.112698  0  1.011568  0
H  H11  1  0.23645785  0.59491304  0.01965424  1  0  0.107656  0.112654  0  1.011579  0
H  H12  1  0.63734743  0.55784061  0.45777975  1  0  0.108958  0.123199  0  1.023257  0
H  H13  1  0.36264279  0.05784268  0.04221848  1  0  0.108966  0.123249  0  1.023232  0
H  H14  1  0.36264358  0.44215764  0.54221958  1  0  0.108967  0.123233  0  1.023179  0
H  H15  1  0.63735860  0.94216129  0.95778146  1  0  0.108932  0.123203  0  1.023279  0
H  H16  1  0.80052839  0.58288530  0.33824088  1  0  0.112215  0.089334  0  1.034765  0
H  H17  1  0.19947697  0.08289309  0.16175789  1  0  0.112213  0.089341  0  1.034747  0
H  H18  1  0.19947094  0.41711294  0.66175904  1  0  0.112217  0.089311  0  1.034718  0
H  H19  1  0.80051819  0.91711088  0.83824148  1  0  0.112225  0.08935  0  1.034716  0
H  H20  1  0.22260384  0.73558684  0.61513186  1  0  0.314358  0.267112  0  1.006499  0
H  H21  1  0.77738301  0.23558789  0.88486778  1  0  0.314363  0.267095  0  1.006469  0
H  H22  1  0.77739134  0.26441026  0.38486854  1  0  0.314401  0.267143  0  1.006428  0
H  H23  1  0.22262047  0.76441494  0.11513269  1  0  0.31438  0.26713  0  1.006444  0
H  H24  1  0.83649722  0.61757221  0.69792844  1  0  0.296495  0.262074  0  0.979159  0
H  H25  1  0.16347432  0.11757367  0.80206894  1  0  0.296491  0.262084  0  0.979029  0
H  H26  1  0.16349795  0.38242604  0.30207144  1  0  0.296477  0.262095  0  0.979119  0
H  H27  1  0.83652294  0.88242687  0.19793200  1  0  0.296451  0.262067  0  0.979026  0
H  H28  1  0.78298688  0.80141490  0.70103351  1  0  0.290301  0.253626  0  1.00174  0
H  H29  1  0.21699736  0.30141681  0.79896379  1  0  0.290295  0.253602  0  1.001882  0
H  H30  1  0.21700829  0.19858106  0.29896637  1  0  0.290311  0.253608  0  1.001807  0
H  H31  1  0.78299987  0.69858372  0.20103508  1  0  0.290289  0.253593  0  1.001876  0
C  C32  1  0.20996348  0.83946880  0.41261794  1  0  0.038052  0.083554  0  3.935712  0
C  C33  1  0.79005216  0.33947436  0.08738046  1  0  0.03815  0.083829  0  3.935694  0
C  C34  1  0.79004000  0.16052601  0.58738253  1  0  0.038159  0.083746  0  3.935491  0
C  C35  1  0.20995547  0.66053076  0.91262005  1  0  0.038049  0.083584  0  3.935733  0
C  C36  1  0.13509508  0.83105297  0.48117241  1  0  -0.082922  -0.152948  0  3.982859  0
C  C37  1  0.86491205  0.33105579  0.01882543  1  0  -0.08293  -0.153032  0  3.982885  0
C  C38  1  0.86490633  0.16894069  0.51882805  1  0  -0.08293  -0.153078  0  3.982694  0
C  C39  1  0.13509142  0.66895048  0.98117452  1  0  -0.08291  -0.152964  0  3.983062  0
C  C40  1  0.92610807  0.72862799  0.49920718  1  0  -0.000318  0.009053  0  3.978019  0
C  C41  1  0.07389038  0.22862983  0.00079046  1  0  -0.000203  0.009142  0  3.978058  0
C  C42  1  0.07388920  0.27136682  0.50079375  1  0  -0.00034  0.009023  0  3.977983  0
C  C43  1  0.92611932  0.77137415  0.99921006  1  0  -0.000263  0.009052  0  3.97821  0
C  C44  1  0.80136498  0.63903753  0.44678938  1  0  -0.079514  -0.142181  0  3.942151  0
C  C45  1  0.19863549  0.13903932  0.05320914  1  0  -0.079501  -0.142205  0  3.942271  0
C  C46  1  0.19863227  0.36096071  0.55321053  1  0  -0.079492  -0.142152  0  3.942037  0
C  C47  1  0.80136383  0.86096580  0.94679078  1  0  -0.07939  -0.142085  0  3.942212  0
C  C48  1  0.89294470  0.65209358  0.37986444  1  0  0.038949  0.08222  0  3.923536  0
C  C49  1  0.10706231  0.15209802  0.12013408  1  0  0.038943  0.082282  0  3.923658  0
C  C50  1  0.10705046  0.34790123  0.62013493  1  0  0.038949  0.082273  0  3.923522  0
C  C51  1  0.89293909  0.84790252  0.87986586  1  0  0.038944  0.082272  0  3.923697  0
C  C52  1  0.82360514  0.71484511  0.57083459  1  0  0.240642  0.438651  0  4.148342  0
C  C53  1  0.17638533  0.21484544  0.92916361  1  0  0.240607  0.438691  0  4.148361  0
C  C54  1  0.17640456  0.28515199  0.42916593  1  0  0.240727  0.438744  0  4.148234  0
C  C55  1  0.82360778  0.78516198  0.07083729  1  0  0.240659  0.43878  0  4.148307  0
C  C56  1  0.43819482  0.56121654  0.24408470  1  0  -0.07296  -0.175662  0  3.951778  0
C  C57  1  0.56182662  0.06122069  0.25591429  1  0  -0.072957  -0.175624  0  3.951554  0
C  C58  1  0.56181278  0.43877942  0.75591374  1  0  -0.072973  -0.175611  0  3.95155  0
C  C59  1  0.43817060  0.93878673  0.74408355  1  0  -0.073001  -0.175752  0  3.952218  0
N  N60  1  0.09468572  0.75049162  0.36232021  1  0  -0.347972  -0.191473  0  3.603836  0
N  N61  1  0.90532985  0.25049711  0.13767749  1  0  -0.348062  -0.191685  0  3.603832  0
N  N62  1  0.90531773  0.24950548  0.63767871  1  0  -0.34806  -0.191626  0  3.603942  0
N  N63  1  0.09466946  0.74950572  0.86232140  1  0  -0.348022  -0.191588  0  3.603887  0
N  N64  1  0.01322664  0.73644111  0.62308224  1  0  -0.329738  -0.216563  0  3.576697  0
N  N65  1  0.98676022  0.23644273  0.87691688  1  0  -0.329734  -0.216542  0  3.576491  0
N  N66  1  0.98676648  0.26355484  0.37691866  1  0  -0.32978  -0.216587  0  3.576391  0
N  N67  1  0.01324118  0.76356010  0.12308357  1  0  -0.329787  -0.216712  0  3.576466  0
N  N68  1  0.93459597  0.72130143  0.69224674  1  0  -0.526864  -0.403382  0  3.436671  0
N  N69  1  0.06538218  0.22130435  0.80774979  1  0  -0.526855  -0.403331  0  3.436266  0
N  N70  1  0.06539917  0.27869452  0.30775160  1  0  -0.526911  -0.403423  0  3.436514  0
N  N71  1  0.93461504  0.77869619  0.19224857  1  0  -0.526791  -0.403221  0  3.436254  0
N  N72  1  0.55081839  0.44387608  0.23299532  1  0  -0.44006  -0.328356  0  3.620171  0
N  N73  1  0.44919974  0.94387273  0.26700270  1  0  -0.440091  -0.328427  0  3.619941  0
N  N74  1  0.44918508  0.55612331  0.76700412  1  0  -0.440076  -0.328435  0  3.620047  0
N  N75  1  0.55077885  0.05611864  0.73299808  1  0  -0.439986  -0.328194  0  3.620732  0
O  O76  1  0.57492060  0.68538447  0.58103558  1  0  -0.298497  -0.503585  0  2.203491  0
O  O77  1  0.42507120  0.18538340  0.91896016  1  0  -0.298516  -0.503668  0  2.203481  0
O  O78  1  0.42507457  0.31460805  0.41896430  1  0  -0.298521  -0.503588  0  2.203631  0
O  O79  1  0.57493848  0.81462516  0.08103933  1  0  -0.298529  -0.503657  0  2.203588  0
