# generated using pymatgen
data_CdH26C39N6O5
_symmetry_space_group_name_H-M   'P 1'
_cell_length_a   10.58118271
_cell_length_b   14.68625411
_cell_length_c   21.96875116
_cell_angle_alpha   87.41513041
_cell_angle_beta   82.80003436
_cell_angle_gamma   68.89217119
_symmetry_Int_Tables_number   1
_chemical_formula_structural   CdH26C39N6O5
_chemical_formula_sum   'Cd4 H104 C156 N24 O20'
_cell_volume   3159.72765674
_cell_formula_units_Z   4
loop_
 _symmetry_equiv_pos_site_id
 _symmetry_equiv_pos_as_xyz
  1  'x, y, z'
loop_
 _atom_site_type_symbol
 _atom_site_label
 _atom_site_symmetry_multiplicity
 _atom_site_fract_x
 _atom_site_fract_y
 _atom_site_fract_z
 _atom_site_occupancy
 _atom_site_pbe_bader_charge
 _atom_site_pbe_bader_spin_density
 _atom_site_pbe_cm5_charge
 _atom_site_pbe_ddec_charge
 _atom_site_pbe_ddec_spin_density
 _atom_site_pbe_ddec_sum_bond_order
 _atom_site_pbe_magmom
Cd  Cd0  1  0.78878521  0.00717981  0.35050314  1  1.283183  0  0.76804  0.86539  0  2.205729  0
Cd  Cd1  1  0.79567354  0.99290013  0.85050205  1  1.281216  0  0.767957  0.865338  0  2.203722  0
Cd  Cd2  1  0.32114394  0.00552122  0.37370239  1  1.287642  0  0.765141  0.916665  0  2.133542  0
Cd  Cd3  1  0.32648053  0.99449828  0.87366542  1  1.288042  0  0.764821  0.916246  0  2.132555  0
H  H4  1  0.09607591  0.04607321  0.29341429  1  0.66219  0  0.282747  0.37916  0  0.967178  0
H  H5  1  0.14188480  0.95388681  0.79341974  1  0.660231  0  0.283145  0.380287  0  0.965478  0
H  H6  1  0.24315749  0.99944743  0.25395420  1  0.583626  0  0.305254  0.381107  0  0.916868  0
H  H7  1  0.24240570  0.00049330  0.75399708  1  0.580699  0  0.305653  0.382032  0  0.916021  0
H  H8  1  0.03763644  0.06457079  0.41986797  1  0.624322  0  0.28867  0.391846  0  0.944091  0
H  H9  1  0.10236613  0.93537143  0.91984874  1  0.64143  0  0.288955  0.392575  0  0.94322  0
H  H10  1  0.12247458  0.11168336  0.45659643  1  0.641648  0  0.273616  0.358655  0  1.005816  0
H  H11  1  0.23435427  0.88818487  0.95653415  1  0.653415  0  0.273744  0.35923  0  1.005234  0
H  H12  1  0.39281963  0.78095475  0.32714793  1  0.100656  0  0.11412  0.086052  0  1.013765  0
H  H13  1  0.17357327  0.21893637  0.82719933  1  0.123557  0  0.114059  0.085904  0  1.014304  0
H  H14  1  0.21927534  0.91863723  0.49274709  1  0.100505  0  0.113885  0.079777  0  1.036544  0
H  H15  1  0.13766589  0.08148743  0.99289796  1  0.110356  0  0.114254  0.080609  0  1.035523  0
H  H16  1  0.21348977  0.76324748  0.54305794  1  0.107999  0  0.106181  0.110873  0  1.043784  0
H  H17  1  0.97647755  0.23698096  0.04308875  1  0.138902  0  0.106343  0.110266  0  1.043769  0
H  H18  1  0.40468061  0.61625355  0.37158824  1  0.159792  0  0.110968  0.120002  0  1.021782  0
H  H19  1  0.02066720  0.38369087  0.87151326  1  0.116978  0  0.110588  0.11945  0  1.021554  0
H  H20  1  0.14141829  0.64843640  0.64948446  1  0.129497  0  0.10436  0.103502  0  1.067871  0
H  H21  1  0.79016008  0.35160277  0.14949178  1  0.133964  0  0.104493  0.103492  0  1.067881  0
H  H22  1  0.03711109  0.63985836  0.75838589  1  0.049949  0  0.107  0.072871  0  1.010472  0
H  H23  1  0.67708417  0.36019371  0.25837072  1  0.047664  0  0.106914  0.072337  0  1.010483  0
H  H24  1  0.17379252  0.33881522  0.75184504  1  0.054715  0  0.107877  0.072289  0  1.0074  0
H  H25  1  0.51273322  0.66124153  0.25180516  1  0.050243  0  0.107487  0.072042  0  1.008141  0
H  H26  1  0.28414896  0.33583272  0.64359390  1  0.123926  0  0.105882  0.110837  0  1.050484  0
H  H27  1  0.62013859  0.66416813  0.14352342  1  0.120171  0  0.105808  0.110946  0  1.05032  0
H  H28  1  0.52490593  0.39914369  0.36887033  1  0.132077  0  0.112193  0.122018  0  1.017742  0
H  H29  1  0.92361621  0.60085834  0.86893312  1  0.141526  0  0.112283  0.121723  0  1.018173  0
H  H30  1  0.65969155  0.23898045  0.31554309  1  0.084859  0  0.109944  0.072931  0  1.035241  0
H  H31  1  0.89857647  0.76097550  0.81556673  1  0.113703  0  0.109887  0.07321  0  1.035153  0
H  H32  1  0.56961483  0.08071218  0.46354818  1  0.144278  0  0.116074  0.090369  0  1.048273  0
H  H33  1  0.65037713  0.91937179  0.96355614  1  0.144706  0  0.11613  0.089809  0  1.049062  0
H  H34  1  0.43286296  0.23340804  0.52390796  1  0.124  0  0.109208  0.115762  0  1.033007  0
H  H35  1  0.66629173  0.76676620  0.02399181  1  0.120301  0  0.109376  0.116397  0  1.032443  0
H  H36  1  0.47342275  0.08336461  0.25043387  1  0.101579  0  0.116761  0.089301  0  1.01813  0
H  H37  1  0.55670423  0.91671944  0.75034264  1  0.107097  0  0.117039  0.090246  0  1.017751  0
H  H38  1  0.46879901  0.23666764  0.19584850  1  0.104515  0  0.112594  0.121713  0  1.010202  0
H  H39  1  0.70579888  0.76349890  0.69580564  1  0.101811  0  0.112675  0.121511  0  1.010072  0
H  H40  1  0.18995975  0.39724941  0.34796669  1  0.17346  0  0.112095  0.120391  0  1.027191  0
H  H41  1  0.58789430  0.60270183  0.84791662  1  0.154653  0  0.111965  0.120238  0  1.026523  0
H  H42  1  0.20112267  0.23607735  0.39517663  1  0.111568  0  0.119803  0.093276  0  1.005441  0
H  H43  1  0.43760326  0.76382534  0.89513966  1  0.112154  0  0.119512  0.093197  0  1.005007  0
H  H44  1  0.52313043  0.34573091  0.07864847  1  0.0805  0  0.107594  0.112716  0  1.027051  0
H  H45  1  0.86914891  0.65398626  0.57857369  1  0.0789  0  0.107502  0.112802  0  1.025854  0
H  H46  1  0.63462116  0.35149896  0.97202060  1  0.065718  0  0.109134  0.077607  0  0.987153  0
H  H47  1  0.98628473  0.64814660  0.47192367  1  0.065608  0  0.109014  0.077889  0  0.987083  0
H  H48  1  0.47080422  0.65387467  0.96981504  1  0.083848  0  0.109572  0.077054  0  0.999254  0
H  H49  1  0.12465266  0.34577989  0.46979189  1  0.080416  0  0.109576  0.077377  0  0.9992  0
H  H50  1  0.35413474  0.66033213  0.07557761  1  0.079832  0  0.111355  0.120502  0  1.008802  0
H  H51  1  0.01470339  0.33936925  0.57561373  1  0.113421  0  0.111476  0.120714  0  1.009093  0
H  H52  1  0.08766056  0.62082033  0.34775610  1  0.12571  0  0.113515  0.123921  0  1.014176  0
H  H53  1  0.70841475  0.37915367  0.84791065  1  0.124062  0  0.113395  0.12364  0  1.014373  0
H  H54  1  0.92839161  0.78530851  0.38898696  1  0.123582  0  0.116683  0.089278  0  1.023058  0
H  H55  1  0.71376709  0.21463668  0.88910679  1  0.127742  0  0.116762  0.089375  0  1.022809  0
H  H56  1  0.01289887  0.92505289  0.23006877  1  0.085165  0  0.114469  0.07927  0  1.021325  0
H  H57  1  0.93763423  0.07502121  0.73009474  1  0.121571  0  0.114524  0.079461  0  1.021568  0
H  H58  1  0.17339975  0.76770048  0.18191989  1  0.117416  0  0.114233  0.12453  0  1.004847  0
H  H59  1  0.94049466  0.23240500  0.68193271  1  0.119167  0  0.114319  0.124263  0  1.004511  0
H  H60  1  0.57758418  0.97798690  0.53810641  1  0.08605  0  0.103558  0.107185  0  1.038243  0
H  H61  1  0.55536278  0.02212889  0.03819960  1  0.119149  0  0.103541  0.107044  0  1.038013  0
H  H62  1  0.19198024  0.18196457  0.61615156  1  0.085938  0  0.098319  0.10136  0  1.026494  0
H  H63  1  0.37370221  0.81799502  0.11600008  1  0.056253  0  0.098655  0.101785  0  1.025773  0
H  H64  1  0.29856788  0.20013936  0.70747895  1  0.041798  0  0.096773  0.097416  0  1.031388  0
H  H65  1  0.49830081  0.79970715  0.20739906  1  0.058995  0  0.097138  0.097323  0  1.031349  0
H  H66  1  0.68436192  0.99785574  0.62817713  1  0.085386  0  0.096133  0.105173  0  1.030217  0
H  H67  1  0.68188214  0.00210756  0.12833768  1  0.073667  0  0.096109  0.105019  0  1.031227  0
H  H68  1  0.54827891  0.19091936  0.73589374  1  0.049566  0  0.104143  0.12942  0  0.971638  0
H  H69  1  0.73915487  0.80897286  0.23586917  1  0.050999  0  0.104307  0.129272  0  0.971966  0
H  H70  1  0.67416935  0.07320323  0.72328913  1  0.0764  0  0.101082  0.1276  0  1.016767  0
H  H71  1  0.74743723  0.92663229  0.22302941  1  0.088143  0  0.101368  0.127801  0  1.016102  0
H  H72  1  0.83478304  0.81538321  0.54211000  1  0.080573  0  0.102676  0.103893  0  1.023361  0
H  H73  1  0.65041797  0.18456881  0.04215128  1  0.087831  0  0.102605  0.10369  0  1.022708  0
H  H74  1  0.00036254  0.04425783  0.53047672  1  0.122636  0  0.106597  0.107723  0  1.03603  0
H  H75  1  0.04470112  0.95565037  0.03052577  1  0.089649  0  0.106666  0.108295  0  1.035407  0
H  H76  1  0.93420308  0.75873976  0.64068039  1  0.065065  0  0.098292  0.099294  0  1.024209  0
H  H77  1  0.69307601  0.24108751  0.14077708  1  0.063863  0  0.09808  0.099  0  1.024306  0
H  H78  1  0.10210019  0.98747194  0.62663620  1  0.064258  0  0.099146  0.102714  0  1.000144  0
H  H79  1  0.08961177  0.01235093  0.12670303  1  0.074326  0  0.099078  0.102646  0  1.000723  0
H  H80  1  0.17814993  0.85515991  0.69974126  1  0.054449  0  0.09979  0.113008  0  1.00132  0
H  H81  1  0.03343034  0.14495857  0.19975262  1  0.067453  0  0.099929  0.113238  0  1.001789  0
H  H82  1  0.11743502  0.75821002  0.70640481  1  0.074211  0  0.104266  0.126091  0  1.008157  0
H  H83  1  0.87567058  0.24178522  0.20638576  1  0.082231  0  0.104304  0.125932  0  1.008378  0
H  H84  1  0.91204582  0.58301700  0.21678910  1  0.055615  0  0.095631  0.096427  0  1.013915  0
H  H85  1  0.49529753  0.41685524  0.71681561  1  0.055147  0  0.095658  0.096209  0  1.014912  0
H  H86  1  0.01117431  0.40177390  0.22265199  1  0.055784  0  0.096625  0.098211  0  1.015226  0
H  H87  1  0.41307570  0.59804804  0.72273144  1  0.063505  0  0.096251  0.09753  0  1.015882  0
H  H88  1  0.88581750  0.73625679  0.15864098  1  0.041746  0  0.09712  0.097128  0  1.030903  0
H  H89  1  0.62173392  0.26365461  0.65850262  1  0.028613  0  0.09716  0.096901  0  1.031554  0
H  H90  1  0.15998642  0.24351227  0.17608366  1  0.028382  0  0.096602  0.096418  0  1.014029  0
H  H91  1  0.40321258  0.75642249  0.67619644  1  0.067853  0  0.096433  0.096481  0  1.014032  0
H  H92  1  0.93518701  0.82144948  0.06382338  1  0.034271  0  0.098573  0.10161  0  1.011616  0
H  H93  1  0.75629010  0.17859753  0.56369896  1  0.065182  0  0.098583  0.10213  0  1.011111  0
H  H94  1  0.43578740  0.37917249  0.82616130  1  0.033238  0  0.093572  0.091336  0  1.022273  0
H  H95  1  0.81509737  0.62101707  0.32630659  1  0.041646  0  0.093382  0.090928  0  1.022264  0
H  H96  1  0.04644958  0.81502624  0.95759556  1  0.114253  0  0.103934  0.115589  0  1.037776  0
H  H97  1  0.86139727  0.18507215  0.45753900  1  0.112629  0  0.103786  0.115291  0  1.038315  0
H  H98  1  0.42828311  0.14181602  0.98178934  1  0.114119  0  0.10654  0.124874  0  1.016781  0
H  H99  1  0.56973217  0.85831217  0.48194247  1  0.113187  0  0.106398  0.124558  0  1.016835  0
H  H100  1  0.31695742  0.14778838  0.08811452  1  0.063275  0  0.095854  0.098301  0  1.020971  0
H  H101  1  0.46426155  0.85227766  0.58821380  1  0.054447  0  0.095861  0.098709  0  1.020701  0
H  H102  1  0.47000321  0.22583316  0.88585313  1  0.090368  0  0.102126  0.117082  0  1.018443  0
H  H103  1  0.69588021  0.77438233  0.38599610  1  0.083897  0  0.102239  0.117242  0  1.01871  0
H  H104  1  0.19598350  0.72054205  0.86888904  1  0.116943  0  0.102113  0.115984  0  1.007976  0
H  H105  1  0.91633246  0.27967449  0.36880073  1  0.118468  0  0.102501  0.116687  0  1.007136  0
H  H106  1  0.33655742  0.56035739  0.82024441  1  0.032556  0  0.094161  0.091559  0  1.022682  0
H  H107  1  0.89663230  0.43993298  0.32025385  1  0.03664  0  0.093991  0.091444  0  1.022462  0
C  C108  1  0.35478118  0.77259620  0.37473239  1  0.456481  0  0.047663  0.09548  0  3.945593  0
C  C109  1  0.12717579  0.22737091  0.87477913  1  0.446276  0  0.047734  0.095877  0  3.944627  0
C  C110  1  0.25635834  0.85050629  0.46721087  1  0.523448  0  0.049806  0.098383  0  3.957187  0
C  C111  1  0.10671001  0.14958360  0.96732775  1  0.480599  0  0.04939  0.097332  0  3.957067  0
C  C112  1  0.25409016  0.76433197  0.49517690  1  -0.027803  0  -0.072874  -0.137917  0  3.927481  0
C  C113  1  0.01826886  0.23580781  0.99521868  1  -0.03106  0  -0.073582  -0.13748  0  3.926674  0
C  C114  1  0.30976579  0.67802489  0.46109760  1  0.017581  0  0.012841  0.043654  0  3.944364  0
C  C115  1  0.98762462  0.32205673  0.96107178  1  -0.043505  0  0.013536  0.044601  0  3.944101  0
C  C116  1  0.35991711  0.68251567  0.39918405  1  -0.032124  0  -0.074121  -0.145724  0  3.917596  0
C  C117  1  0.04216875  0.31747966  0.89915795  1  0.041528  0  -0.073946  -0.145381  0  3.917271  0
C  C118  1  0.31992220  0.58362091  0.49072630  1  1.057193  0  0.265357  0.375085  0  4.010432  0
C  C119  1  0.90334488  0.41647506  0.99066510  1  1.126507  0  0.265079  0.375531  0  4.008379  0
C  C120  1  0.28022137  0.49627645  0.57407034  1  1.087063  0  0.264642  0.374762  0  4.000482  0
C  C121  1  0.77646347  0.50376071  0.07406110  1  1.117498  0  0.264904  0.376028  0  3.9991  0
C  C122  1  0.39516918  0.41864178  0.48582805  1  1.113218  0  0.266512  0.377535  0  4.007186  0
C  C123  1  0.81354077  0.58147204  0.98583534  1  1.110393  0  0.267692  0.378778  0  4.006584  0
C  C124  1  0.14997208  0.57909379  0.67160274  1  -0.040602  0  -0.082667  -0.160102  0  3.95699  0
C  C125  1  0.72938816  0.42094844  0.17162544  1  -0.056263  0  -0.083383  -0.160961  0  3.957239  0
C  C126  1  0.09246054  0.57341723  0.73162206  1  0.498301  0  0.034553  0.079617  0  4.003682  0
C  C127  1  0.66613336  0.42663465  0.23162813  1  0.503363  0  0.034764  0.080461  0  4.003278  0
C  C128  1  0.16841917  0.40682438  0.72796072  1  0.546671  0  0.036064  0.081797  0  3.993817  0
C  C129  1  0.57545481  0.59322575  0.22795462  1  0.56061  0  0.036637  0.082012  0  3.994176  0
C  C130  1  0.22980879  0.40451312  0.66775693  1  -0.097794  0  -0.078814  -0.149409  0  3.933771  0
C  C131  1  0.63453795  0.59553390  0.16774708  1  -0.09152  0  -0.078963  -0.149522  0  3.934201  0
C  C132  1  0.21998227  0.49294510  0.63843548  1  -0.02845  0  0.009134  0.043119  0  3.959196  0
C  C133  1  0.71313083  0.50709902  0.13845806  1  -0.050999  0  0.009595  0.043769  0  3.958437  0
C  C134  1  0.46903975  0.32758682  0.45082632  1  -0.087612  0  0.014609  0.044425  0  3.948778  0
C  C135  1  0.79635583  0.67251647  0.95085389  1  0.027283  0  0.01438  0.04419  0  3.948208  0
C  C136  1  0.53217625  0.32982877  0.39103414  1  0.023343  0  -0.072385  -0.142168  0  3.920716  0
C  C137  1  0.86162729  0.67022512  0.89104711  1  -0.040048  0  -0.07244  -0.142045  0  3.920658  0
C  C138  1  0.60719315  0.24164625  0.36168521  1  0.486555  0  0.045612  0.090488  0  3.964517  0
C  C139  1  0.84863094  0.75835769  0.86169946  1  0.465849  0  0.046215  0.091484  0  3.964359  0
C  C140  1  0.55755607  0.15268676  0.44465886  1  0.537915  0  0.048307  0.094845  0  3.927014  0
C  C141  1  0.71016507  0.84737887  0.94467795  1  0.502783  0  0.048796  0.096847  0  3.928174  0
C  C142  1  0.48080878  0.23719358  0.47757270  1  -0.044523  0  -0.072373  -0.138083  0  3.918112  0
C  C143  1  0.71788657  0.76292124  0.97762523  1  -0.074243  0  -0.07285  -0.13958  0  3.9186  0
C  C144  1  0.41173153  0.15402106  0.27080471  1  0.471027  0  0.048763  0.095761  0  3.948207  0
C  C145  1  0.56597858  0.84603160  0.77075382  1  0.464708  0  0.047702  0.093671  0  3.948443  0
C  C146  1  0.40951617  0.23956807  0.24039997  1  0.024977  0  -0.072812  -0.143722  0  3.930983  0
C  C147  1  0.64953765  0.76052453  0.74037297  1  -0.01788  0  -0.072589  -0.143099  0  3.929876  0
C  C148  1  0.32821084  0.32943114  0.26745116  1  -0.03316  0  0.014069  0.04235  0  3.952792  0
C  C149  1  0.65822760  0.67062968  0.76743107  1  0.035073  0  0.01407  0.042309  0  3.950594  0
C  C150  1  0.25347682  0.32903299  0.32483655  1  -0.074857  0  -0.071989  -0.142894  0  3.905268  0
C  C151  1  0.58315030  0.67096943  0.82483271  1  -0.073097  0  -0.071119  -0.141512  0  3.904139  0
C  C152  1  0.26072086  0.23970445  0.35154377  1  0.477504  0  0.051491  0.09962  0  3.928515  0
C  C153  1  0.50092335  0.76026239  0.85154015  1  0.498345  0  0.051418  0.099355  0  3.928601  0
C  C154  1  0.31793557  0.42225988  0.23507389  1  1.108485  0  0.263647  0.375573  0  4.007944  0
C  C155  1  0.74067147  0.57775852  0.73506204  1  1.094112  0  0.26315  0.375971  0  4.006217  0
C  C156  1  0.22983249  0.58759425  0.23234258  1  1.097298  0  0.264031  0.375075  0  4.017795  0
C  C157  1  0.81732571  0.41243285  0.73235946  1  1.093015  0  0.264133  0.374725  0  4.018349  0
C  C158  1  0.36577894  0.50307352  0.14973605  1  1.095184  0  0.266116  0.381975  0  3.995926  0
C  C159  1  0.86930234  0.49677514  0.64976762  1  1.101309  0  0.266155  0.382184  0  3.996268  0
C  C160  1  0.43149832  0.50275494  0.08613371  1  -0.055461  0  0.005783  0.026912  0  3.965577  0
C  C161  1  0.93458639  0.49696382  0.58613826  1  -0.060015  0  0.005325  0.025802  0  3.967509  0
C  C162  1  0.51069483  0.41519592  0.05581716  1  0.010123  0  -0.077734  -0.146768  0  3.93295  0
C  C163  1  0.92611629  0.58449002  0.55575782  1  0.001894  0  -0.076932  -0.145902  0  3.932307  0
C  C164  1  0.57185517  0.41909652  0.99626622  1  0.501082  0  0.039462  0.090837  0  3.993785  0
C  C165  1  0.99108366  0.58056442  0.49617894  1  0.538069  0  0.039111  0.089537  0  3.993536  0
C  C166  1  0.48129205  0.58614682  0.99488878  1  0.495588  0  0.04274  0.095921  0  3.981202  0
C  C167  1  0.06745137  0.41352592  0.49485554  1  0.435004  0  0.04252  0.095057  0  3.982425  0
C  C168  1  0.41601957  0.59033913  0.05437501  1  0.030445  0  -0.073245  -0.138088  0  3.913189  0
C  C169  1  0.00655011  0.40935860  0.55437895  1  0.056666  0  -0.073625  -0.138126  0  3.915158  0
C  C170  1  0.14235357  0.68224012  0.26121670  1  0.027051  0  0.013869  0.045421  0  3.951575  0
C  C171  1  0.82418236  0.31784621  0.76126110  1  -0.079776  0  0.013454  0.045273  0  3.950952  0
C  C172  1  0.07395871  0.68697792  0.32058698  1  -0.009515  0  -0.073131  -0.147619  0  3.916302  0
C  C173  1  0.76074430  0.31305323  0.82066904  1  0.005836  0  -0.072741  -0.146984  0  3.916639  0
C  C174  1  0.98630036  0.77760159  0.34356916  1  0.438919  0  0.050082  0.094264  0  3.926813  0
C  C175  1  0.76376627  0.22241271  0.84365140  1  0.466604  0  0.049901  0.094011  0  3.92818  0
C  C176  1  0.03301354  0.85635035  0.25486989  1  0.547141  0  0.050666  0.102704  0  3.962905  0
C  C177  1  0.88894337  0.14372453  0.75490608  1  0.51702  0  0.050497  0.102229  0  3.964472  0
C  C178  1  0.12214881  0.76926931  0.22822457  1  -0.076443  0  -0.073232  -0.146403  0  3.92344  0
C  C179  1  0.89084483  0.23083389  0.72824596  1  -0.022243  0  -0.073098  -0.145739  0  3.922704  0
C  C180  1  0.30877241  0.07385620  0.51544631  1  1.575147  0  0.199051  0.56026  0  4.226777  0
C  C181  1  0.38259314  0.92613351  0.01538366  1  1.551377  0  0.199167  0.560178  0  4.227576  0
C  C182  1  0.37665023  0.07869600  0.57115811  1  -0.030216  0  -0.027856  -0.053625  0  3.985708  0
C  C183  1  0.45519744  0.92128997  0.07112488  1  -0.082705  0  -0.028175  -0.055204  0  3.987188  0
C  C184  1  0.51555951  0.02689977  0.57514782  1  -0.057192  0  -0.088403  -0.097244  0  3.982029  0
C  C185  1  0.54222119  0.97315067  0.07519801  1  -0.088074  0  -0.088208  -0.096541  0  3.981555  0
C  C186  1  0.29959825  0.14125690  0.61959448  1  -0.100739  0  -0.094607  -0.108022  0  4.012589  0
C  C187  1  0.44061861  0.85868728  0.11952004  1  -0.017606  0  -0.095115  -0.108877  0  4.010828  0
C  C188  1  0.36003148  0.15242505  0.66996075  1  -0.032256  0  -0.098976  -0.138322  0  3.994112  0
C  C189  1  0.51214842  0.84745466  0.16991392  1  -0.041841  0  -0.098889  -0.137053  0  3.991911  0
C  C190  1  0.57599729  0.03858033  0.62591426  1  -0.036684  0  -0.098881  -0.152645  0  3.956514  0
C  C191  1  0.61425199  0.96139183  0.12598156  1  -0.027038  0  -0.098737  -0.152602  0  3.958629  0
C  C192  1  0.49950769  0.10188573  0.67391663  1  -0.056408  0  -0.012092  0.143697  0  3.970797  0
C  C193  1  0.60115169  0.89794908  0.17390669  1  -0.056619  0  -0.011621  0.144585  0  3.971233  0
C  C194  1  0.56367439  0.11345937  0.72908720  1  -0.029249  0  -0.162369  -0.358634  0  3.93544  0
C  C195  1  0.67714281  0.88639865  0.22899853  1  -0.04753  0  -0.16327  -0.359646  0  3.936536  0
C  C196  1  0.86458074  0.95845169  0.46831908  1  1.543774  0  0.192954  0.551646  0  4.230538  0
C  C197  1  0.82322096  0.04167557  0.96829893  1  1.558286  0  0.19274  0.550676  0  4.232346  0
C  C198  1  0.91384647  0.93144538  0.52961902  1  -0.04157  0  -0.023139  -0.046304  0  4.001326  0
C  C199  1  0.84546266  0.06852747  0.02963960  1  -0.064781  0  -0.023072  -0.046234  0  4.000147  0
C  C200  1  0.89408848  0.85182195  0.56140081  1  -0.034871  0  -0.083481  -0.089765  0  3.981632  0
C  C201  1  0.74609937  0.14809539  0.06146243  1  -0.026592  0  -0.08361  -0.089144  0  3.980509  0
C  C202  1  0.98595252  0.98151363  0.55431300  1  -0.065159  0  -0.084301  -0.092927  0  4.000244  0
C  C203  1  0.96754438  0.01836923  0.05437234  1  -0.006283  0  -0.084649  -0.094122  0  3.998624  0
C  C204  1  0.95012614  0.82059029  0.61600270  1  -0.089789  0  -0.093925  -0.144129  0  3.971658  0
C  C205  1  0.77084259  0.17921816  0.11610919  1  -0.148184  0  -0.093434  -0.144269  0  3.972707  0
C  C206  1  0.04302009  0.94938296  0.60855753  1  -0.054885  0  -0.095168  -0.14802  0  3.968264  0
C  C207  1  0.99246927  0.05048319  0.10863628  1  -0.067822  0  -0.09525  -0.148457  0  3.967758  0
C  C208  1  0.02751231  0.86782693  0.63950591  1  -0.006308  0  -0.007984  0.150491  0  3.985584  0
C  C209  1  0.89548890  0.13205403  0.13959206  1  0.043554  0  -0.007771  0.151651  0  3.984119  0
C  C210  1  0.98514392  0.88631582  0.75415342  1  1.553478  0  0.191071  0.596628  0  4.208561  0
C  C211  1  0.87177745  0.11362868  0.25418770  1  1.571133  0  0.190608  0.59719  0  4.207487  0
C  C212  1  0.08607220  0.83737075  0.69885811  1  -0.066492  0  -0.162789  -0.350828  0  3.968971  0
C  C213  1  0.92359437  0.16261587  0.19889109  1  -0.103359  0  -0.162954  -0.351108  0  3.969943  0
C  C214  1  0.50226609  0.08165301  0.78971537  1  1.575257  0  0.204835  0.621909  0  4.181235  0
C  C215  1  0.58416794  0.91840942  0.28965079  1  1.571051  0  0.205485  0.623358  0  4.180626  0
C  C216  1  0.11051829  0.48476420  0.08297680  1  0.006897  0  -0.005537  -0.006386  0  3.952822  0
C  C217  1  0.59545044  0.51524231  0.58304559  1  0.029663  0  -0.005889  -0.006488  0  3.951254  0
C  C218  1  0.04441203  0.48825186  0.14397473  1  -0.026992  0  -0.019158  0.064325  0  4.034662  0
C  C219  1  0.53294989  0.51166400  0.64405275  1  -0.020925  0  -0.0197  0.063723  0  4.034784  0
C  C220  1  0.09396877  0.57293218  0.04940109  1  -0.044293  0  -0.006366  -0.009968  0  3.957919  0
C  C221  1  0.66685903  0.42710542  0.54938826  1  -0.04571  0  -0.005876  -0.008578  0  3.955644  0
C  C222  1  0.96310315  0.58075839  0.17019764  1  -0.096061  0  -0.100558  -0.141542  0  4.024321  0
C  C223  1  0.54409267  0.41914451  0.67023127  1  -0.075269  0  -0.100262  -0.141317  0  4.025291  0
C  C224  1  0.06267750  0.39904161  0.17614556  1  -0.073244  0  -0.098418  -0.137158  0  4.016988  0
C  C225  1  0.46189504  0.60084606  0.67623987  1  -0.116148  0  -0.098002  -0.136112  0  4.017007  0
C  C226  1  0.19415958  0.39316846  0.05567112  1  -0.057769  0  -0.005502  -0.00783  0  3.954522  0
C  C227  1  0.58735668  0.60687288  0.55575888  1  -0.005801  0  -0.005555  -0.00856  0  3.956899  0
C  C228  1  0.21408541  0.30517729  0.08973330  1  -0.029683  0  -0.011776  0.071722  0  4.033558  0
C  C229  1  0.51917093  0.69482747  0.58984726  1  -0.078282  0  -0.011948  0.072229  0  4.033965  0
C  C230  1  0.15847679  0.56938937  0.98807186  1  0.028484  0  -0.003347  -0.008417  0  3.960891  0
C  C231  1  0.72774082  0.43070407  0.48805248  1  -0.012158  0  -0.002987  -0.008113  0  3.961705  0
C  C232  1  0.94836522  0.66577190  0.13800455  1  0.008376  0  -0.092982  -0.124744  0  3.997999  0
C  C233  1  0.61402061  0.33416442  0.63794881  1  -0.04674  0  -0.09275  -0.124577  0  3.997089  0
C  C234  1  0.01315940  0.66458793  0.07719020  1  -0.008673  0  -0.011394  0.0722  0  4.031776  0
C  C235  1  0.67749689  0.33544434  0.57711574  1  -0.004454  0  -0.011593  0.072781  0  4.030484  0
C  C236  1  0.14252314  0.65754863  0.95483168  1  -0.027116  0  -0.008881  0.07411  0  4.020278  0
C  C237  1  0.79997568  0.34255410  0.45479183  1  -0.031629  0  -0.00935  0.073162  0  4.020725  0
C  C238  1  0.14503287  0.31093258  0.15009243  1  -0.00687  0  -0.094123  -0.126041  0  4.000864  0
C  C239  1  0.45587209  0.68902217  0.65020231  1  0.033629  0  -0.093575  -0.126172  0  4.000836  0
C  C240  1  0.34366071  0.29823581  0.96746224  1  0.076922  0  -0.010517  0.070599  0  4.025217  0
C  C241  1  0.64170694  0.70191388  0.46755616  1  -0.01951  0  -0.010304  0.071046  0  4.023028  0
C  C242  1  0.99870319  0.75135000  0.04276730  1  -0.030465  0  -0.091666  -0.127195  0  3.981515  0
C  C243  1  0.74975537  0.24871689  0.54266501  1  -0.012593  0  -0.091809  -0.128609  0  3.98128  0
C  C244  1  0.25869661  0.38965119  0.99436354  1  0.009899  0  -0.003241  -0.008453  0  3.963953  0
C  C245  1  0.64821954  0.61045985  0.49442638  1  -0.050651  0  -0.002929  -0.008612  0  3.965799  0
C  C246  1  0.23959037  0.47765261  0.96029582  1  -0.018981  0  -0.0008  -0.000437  0  3.94406  0
C  C247  1  0.71710412  0.52247318  0.46033857  1  0.006449  0  -0.001272  -0.00066  0  3.946587  0
C  C248  1  0.38634929  0.38156769  0.87310311  1  -0.062979  0  -0.093744  -0.133617  0  4.007649  0
C  C249  1  0.76792729  0.61864905  0.37322591  1  -0.074931  0  -0.092846  -0.132195  0  4.006636  0
C  C250  1  0.30405729  0.47417362  0.89910467  1  -0.024902  0  -0.008783  0.077256  0  4.026112  0
C  C251  1  0.77812834  0.52603097  0.39916309  1  -0.020633  0  -0.008796  0.076913  0  4.026418  0
C  C252  1  0.06086163  0.74795699  0.98364623  1  -0.082141  0  -0.088388  -0.116344  0  3.957519  0
C  C253  1  0.80865788  0.25214037  0.48357362  1  -0.066844  0  -0.088117  -0.115678  0  3.957478  0
C  C254  1  0.36383424  0.21164644  0.00280438  1  -0.047675  0  -0.085731  -0.120832  0  3.962518  0
C  C255  1  0.57518419  0.78845990  0.50293153  1  0.0001  0  -0.08582  -0.120621  0  3.961153  0
C  C256  1  0.30128057  0.21521886  0.06198097  1  -0.074145  0  -0.09517  -0.137002  0  3.9937  0
C  C257  1  0.51615698  0.78483934  0.56209666  1  -0.067788  0  -0.095114  -0.137652  0  3.993999  0
C  C258  1  0.40607749  0.29652306  0.90602426  1  -0.053227  0  -0.091455  -0.134759  0  3.985408  0
C  C259  1  0.70256841  0.70369289  0.40614792  1  -0.017486  0  -0.092127  -0.135619  0  3.984211  0
C  C260  1  0.20840065  0.65227562  0.89373665  1  -0.031931  0  -0.089626  -0.131445  0  3.97676  0
C  C261  1  0.86052633  0.34789648  0.39369812  1  -0.080169  0  -0.089814  -0.132416  0  3.977005  0
C  C262  1  0.28597661  0.56354301  0.86700696  1  -0.03941  0  -0.092002  -0.128157  0  4.00455  0
C  C263  1  0.84931028  0.43668762  0.36701692  1  0.013235  0  -0.092088  -0.127786  0  4.004654  0
N  N264  1  0.34460466  0.41119037  0.54433721  1  -1.181478  0  -0.293491  -0.388186  0  3.22413  0
N  N265  1  0.75565629  0.58888206  0.04434964  1  -1.18588  0  -0.294153  -0.389294  0  3.223908  0
N  N266  1  0.26564276  0.58447046  0.54946974  1  -1.165134  0  -0.295937  -0.391081  0  3.225193  0
N  N267  1  0.85000192  0.41558855  0.04942547  1  -1.186137  0  -0.295646  -0.391916  0  3.224692  0
N  N268  1  0.38481158  0.50287100  0.45687075  1  -1.175143  0  -0.292439  -0.381529  0  3.221011  0
N  N269  1  0.88737636  0.49725649  0.95684005  1  -1.205865  0  -0.292812  -0.381986  0  3.219842  0
N  N270  1  0.30612627  0.85486434  0.40841833  1  -1.229102  0  -0.322245  -0.227832  0  3.483892  0
N  N271  1  0.16082444  0.14515024  0.90852569  1  -1.220167  0  -0.321887  -0.228125  0  3.482967  0
N  N272  1  0.62115496  0.15470990  0.38799710  1  -1.233757  0  -0.322853  -0.226278  0  3.48906  0
N  N273  1  0.77577761  0.84531321  0.88800519  1  -1.232278  0  -0.323655  -0.228576  0  3.490631  0
N  N274  1  0.09976274  0.48914916  0.76019638  1  -1.169492  0  -0.324647  -0.264303  0  3.299687  0
N  N275  1  0.58909324  0.51090259  0.26018876  1  -1.180356  0  -0.324743  -0.264734  0  3.300268  0
N  N276  1  0.33802973  0.15331481  0.32526224  1  -1.205327  0  -0.315536  -0.242511  0  3.469563  0
N  N277  1  0.49156462  0.84668512  0.82521282  1  -1.211798  0  -0.315191  -0.242331  0  3.467298  0
N  N278  1  0.23947954  0.50568474  0.26425713  1  -1.184146  0  -0.296876  -0.387512  0  3.200687  0
N  N279  1  0.74516698  0.49440491  0.76422510  1  -1.171421  0  -0.296764  -0.387466  0  3.201019  0
N  N280  1  0.38445648  0.41688490  0.17829592  1  -1.166963  0  -0.296598  -0.398969  0  3.221745  0
N  N281  1  0.80202903  0.58301062  0.67831405  1  -1.213285  0  -0.295927  -0.398762  0  3.221101  0
N  N282  1  0.29063533  0.59025809  0.17528242  1  -1.19784  0  -0.296585  -0.397812  0  3.237254  0
N  N283  1  0.88104018  0.40964741  0.67533321  1  -1.184751  0  -0.296724  -0.397905  0  3.236536  0
N  N284  1  0.96492228  0.86080098  0.31123398  1  -1.218925  0  -0.316893  -0.225984  0  3.464794  0
N  N285  1  0.82546028  0.13923069  0.81128946  1  -1.221293  0  -0.316899  -0.225622  0  3.467823  0
N  N286  1  0.55897516  0.50262557  0.96556977  1  -1.195801  0  -0.324783  -0.275688  0  3.308533  0
N  N287  1  0.06169666  0.49701158  0.46550725  1  -1.199104  0  -0.324207  -0.274424  0  3.30787  0
O  O288  1  0.38448208  0.02191685  0.47018428  1  -1.172883  0  -0.328954  -0.569829  0  2.271248  0
O  O289  1  0.40640900  0.97804929  0.97012224  1  -1.173599  0  -0.329116  -0.569211  0  2.270755  0
O  O290  1  0.18184654  0.12323656  0.51731422  1  -1.195835  0  -0.331822  -0.56024  0  2.169406  0
O  O291  1  0.30512304  0.87668219  0.01723707  1  -1.172369  0  -0.331841  -0.560185  0  2.169071  0
O  O292  1  0.38244276  0.08028973  0.79149206  1  -1.167088  0  -0.324228  -0.558231  0  2.317641  0
O  O293  1  0.46289228  0.91993355  0.29147993  1  -1.166828  0  -0.324185  -0.558497  0  2.318785  0
O  O294  1  0.18796375  0.99333060  0.29160684  1  -1.232699  0  -0.586939  -0.750368  0  2.071749  0
O  O295  1  0.18088607  0.00671655  0.79159041  1  -1.228648  0  -0.587413  -0.752186  0  2.069155  0
O  O296  1  0.10273624  0.09974235  0.41414189  1  -1.251171  0  -0.598697  -0.768863  0  2.105246  0
O  O297  1  0.20260523  0.90009563  0.91408685  1  -1.283583  0  -0.599133  -0.770148  0  2.10369  0
O  O298  1  0.56952540  0.05963939  0.83544728  1  -1.184112  0  -0.332353  -0.566189  0  2.302341  0
O  O299  1  0.62959104  0.94039374  0.33532875  1  -1.183512  0  -0.333365  -0.567687  0  2.302228  0
O  O300  1  0.85825226  0.91870094  0.74934973  1  -1.159824  0  -0.330339  -0.556636  0  2.184279  0
O  O301  1  0.77719569  0.08129382  0.24943140  1  -1.173148  0  -0.33012  -0.556841  0  2.18488  0
O  O302  1  0.03498644  0.89202177  0.80315258  1  -1.176979  0  -0.327567  -0.559933  0  2.21384  0
O  O303  1  0.92750432  0.10785488  0.30314381  1  -1.18329  0  -0.327141  -0.559774  0  2.213608  0
O  O304  1  0.90861362  0.01655817  0.43417936  1  -1.181503  0  -0.323905  -0.562557  0  2.275853  0
O  O305  1  0.92537069  0.98374466  0.93408727  1  -1.183841  0  -0.323903  -0.562015  0  2.274358  0
O  O306  1  0.78306355  0.92191343  0.45082463  1  -1.172869  0  -0.324322  -0.545409  0  2.174264  0
O  O307  1  0.70512102  0.07815018  0.95083208  1  -1.169024  0  -0.324271  -0.54513  0  2.174619  0
