# generated using pymatgen
data_CoH14C20N2(ClO2)2
_symmetry_space_group_name_H-M   'P 1'
_cell_length_a   7.55828510
_cell_length_b   9.77914967
_cell_length_c   13.07589536
_cell_angle_alpha   79.78862725
_cell_angle_beta   74.60820380
_cell_angle_gamma   76.39927560
_symmetry_Int_Tables_number   1
_chemical_formula_structural   CoH14C20N2(ClO2)2
_chemical_formula_sum   'Co2 H28 C40 N4 Cl4 O8'
_cell_volume   898.86209007
_cell_formula_units_Z   2
loop_
 _symmetry_equiv_pos_site_id
 _symmetry_equiv_pos_as_xyz
  1  'x, y, z'
loop_
 _atom_site_type_symbol
 _atom_site_label
 _atom_site_symmetry_multiplicity
 _atom_site_fract_x
 _atom_site_fract_y
 _atom_site_fract_z
 _atom_site_occupancy
 _atom_site_hle17_ddec_charge
 _atom_site_hle17_ddec_spin_density
 _atom_site_hle17_ddec_sum_bond_order
 _atom_site_hle17_magmom
 _atom_site_hse06_10hf_ddec_charge
 _atom_site_hse06_10hf_ddec_spin_density
 _atom_site_hse06_10hf_ddec_sum_bond_order
 _atom_site_hse06_10hf_magmom
 _atom_site_hse06_ddec_charge
 _atom_site_hse06_ddec_spin_density
 _atom_site_hse06_ddec_sum_bond_order
 _atom_site_hse06_magmom
 _atom_site_pbe_cm5_charge
 _atom_site_pbe_ddec_charge
 _atom_site_pbe_ddec_spin_density
 _atom_site_pbe_ddec_sum_bond_order
 _atom_site_pbe_magmom
Co  Co0  1  0.28839761  0.66887174  0.55353583  1  1.000834  3.016706  2.028562  2.587  0.960509  2.919218  2.451312  2.646  1.03598  2.944235  2.37827  2.719  0.685724  0.893461  2.884431  2.516865  2.573
Co  Co1  1  0.72409329  0.30686159  0.45174021  1  0.804927  -1.280316  2.402981  -1.067  0.786156  -1.093029  2.863456  -0.964  0.850007  -1.076087  2.783518  -0.963  0.690809  0.748136  -1.088092  2.912349  -0.944
H  H2  1  0.03477126  0.44303005  0.86207737  1  0.115353  0.000196  0.958866  0.0  0.120304  0.000159  1.029062  0.0  0.124397  9.2e-05  1.025688  0.0  0.10305  0.117471  0.000229  1.031292  0.0
H  H3  1  0.94799310  0.54726228  0.15974780  1  0.117625  -5e-06  0.950588  0.0  0.123307  4.9e-05  1.020077  0.0  0.127525  4.5e-05  1.016689  0.0  0.104755  0.120408  3.9e-05  1.022316  0.0
H  H4  1  0.01733654  0.75234300  0.76573391  1  0.077585  0.000656  0.958133  0.002  0.086423  0.000551  1.023246  0.001  0.088527  0.000378  1.021472  0.001  0.107719  0.084416  0.000715  1.025571  0.001
H  H5  1  0.97200841  0.25037205  0.23639735  1  0.088529  -0.000315  0.960881  -0.001  0.097979  5.6e-05  1.023321  0.0  0.100544  3.8e-05  1.020322  0.0  0.112791  0.095792  5.5e-05  1.02623  0.0
H  H6  1  0.42175961  0.42039171  0.80236085  1  0.127536  -4.1e-05  0.938223  0.0  0.136338  -1.4e-05  1.002135  0.0  0.140318  -4.1e-05  0.99949  0.0  0.109824  0.133461  1.9e-05  1.004108  0.0
H  H7  1  0.57402941  0.59475789  0.18435105  1  0.118966  6.5e-05  0.937898  0.0  0.128988  3e-05  1.000491  0.0  0.132628  2.9e-05  0.99807  0.0  0.108657  0.126381  1.8e-05  1.002397  0.0
H  H8  1  0.09710800  0.20512136  0.54494110  1  0.139224  1e-05  0.983757  0.0  0.144386  -0.000177  1.047777  0.0  0.149948  -0.000215  1.043142  0.0  0.116143  0.140095  -0.000141  1.051819  0.0
H  H9  1  0.90624278  0.79078726  0.45178722  1  0.1392  9.4e-05  0.949917  0.001  0.148804  -0.000165  1.007644  0.0  0.153506  -0.000136  1.004135  0.0  0.119502  0.145201  -0.000201  1.010535  0.0
H  H10  1  0.53629204  0.14404865  0.23523356  1  0.098052  0.000266  0.950922  0.001  0.104466  -8e-05  1.020735  0.0  0.108385  -5.4e-05  1.017149  0.0  0.09954  0.101292  -0.000104  1.023838  0.0
H  H11  1  0.46055065  0.86370388  0.76790714  1  0.096944  -0.000343  0.946831  -0.001  0.105294  2.6e-05  1.012876  0.0  0.109186  -1.2e-05  1.008811  0.0  0.099231  0.102121  5.3e-05  1.016399  0.0
H  H12  1  0.65390084  0.84461939  0.11315775  1  0.097171  0.000222  0.983222  0.0  0.114565  6.7e-05  1.055788  0.0  0.115764  7.1e-05  1.055547  0.0  0.079562  0.113445  5.8e-05  1.056119  0.0
H  H13  1  0.34130278  0.16478134  0.87974173  1  0.098349  -0.00014  0.98498  0.0  0.115808  -6e-06  1.056936  0.0  0.116997  -2e-05  1.0569  0.0  0.07963  0.114712  1.4e-05  1.057074  0.0
H  H14  1  0.83693208  0.80288851  0.18107103  1  0.105687  0.000285  0.976724  0.0  0.127129  0.000123  1.040861  0.0  0.127532  8.9e-05  1.042237  0.0  0.085641  0.126538  0.000148  1.040187  0.0
H  H15  1  0.16279150  0.21170834  0.80852605  1  0.112913  -0.000134  0.970795  0.0  0.13483  -1.7e-05  1.032611  0.0  0.135622  -1.9e-05  1.033724  0.0  0.089572  0.133902  -1.7e-05  1.032305  0.0
H  H16  1  0.76538107  0.98018064  0.12402879  1  0.105788  0.00011  0.960507  0.0  0.125477  8.8e-05  1.02515  0.0  0.126762  6e-05  1.025303  0.0  0.086978  0.124525  0.000116  1.024995  0.0
H  H17  1  0.22322453  0.03370581  0.86818355  1  0.105603  2e-05  0.957177  0.0  0.125297  2.3e-05  1.02142  0.0  0.126595  1.8e-05  1.021658  0.0  0.087471  0.12441  2.7e-05  1.021144  0.0
H  H18  1  0.88299924  0.20920093  0.72395844  1  0.094233  0.000224  0.96309  0.001  0.106112  -2.5e-05  1.023909  0.0  0.107778  -3e-06  1.02428  0.0  0.102387  0.104425  -5.4e-05  1.024525  0.0
H  H19  1  0.11909890  0.79309834  0.27022522  1  0.093468  -0.000502  0.968934  -0.001  0.104162  2.9e-05  1.03266  0.0  0.105965  -1.4e-05  1.032231  0.0  0.100011  0.102428  6.8e-05  1.033606  0.0
H  H20  1  0.30301851  0.18634720  0.40441176  1  0.12955  0.000265  0.988358  0.0  0.136781  0.00036  1.048795  0.0  0.140667  0.000282  1.047719  0.0  0.11226  0.13369  0.000443  1.049929  0.001
H  H21  1  0.70185788  0.81175479  0.60116426  1  0.130332  0.000148  0.967059  0.001  0.137895  -4.9e-05  1.028302  0.0  0.141863  -8.3e-05  1.026525  0.0  0.112231  0.134696  -3.3e-05  1.029891  0.0
H  H22  1  0.58300407  0.69453106  0.33710095  1  0.093254  0.000719  0.937736  0.002  0.102228  0.000506  0.999829  0.001  0.105733  0.000354  0.996721  0.001  0.118096  0.099249  0.000656  1.002784  0.001
H  H23  1  0.41511341  0.30960557  0.65160994  1  0.105611  -5.1e-05  0.94888  0.0  0.112105  0.000187  1.013799  0.0  0.115359  0.000118  1.009915  0.0  0.122602  0.109305  0.000241  1.017246  0.0
H  H24  1  0.79992844  0.87348184  0.91110293  1  0.095445  1.5e-05  0.996642  0.0  0.113487  2.8e-05  1.066027  0.0  0.115043  1.7e-05  1.065507  0.0  0.075641  0.112224  3.9e-05  1.066511  0.0
H  H25  1  0.17733392  0.13615474  0.08664294  1  0.096484  -2.5e-05  0.99672  0.0  0.114264  -6e-06  1.066113  0.0  0.115894  -6e-06  1.065553  0.0  0.076063  0.112982  -1e-05  1.066542  0.0
H  H26  1  0.67145888  0.04311383  0.87130820  1  0.110672  0.000189  0.958949  0.0  0.13236  8.4e-05  1.021296  0.0  0.132738  6.4e-05  1.022783  0.0  0.088192  0.132129  0.000101  1.019916  0.0
H  H27  1  0.32352563  0.97387436  0.12441543  1  0.111193  -0.000301  0.959624  -0.001  0.133201  -8.1e-05  1.021596  0.0  0.13387  -6.4e-05  1.022898  0.0  0.087792  0.132777  -8.5e-05  1.020359  0.0
H  H28  1  0.86804536  0.02982626  0.92395826  1  0.10803  0.000189  0.947918  0.0  0.130277  7.8e-05  1.010735  0.0  0.131174  6.4e-05  1.01097  0.0  0.088412  0.129425  8.6e-05  1.010667  0.0
H  H29  1  0.12764409  0.97181011  0.07539732  1  0.107464  -0.000253  0.951461  0.0  0.128687  -3.1e-05  1.015834  0.0  0.12973  -3.8e-05  1.016071  0.0  0.087368  0.127803  -6e-06  1.015722  0.0
C  C30  1  0.69062682  0.47776434  0.73072131  1  -0.015101  0.002201  3.667544  0.003  -0.006442  0.001766  3.905476  0.003  -0.006875  0.001137  3.920895  0.002  0.003325  -0.006559  0.002286  3.896043  0.003
C  C31  1  0.31928982  0.52239408  0.26823975  1  -0.016111  0.000143  3.675901  0.001  -0.005927  -0.000481  3.912539  0.0  -0.006689  -0.000171  3.928873  0.0  0.003558  -0.006109  -0.000996  3.902375  -0.001
C  C32  1  0.01058594  0.54817038  0.66358056  1  0.627256  -0.005566  3.9156  -0.009  0.585024  -0.001126  4.210272  -0.003  0.619971  -0.001001  4.205619  -0.003  0.198727  0.560284  -0.001498  4.211783  -0.005
C  C33  1  0.02153687  0.43228891  0.35286338  1  0.61815  0.001475  3.89857  0.001  0.574299  0.000225  4.19921  0.001  0.609818  -3e-05  4.19505  0.0  0.206692  0.54972  0.000522  4.202026  0.001
C  C34  1  0.90158820  0.43502730  0.84876454  1  -0.136229  -0.001121  3.772303  -0.001  -0.171025  6.8e-05  4.035312  0.0  -0.170923  -5.3e-05  4.053511  0.0  -0.094193  -0.170828  2.1e-05  4.02326  0.0
C  C35  1  0.08323808  0.56146441  0.16598583  1  -0.136568  0.001362  3.767384  0.002  -0.17153  0.00044  4.031277  0.001  -0.171026  0.000441  4.048482  0.001  -0.09435  -0.171609  0.000471  4.019519  0.001
C  C36  1  0.17655841  0.97569648  0.56145437  1  0.173648  -0.007127  3.768395  -0.009  0.169294  -0.002139  4.017676  -0.003  0.177  -0.001583  4.037371  -0.002  0.117159  0.163603  -0.003134  4.004493  -0.003
C  C37  1  0.82546483  0.01876700  0.43882963  1  0.154132  0.017457  3.774475  0.022  0.149319  0.005076  4.024213  0.006  0.159653  0.002909  4.040253  0.004  0.110504  0.142443  0.006114  4.013662  0.007
C  C38  1  0.03345821  0.85538945  0.72025647  1  0.067375  -0.009078  3.677615  -0.012  0.034387  -0.002375  3.930248  -0.003  0.042247  -0.00184  3.946823  -0.003  0.039211  0.028067  -0.003171  3.91992  -0.004
C  C39  1  0.96072965  0.14614513  0.28041314  1  0.058638  0.018611  3.63806  0.023  0.022937  0.005312  3.889677  0.006  0.035653  0.003344  3.900771  0.004  0.037349  0.013909  0.006062  3.883385  0.007
C  C40  1  0.55795558  0.42291073  0.81487607  1  -0.14695  0.001616  3.71462  0.002  -0.182538  0.00063  3.977592  0.001  -0.185887  0.000489  3.995909  0.001  -0.092218  -0.180211  0.000838  3.965513  0.001
C  C41  1  0.43446604  0.58748713  0.18034002  1  -0.144195  -0.00166  3.738319  -0.002  -0.180938  -0.000764  4.00441  -0.001  -0.184055  -0.000708  4.023178  -0.001  -0.092603  -0.178784  -0.00082  3.992204  -0.001
C  C42  1  0.08066476  0.10624090  0.59646066  1  -0.133622  0.005615  3.679204  0.008  -0.15747  0.000968  3.938043  0.002  -0.163389  0.000618  3.953436  0.002  -0.077773  -0.15434  0.001272  3.929861  0.003
C  C43  1  0.92213979  0.89042043  0.40118743  1  -0.116078  -0.011089  3.681991  -0.015  -0.140429  -0.001877  3.93892  -0.003  -0.146106  -0.001523  3.951882  -0.002  -0.072953  -0.137247  -0.0017  3.931192  -0.003
C  C44  1  0.31201546  0.96240300  0.45826831  1  0.157855  -0.008577  3.782144  -0.011  0.155237  -0.002835  4.030009  -0.004  0.160423  -0.002404  4.051225  -0.004  0.113091  0.151469  -0.003638  4.015756  -0.004
C  C45  1  0.69131982  0.03287235  0.54046696  1  0.150167  0.009934  3.778674  0.011  0.146079  0.002901  4.026858  0.003  0.154024  0.001546  4.044396  0.002  0.109798  0.141022  0.003372  4.015375  0.004
C  C46  1  0.49470477  0.05405904  0.29127790  1  -0.06346  -0.012372  3.682996  -0.015  -0.088068  -0.004737  3.929821  -0.005  -0.084884  -0.003601  3.946328  -0.004  -0.075174  -0.091489  -0.006813  3.920561  -0.008
C  C47  1  0.50423884  0.95035572  0.70863686  1  -0.068043  0.013917  3.683026  0.017  -0.092991  0.003753  3.930547  0.004  -0.086726  0.002028  3.94339  0.002  -0.076075  -0.097956  0.0051  3.923004  0.006
C  C48  1  0.93637215  0.98081576  0.76251929  1  0.090549  0.006829  3.759343  0.01  0.121214  0.002305  3.993508  0.004  0.116859  0.001949  4.018727  0.003  -0.007894  0.123777  0.002495  3.977389  0.004
C  C49  1  0.05830786  0.02215779  0.23649979  1  0.098211  -0.009238  3.755852  -0.013  0.128625  -0.00129  3.990951  -0.002  0.123919  -0.001247  4.013232  -0.002  -0.006795  0.131348  -0.00092  3.976442  -0.002
C  C50  1  0.63590026  0.51608709  0.62437198  1  0.684711  0.000268  3.850242  -0.001  0.64405  0.002439  4.146938  0.003  0.684157  0.002052  4.136217  0.003  0.235314  0.615299  0.002489  4.151893  0.003
C  C51  1  0.39742055  0.46959640  0.36649226  1  0.679736  -0.00128  3.884686  0.001  0.636229  -0.000306  4.18646  0.002  0.676293  0.000278  4.176406  0.003  0.224181  0.607337  -0.001248  4.190604  0.001
C  C52  1  0.77129664  0.37792003  0.93169818  1  0.054795  0.0016  3.8391  0.002  0.056755  0.000661  4.116483  0.001  0.057434  0.000502  4.138204  0.001  -0.003652  0.05635  0.000908  4.101318  0.001
C  C53  1  0.19780515  0.62736070  0.07888502  1  0.052571  -0.001696  3.84192  -0.002  0.055171  -0.000832  4.118879  -0.001  0.055671  -0.000731  4.140921  -0.001  -0.003297  0.054894  -0.000935  4.103634  -0.001
C  C54  1  0.71560573  0.88419748  0.16664482  1  -0.33808  0.000274  3.741068  0.0  -0.418799  0.000401  3.971873  0.0  -0.421041  0.000276  3.983452  0.0  -0.245242  -0.416705  0.000523  3.964249  0.0
C  C55  1  0.27924808  0.12717334  0.82538129  1  -0.337519  0.000253  3.730828  0.001  -0.418337  7.7e-05  3.961745  0.0  -0.420986  5.5e-05  3.97293  0.0  -0.24476  -0.415984  8.1e-05  3.954333  0.0
C  C56  1  0.95987586  0.10805342  0.69676393  1  -0.048583  -0.010095  3.673939  -0.012  -0.071385  -0.003715  3.918415  -0.004  -0.067238  -0.002455  3.935461  -0.003  -0.070476  -0.075005  -0.005545  3.90874  -0.006
C  C57  1  0.04055087  0.89231160  0.30006895  1  -0.060178  0.022438  3.675302  0.027  -0.083252  0.006274  3.9215  0.007  -0.074354  0.003435  3.933437  0.004  -0.074838  -0.089388  0.00802  3.914259  0.009
C  C58  1  0.36366713  0.07831058  0.38660145  1  -0.114197  0.007552  3.673165  0.01  -0.13571  0.002385  3.923616  0.003  -0.14115  0.002225  3.942768  0.003  -0.078793  -0.132603  0.002731  3.91221  0.004
C  C59  1  0.63857982  0.92077479  0.61550313  1  -0.10352  -0.004668  3.677122  -0.007  -0.125961  -0.000444  3.930215  -0.001  -0.130963  -0.00051  3.946397  -0.001  -0.07467  -0.123072  -0.000116  3.920141  -0.001
C  C60  1  0.51995879  0.80531650  0.34684104  1  0.077526  -0.012425  3.650098  -0.016  0.046268  -0.004193  3.900166  -0.006  0.054422  -0.003649  3.914626  -0.005  0.045359  0.039251  -0.005313  3.89201  -0.007
C  C61  1  0.47935644  0.19845767  0.64517276  1  0.072161  0.013995  3.600911  0.016  0.038694  0.00442  3.850439  0.005  0.05114  0.002858  3.861278  0.003  0.04766  0.029181  0.005485  3.845528  0.006
C  C62  1  0.57576214  0.91516747  0.26910461  1  0.090782  0.008562  3.754332  0.012  0.122337  0.002964  3.986862  0.005  0.117907  0.002793  4.012684  0.004  -0.007687  0.12498  0.003032  3.970606  0.005
C  C63  1  0.42205188  0.09123595  0.72497614  1  0.097318  -0.003468  3.75342  -0.005  0.128476  0.000226  3.986463  0.0  0.124255  -0.000131  4.009647  0.0  -0.003968  0.131093  0.000672  3.971517  0.0
C  C64  1  0.81228543  0.98093587  0.87282243  1  -0.340365  0.00031  3.751059  0.0  -0.423691  0.000388  3.985443  0.0  -0.425841  0.000275  3.996991  0.0  -0.246672  -0.421632  0.000494  3.977527  0.001
C  C65  1  0.17810899  0.02710369  0.12498789  1  -0.341957  0.000423  3.75027  0.001  -0.425592  -2e-05  3.984829  0.0  -0.428223  -2e-05  3.99616  0.0  -0.246037  -0.42321  -3.6e-05  3.976959  0.0
C  C66  1  0.59828935  0.37094730  0.91431918  1  0.076762  -0.001421  3.820699  -0.002  0.078271  -0.000278  4.099194  0.0  0.081713  -0.000267  4.120637  0.0  0.005083  0.07591  -0.000469  4.084276  -0.001
C  C67  1  0.37423001  0.64175676  0.08656944  1  0.073398  0.001367  3.819564  0.002  0.075014  0.000349  4.097722  0.001  0.077926  0.000362  4.119742  0.001  0.003871  0.072947  0.000363  4.082515  0.001
C  C68  1  0.86462266  0.48416938  0.74764966  1  -0.058501  0.003054  3.708436  0.004  -0.046759  0.001543  3.945141  0.002  -0.051989  0.001032  3.963256  0.001  -0.013064  -0.044225  0.002098  3.935081  0.003
C  C69  1  0.14111521  0.51004060  0.26124266  1  -0.056059  -0.000389  3.711723  0.0  -0.044481  -0.000318  3.947881  0.0  -0.04986  -0.000288  3.966191  0.0  -0.011018  -0.04111  -0.000476  3.936548  -0.001
N  N70  1  0.38992305  0.82759935  0.43766956  1  -0.340723  0.043492  3.341477  0.073  -0.300026  0.030346  3.628547  0.05  -0.321176  0.025757  3.642664  0.043  -0.322394  -0.28392  0.033887  3.618822  0.055
N  N71  1  0.61359733  0.17080119  0.55611908  1  -0.279764  0.011293  3.379528  0.015  -0.240599  0.007073  3.675892  0.012  -0.265077  0.005708  3.688972  0.01  -0.33565  -0.226479  0.007452  3.667958  0.012
N  N72  1  0.14945826  0.85181574  0.62256229  1  -0.345081  0.043192  3.331273  0.067  -0.303189  0.030488  3.622154  0.044  -0.326196  0.025138  3.637339  0.036  -0.325404  -0.284969  0.034891  3.610665  0.051
N  N73  1  0.84871683  0.14618796  0.37984074  1  -0.277847  0.00438  3.369769  0.006  -0.238036  0.000364  3.666338  0.003  -0.26179  -0.000271  3.677885  0.003  -0.335194  -0.22338  0.000345  3.657705  0.003
Cl  Cl74  1  0.43567424  0.29842326  0.01524645  1  -0.064255  -0.00012  1.454261  0.0  -0.041758  -3.8e-05  1.698959  0.0  -0.045876  -3.3e-05  1.695422  0.0  0.032832  -0.03851  -9.7e-05  1.701274  0.0
Cl  Cl75  1  0.51911266  0.72312170  0.98021087  1  -0.066634  0.000108  1.443605  0.0  -0.045487  6e-05  1.688377  0.0  -0.050114  5.4e-05  1.68509  0.0  0.031883  -0.041736  5.3e-05  1.690534  0.0
Cl  Cl76  1  0.82172671  0.31875764  0.05515466  1  -0.063681  0.000417  1.413375  0.0  -0.045151  0.000313  1.658763  0.0  -0.047613  0.000175  1.652822  0.0  0.025553  -0.043284  0.000497  1.662828  0.0
Cl  Cl77  1  0.12597530  0.68513333  0.96113505  1  -0.06867  -0.000208  1.418722  0.0  -0.052042  -0.000166  1.665092  0.0  -0.05547  -0.00013  1.660113  0.0  0.021574  -0.049369  -0.000195  1.668687  0.0
O  O78  1  0.17721493  0.52257598  0.67912586  1  -0.626914  0.040655  1.995657  0.066  -0.59044  0.029287  2.252217  0.046  -0.625862  0.022973  2.243208  0.036  -0.325812  -0.5618  0.035334  2.257036  0.055
O  O79  1  0.85361406  0.43421932  0.34396657  1  -0.561172  0.014715  2.093129  0.023  -0.537612  0.006944  2.374799  0.012  -0.580732  0.006305  2.36886  0.011  -0.31306  -0.508625  0.006156  2.377819  0.01
O  O80  1  0.51979421  0.63098494  0.61236692  1  -0.596914  0.042452  2.098331  0.068  -0.567498  0.031003  2.372344  0.047  -0.605853  0.023676  2.35974  0.035  -0.302295  -0.534356  0.039041  2.37771  0.059
O  O81  1  0.52300503  0.35770503  0.36052814  1  -0.573535  -0.035619  2.065418  -0.058  -0.546025  -0.025211  2.335659  -0.042  -0.584074  -0.020061  2.327037  -0.033  -0.291903  -0.514427  -0.030979  2.336846  -0.051
O  O82  1  0.96595745  0.63096397  0.58477422  1  -0.589038  0.022839  1.956991  0.038  -0.553589  0.01956  2.194917  0.032  -0.583359  0.014121  2.187926  0.023  -0.294452  -0.52857  0.026241  2.19748  0.043
O  O83  1  0.09152696  0.36616075  0.42794623  1  -0.55651  -0.00196  2.007001  -0.002  -0.513176  -0.003975  2.232298  -0.005  -0.537837  -0.003394  2.224855  -0.004  -0.284355  -0.495859  -0.004881  2.237231  -0.006
O  O84  1  0.69996483  0.42049860  0.56288968  1  -0.572196  -0.009194  2.200123  -0.009  -0.542619  -0.009355  2.495848  -0.008  -0.580119  -0.006876  2.481516  -0.005  -0.294896  -0.515023  -0.011943  2.50325  -0.012
O  O85  1  0.34660221  0.54707047  0.44090011  1  -0.623516  0.047622  2.205439  0.073  -0.596726  0.037485  2.507857  0.055  -0.637169  0.029308  2.492211  0.041  -0.310758  -0.561409  0.046759  2.51556  0.069
