# generated using pymatgen
data_CdH12C12N2(ClO)2
_symmetry_space_group_name_H-M   'P 1'
_cell_length_a   3.91658771
_cell_length_b   8.02401284
_cell_length_c   9.95689218
_cell_angle_alpha   84.58811321
_cell_angle_beta   82.32256715
_cell_angle_gamma   83.97910994
_symmetry_Int_Tables_number   1
_chemical_formula_structural   CdH12C12N2(ClO)2
_chemical_formula_sum   'Cd1 H12 C12 N2 Cl2 O2'
_cell_volume   307.37176963
_cell_formula_units_Z   1
loop_
 _symmetry_equiv_pos_site_id
 _symmetry_equiv_pos_as_xyz
  1  'x, y, z'
loop_
 _atom_site_type_symbol
 _atom_site_label
 _atom_site_symmetry_multiplicity
 _atom_site_fract_x
 _atom_site_fract_y
 _atom_site_fract_z
 _atom_site_occupancy
 _atom_site_hle17_bader_spin_density
 _atom_site_hle17_ddec_charge
 _atom_site_hle17_ddec_spin_density
 _atom_site_hle17_ddec_sum_bond_order
 _atom_site_hle17_magmom
 _atom_site_hse06_10hf_bader_spin_density
 _atom_site_hse06_10hf_ddec_charge
 _atom_site_hse06_10hf_ddec_spin_density
 _atom_site_hse06_10hf_ddec_sum_bond_order
 _atom_site_hse06_10hf_magmom
 _atom_site_hse06_bader_spin_density
 _atom_site_hse06_ddec_charge
 _atom_site_hse06_ddec_spin_density
 _atom_site_hse06_ddec_sum_bond_order
 _atom_site_hse06_magmom
 _atom_site_pbe_bader_spin_density
 _atom_site_pbe_cm5_charge
 _atom_site_pbe_ddec_charge
 _atom_site_pbe_ddec_spin_density
 _atom_site_pbe_ddec_sum_bond_order
 _atom_site_pbe_magmom
Cd  Cd0  1  0.49999667  0.50000127  0.49999978  1  0  0.986888  0  1.879349  0  0  0.825813  0  2.331275  0  0  0.874821  0  2.289868  0  0  0.604718  0.790949  0  2.360058  0
H  H1  1  0.89585429  0.11208153  0.62486436  1  0  0.080324  0  0.945803  0  0  0.09697  0  1.006823  0  0  0.096957  0  1.00784  0  0  0.098319  0.096881  0  1.006249  0
H  H2  1  0.10414464  0.88791850  0.37513307  1  0  0.0803  0  0.945809  0  0  0.096965  0  1.006799  0  0  0.096955  0  1.007817  0  0  0.098305  0.096876  0  1.006222  0
H  H3  1  0.51501240  0.10491265  0.55053903  1  0  0.067174  0  0.965042  0  0  0.082393  0  1.032195  0  0  0.082792  0  1.031937  0  0  0.093065  0.082122  0  1.032393  0
H  H4  1  0.48498118  0.89508864  0.44946061  1  0  0.067191  0  0.96501  0  0  0.082385  0  1.032198  0  0  0.082785  0  1.031939  0  0  0.093061  0.082112  0  1.032395  0
H  H5  1  0.30747349  0.90808463  0.73337534  1  0  0.068744  0  0.943364  0  0  0.079415  0  1.013508  0  0  0.079724  0  1.013399  0  0  0.09798  0.079091  0  1.013775  0
H  H6  1  0.69252572  0.09191414  0.26662419  1  0  0.068744  0  0.943369  0  0  0.07941  0  1.013534  0  0  0.079719  0  1.013423  0  0  0.097988  0.079085  0  1.013797  0
H  H7  1  0.68969658  0.91696397  0.81138766  1  0  0.073243  0  0.936573  0  0  0.083307  0  1.004784  0  0  0.084018  0  1.004129  0  0  0.100745  0.083008  0  1.004848  0
H  H8  1  0.31030497  0.08303605  0.18861164  1  0  0.07324  0  0.936617  0  0  0.083333  0  1.004798  0  0  0.084043  0  1.004146  0  0  0.10074  0.083032  0  1.004862  0
H  H9  1  0.42332292  0.59124976  0.80397598  1  0  0.096686  0  0.981127  0  0  0.102657  0  1.051735  0  0  0.105452  0  1.050641  0  0  0.092256  0.100641  0  1.052524  0
H  H10  1  0.57667324  0.40875153  0.19602353  1  0  0.096674  0  0.981146  0  0  0.102669  0  1.05173  0  0  0.105464  0  1.050638  0  0  0.092249  0.100654  0  1.052517  0
H  H11  1  0.84913743  0.20515544  0.03066483  1  0  0.105697  0  0.961937  0  0  0.110848  0  1.031537  0  0  0.11479  0  1.0285  0  0  0.106447  0.107991  0  1.034058  0
H  H12  1  0.15085898  0.79484459  0.96933576  1  0  0.105695  0  0.961949  0  0  0.110845  0  1.031549  0  0  0.114787  0  1.028511  0  0  0.106448  0.107987  0  1.034073  0
C  C13  1  0.61328136  0.11896796  0.64667437  1  0  -0.016158  0  3.661986  0  0  -0.071569  0  3.922158  0  0  -0.067381  0  3.93304  0  0  -0.084479  -0.074341  0  3.914808  0
C  C14  1  0.38671761  0.88103207  0.35332508  1  0  -0.016145  0  3.661946  0  0  -0.071541  0  3.922081  0  0  -0.067357  0  3.93297  0  0  -0.08447  -0.074308  0  3.91472  0
C  C15  1  0.48324190  0.99223601  0.76276433  1  0  0.067473  0  3.520233  0  0  0.008291  0  3.787316  0  0  0.016444  0  3.790299  0  0  -0.068465  0.002827  0  3.785243  0
C  C16  1  0.51675965  0.00776401  0.23723497  1  0  0.067475  0  3.520275  0  0  0.008256  0  3.787362  0  0  0.016405  0  3.790356  0  0  -0.068458  0.002791  0  3.785288  0
C  C17  1  0.31172705  0.26110871  0.81316331  1  0  0.439932  0  3.739286  0  0  0.39903  0  4.015661  0  0  0.423664  0  4.020464  0  0  0.235655  0.382067  0  4.0122  0
C  C18  1  0.68827478  0.73889005  0.18683808  1  0  0.439859  0  3.739387  0  0  0.398946  0  4.015767  0  0  0.423581  0  4.020571  0  0  0.235619  0.381978  0  4.012308  0
C  C19  1  0.14822243  0.38573709  0.90599400  1  0  -0.022098  0  3.773402  0  0  -0.002619  0  4.006931  0  0  -0.007408  0  4.028993  0  0  -0.004875  0.001293  0  3.991862  0
C  C20  1  0.85178197  0.61426167  0.09400725  1  0  -0.022106  0  3.773454  0  0  -0.002628  0  4.006978  0  0  -0.00742  0  4.029043  0  0  -0.00492  0.001288  0  3.991909  0
C  C21  1  0.23277460  0.55249163  0.88794935  1  0  -0.061837  0  3.72612  0  0  -0.081952  0  3.969754  0  0  -0.083164  0  3.991098  0  0  -0.080802  -0.080122  0  3.954605  0
C  C22  1  0.76722697  0.44750839  0.11205096  1  0  -0.061798  0  3.726143  0  0  -0.081925  0  3.969754  0  0  -0.08314  0  3.991105  0  0  -0.08078  -0.0801  0  3.954602  0
C  C23  1  0.91565574  0.33446718  0.01871793  1  0  -0.083638  0  3.705062  0  0  -0.109821  0  3.961286  0  0  -0.110906  0  3.980539  0  0  -0.084295  -0.110384  0  3.948601  0
C  C24  1  0.08434582  0.66553284  0.98128237  1  0  -0.083635  0  3.705054  0  0  -0.109806  0  3.961266  0  0  -0.110891  0  3.980518  0  0  -0.084285  -0.110363  0  3.948564  0
N  N25  1  0.48032830  0.28548602  0.69318945  1  0  -0.457603  0  3.028077  0  0  -0.393431  0  3.306673  0  0  -0.417197  0  3.320677  0  0  -0.359467  -0.377119  0  3.296917  0
N  N26  1  0.51967585  0.71451400  0.30681072  1  0  -0.457564  0  3.0281  0  0  -0.393406  0  3.306705  0  0  -0.417168  0  3.320701  0  0  -0.359463  -0.377102  0  3.296968  0
Cl  Cl27  1  0.91851507  0.67418994  0.60329351  1  0  -0.553282  0  1.023391  0  0  -0.48846  0  1.318515  0  0  -0.5087  0  1.299573  0  0  -0.274074  -0.474369  0  1.331349  0
Cl  Cl28  1  0.08148087  0.32581260  0.39670692  1  0  -0.553284  0  1.02339  0  0  -0.488472  0  1.318531  0  0  -0.5087  0  1.299565  0  0  -0.274086  -0.474381  0  1.331366  0
O  O29  1  0.28880156  0.09829196  0.86414854  1  0  -0.298104  0  2.190377  0  0  -0.227968  0  2.426461  0  0  -0.246502  0  2.424523  0  0  -0.170347  -0.21506  0  2.427579  0
O  O30  1  0.71119767  0.90170681  0.13585199  1  0  -0.298084  0  2.190392  0  0  -0.227935  0  2.426479  0  0  -0.246468  0  2.424542  0  0  -0.170331  -0.215024  0  2.427594  0
