# generated using pymatgen
data_CdH3C7NO4
_symmetry_space_group_name_H-M   'P 1'
_cell_length_a   7.91970451
_cell_length_b   8.73534166
_cell_length_c   10.78746937
_cell_angle_alpha   112.78786687
_cell_angle_beta   89.99942752
_cell_angle_gamma   90.00094445
_symmetry_Int_Tables_number   1
_chemical_formula_structural   CdH3C7NO4
_chemical_formula_sum   'Cd4 H12 C28 N4 O16'
_cell_volume   688.03978865
_cell_formula_units_Z   4
loop_
 _symmetry_equiv_pos_site_id
 _symmetry_equiv_pos_as_xyz
  1  'x, y, z'
loop_
 _atom_site_type_symbol
 _atom_site_label
 _atom_site_symmetry_multiplicity
 _atom_site_fract_x
 _atom_site_fract_y
 _atom_site_fract_z
 _atom_site_occupancy
 _atom_site_hle17_bader_spin_density
 _atom_site_hle17_ddec_charge
 _atom_site_hle17_ddec_spin_density
 _atom_site_hle17_ddec_sum_bond_order
 _atom_site_hle17_magmom
 _atom_site_hse06_10hf_bader_spin_density
 _atom_site_hse06_10hf_ddec_charge
 _atom_site_hse06_10hf_ddec_spin_density
 _atom_site_hse06_10hf_ddec_sum_bond_order
 _atom_site_hse06_10hf_magmom
 _atom_site_hse06_bader_spin_density
 _atom_site_hse06_ddec_charge
 _atom_site_hse06_ddec_spin_density
 _atom_site_hse06_ddec_sum_bond_order
 _atom_site_hse06_magmom
 _atom_site_pbe_bader_spin_density
 _atom_site_pbe_cm5_charge
 _atom_site_pbe_ddec_charge
 _atom_site_pbe_ddec_spin_density
 _atom_site_pbe_ddec_sum_bond_order
 _atom_site_pbe_magmom
Cd  Cd0  1  0.13410384  0.03467434  0.36144150  1  0  1.243413  0  1.591693  0  0  1.059591  0  2.041711  0  0  1.116766  0  1.985062  0  0  0.799919  1.018207  0  2.080986  0
Cd  Cd1  1  0.63410171  0.46532698  0.63855571  1  0  1.243393  0  1.591762  0  0  1.059564  0  2.041803  0  0  1.116739  0  1.985151  0  0  0.799883  1.01818  0  2.081079  0
Cd  Cd2  1  0.86589641  0.96532457  0.63856103  1  0  1.243394  0  1.591785  0  0  1.05957  0  2.041812  0  0  1.116744  0  1.985161  0  0  0.7999  1.018186  0  2.081089  0
Cd  Cd3  1  0.36589853  0.53467799  0.36144397  1  0  1.2434  0  1.591814  0  0  1.059571  0  2.041858  0  0  1.116745  0  1.985205  0  0  0.799875  1.018188  0  2.081132  0
H  H4  1  0.56886473  0.16639446  0.02292969  1  0  0.096001  0  0.966127  0  0  0.108172  0  1.027046  0  0  0.110263  0  1.026232  0  0  0.108483  0.106534  0  1.027895  0
H  H5  1  0.06885363  0.33360112  0.97706998  1  0  0.095997  0  0.966212  0  0  0.108161  0  1.027139  0  0  0.110252  0  1.026326  0  0  0.108473  0.106524  0  1.027987  0
H  H6  1  0.43113678  0.83360545  0.97706571  1  0  0.096036  0  0.966099  0  0  0.108207  0  1.02701  0  0  0.110298  0  1.026195  0  0  0.108492  0.106569  0  1.027858  0
H  H7  1  0.93114535  0.66639401  0.02292956  1  0  0.095973  0  0.966274  0  0  0.108149  0  1.027174  0  0  0.110239  0  1.026361  0  0  0.108464  0.106511  0  1.028021  0
H  H8  1  0.86692767  0.19066006  0.96342546  1  0  0.105929  0  0.983135  0  0  0.113534  0  1.04912  0  0  0.117052  0  1.04752  0  0  0.105154  0.111155  0  1.050063  0
H  H9  1  0.36691899  0.30933584  0.03657037  1  0  0.105889  0  0.983259  0  0  0.113551  0  1.049145  0  0  0.117071  0  1.047541  0  0  0.10519  0.111171  0  1.050089  0
H  H10  1  0.13307762  0.80933250  0.03657055  1  0  0.105915  0  0.983182  0  0  0.113582  0  1.049065  0  0  0.117102  0  1.047461  0  0  0.105185  0.111203  0  1.050007  0
H  H11  1  0.63308252  0.69066168  0.96342710  1  0  0.105846  0  0.983263  0  0  0.113537  0  1.049128  0  0  0.117057  0  1.047524  0  0  0.105186  0.111158  0  1.050071  0
H  H12  1  0.09711539  0.16539550  0.12041749  1  0  0.087181  0  0.955033  0  0  0.09418  0  1.020864  0  0  0.096943  0  1.018445  0  0  0.115337  0.092143  0  1.022645  0
H  H13  1  0.59710382  0.33460644  0.87957645  1  0  0.087116  0  0.955053  0  0  0.09414  0  1.020883  0  0  0.096903  0  1.018464  0  0  0.115348  0.092113  0  1.022652  0
H  H14  1  0.90288864  0.83459717  0.87958226  1  0  0.087194  0  0.954977  0  0  0.094206  0  1.020796  0  0  0.096968  0  1.018378  0  0  0.115358  0.092189  0  1.022556  0
H  H15  1  0.40288885  0.66540102  0.12042396  1  0  0.087139  0  0.954996  0  0  0.094147  0  1.020838  0  0  0.09691  0  1.018419  0  0  0.115339  0.092102  0  1.022629  0
C  C16  1  0.74017967  0.09788505  0.41644413  1  0  0.661674  0  3.875989  0  0  0.606533  0  4.171003  0  0  0.642046  0  4.161403  0  0  0.221207  0.582237  0  4.176744  0
C  C17  1  0.24016385  0.40210919  0.58355488  1  0  0.661626  0  3.876151  0  0  0.606446  0  4.171205  0  0  0.64196  0  4.161601  0  0  0.221211  0.582151  0  4.176946  0
C  C18  1  0.25981805  0.90211498  0.58355502  1  0  0.661681  0  3.876057  0  0  0.606541  0  4.171053  0  0  0.642052  0  4.161454  0  0  0.221206  0.582247  0  4.176792  0
C  C19  1  0.75982250  0.59788203  0.41643795  1  0  0.661522  0  3.876035  0  0  0.606407  0  4.170972  0  0  0.64191  0  4.161394  0  0  0.221208  0.582112  0  4.176708  0
C  C20  1  0.76484580  0.11463237  0.28299253  1  0  0.112005  0  3.670329  0  0  0.105965  0  3.908869  0  0  0.110321  0  3.926117  0  0  0.124308  0.102936  0  3.897357  0
C  C21  1  0.26484173  0.38536590  0.71700657  1  0  0.112049  0  3.670421  0  0  0.106017  0  3.908935  0  0  0.110377  0  3.92618  0  0  0.124321  0.102981  0  3.897423  0
C  C22  1  0.23515066  0.88536515  0.71700494  1  0  0.111977  0  3.67039  0  0  0.105932  0  3.908923  0  0  0.11029  0  3.926169  0  0  0.124286  0.1029  0  3.897413  0
C  C23  1  0.73515220  0.61463537  0.28299294  1  0  0.111974  0  3.670487  0  0  0.105944  0  3.908958  0  0  0.110306  0  3.926208  0  0  0.124274  0.102913  0  3.897445  0
C  C24  1  0.63055488  0.13534941  0.20625036  1  0  -0.096272  0  3.698893  0  0  -0.079638  0  3.937677  0  0  -0.089068  0  3.957958  0  0  -0.002213  -0.073695  0  3.924489  0
C  C25  1  0.13054939  0.36465204  0.79375248  1  0  -0.096304  0  3.699028  0  0  -0.079607  0  3.937765  0  0  -0.089044  0  3.95805  0  0  -0.002168  -0.073651  0  3.924561  0
C  C26  1  0.36944157  0.86464566  0.79374732  1  0  -0.096171  0  3.698921  0  0  -0.079532  0  3.93766  0  0  -0.088962  0  3.957942  0  0  -0.002118  -0.073587  0  3.924471  0
C  C27  1  0.86945464  0.63535186  0.20625245  1  0  -0.096205  0  3.698794  0  0  -0.079534  0  3.937539  0  0  -0.088969  0  3.957821  0  0  -0.00216  -0.073584  0  3.924342  0
C  C28  1  0.44690004  0.13357286  0.24183638  1  0  0.670965  0  3.921663  0  0  0.613062  0  4.225464  0  0  0.649517  0  4.21662  0  0  0.210085  0.588115  0  4.230905  0
C  C29  1  0.94689703  0.36642564  0.75816801  1  0  0.671042  0  3.921586  0  0  0.613076  0  4.225459  0  0  0.649534  0  4.216612  0  0  0.210058  0.588124  0  4.230902  0
C  C30  1  0.55310020  0.86642593  0.75816240  1  0  0.670897  0  3.921601  0  0  0.613036  0  4.225341  0  0  0.649491  0  4.216498  0  0  0.210067  0.588088  0  4.230783  0
C  C31  1  0.05310195  0.63357690  0.24183281  1  0  0.670871  0  3.921797  0  0  0.612919  0  4.225657  0  0  0.649378  0  4.21681  0  0  0.20997  0.587967  0  4.2311  0
C  C32  1  0.67000939  0.15797041  0.08812828  1  0  -0.016866  0  3.69411  0  0  -0.046038  0  3.94332  0  0  -0.042241  0  3.962035  0  0  -0.067166  -0.048304  0  3.930745  0
C  C33  1  0.17000187  0.34202780  0.91187147  1  0  -0.016915  0  3.694258  0  0  -0.046109  0  3.943482  0  0  -0.04232  0  3.962222  0  0  -0.067221  -0.048377  0  3.9309  0
C  C34  1  0.32999211  0.84202581  0.91186696  1  0  -0.016962  0  3.694305  0  0  -0.04614  0  3.94352  0  0  -0.042352  0  3.962256  0  0  -0.067244  -0.048405  0  3.930942  0
C  C35  1  0.82999838  0.65797344  0.08812711  1  0  -0.016831  0  3.694286  0  0  -0.046032  0  3.943515  0  0  -0.042242  0  3.962254  0  0  -0.067152  -0.048298  0  3.930933  0
C  C36  1  0.83699071  0.17010305  0.05440173  1  0  -0.120455  0  3.730037  0  0  -0.134717  0  3.988478  0  0  -0.141747  0  4.008837  0  0  -0.0861  -0.130212  0  3.974692  0
C  C37  1  0.33698250  0.32989258  0.94559886  1  0  -0.120428  0  3.729973  0  0  -0.134686  0  3.98844  0  0  -0.141718  0  4.008798  0  0  -0.086113  -0.130181  0  3.974656  0
C  C38  1  0.16301206  0.82989199  0.94559501  1  0  -0.12046  0  3.730103  0  0  -0.134753  0  3.988565  0  0  -0.141783  0  4.008921  0  0  -0.086096  -0.130247  0  3.974782  0
C  C39  1  0.66301900  0.67010757  0.05440403  1  0  -0.120396  0  3.730201  0  0  -0.134701  0  3.988656  0  0  -0.141733  0  4.009015  0  0  -0.086108  -0.130196  0  3.974868  0
C  C40  1  0.96324090  0.15276932  0.13794808  1  0  0.148827  0  3.698128  0  0  0.114095  0  3.958184  0  0  0.122936  0  3.97364  0  0  0.052382  0.108178  0  3.947873  0
C  C41  1  0.46323289  0.34722914  0.86204783  1  0  0.148987  0  3.69792  0  0  0.114163  0  3.958099  0  0  0.123005  0  3.973558  0  0  0.052384  0.108239  0  3.947783  0
C  C42  1  0.03675808  0.84722212  0.86205130  1  0  0.148809  0  3.698041  0  0  0.11405  0  3.958135  0  0  0.12289  0  3.973592  0  0  0.052298  0.10812  0  3.947819  0
C  C43  1  0.53676609  0.65277458  0.13795148  1  0  0.148928  0  3.698001  0  0  0.114144  0  3.958131  0  0  0.122986  0  3.973589  0  0  0.052392  0.108231  0  3.947823  0
N  N44  1  0.92711350  0.11847740  0.24587713  1  0  -0.342553  0  3.234943  0  0  -0.272064  0  3.498573  0  0  -0.290845  0  3.514273  0  0  -0.3162  -0.259213  0  3.48775  0
N  N45  1  0.42711138  0.38152429  0.75411999  1  0  -0.342619  0  3.234862  0  0  -0.272107  0  3.498522  0  0  -0.290886  0  3.514218  0  0  -0.316233  -0.259257  0  3.487705  0
N  N46  1  0.07288421  0.88151649  0.75412206  1  0  -0.342528  0  3.234954  0  0  -0.27203  0  3.498576  0  0  -0.290809  0  3.514274  0  0  -0.316153  -0.259181  0  3.487763  0
N  N47  1  0.57288507  0.61848322  0.24588229  1  0  -0.342604  0  3.234999  0  0  -0.2721  0  3.49863  0  0  -0.290878  0  3.514326  0  0  -0.316227  -0.259251  0  3.487807  0
O  O48  1  0.62681201  0.18092157  0.49432212  1  0  -0.602095  0  2.008989  0  0  -0.547206  0  2.260569  0  0  -0.573565  0  2.248298  0  0  -0.311491  -0.528468  0  2.268442  0
O  O49  1  0.12680588  0.31908253  0.50568801  1  0  -0.60206  0  2.009325  0  0  -0.547179  0  2.260944  0  0  -0.573534  0  2.248673  0  0  -0.311505  -0.52845  0  2.268827  0
O  O50  1  0.37319455  0.81908104  0.50568057  1  0  -0.60212  0  2.00888  0  0  -0.54725  0  2.260478  0  0  -0.573611  0  2.248209  0  0  -0.311531  -0.528505  0  2.268336  0
O  O51  1  0.87320194  0.68092513  0.49431895  1  0  -0.602063  0  2.008713  0  0  -0.547201  0  2.260298  0  0  -0.573558  0  2.248031  0  0  -0.311556  -0.528466  0  2.268181  0
O  O52  1  0.84506891  0.00002363  0.43953728  1  0  -0.668789  0  2.107423  0  0  -0.589369  0  2.372691  0  0  -0.623214  0  2.362252  0  0  -0.318868  -0.565391  0  2.379042  0
O  O53  1  0.34506148  0.49998311  0.56046098  1  0  -0.668792  0  2.107224  0  0  -0.589337  0  2.372513  0  0  -0.623189  0  2.362075  0  0  -0.318841  -0.565358  0  2.378862  0
O  O54  1  0.15493512  0.99997774  0.56046504  1  0  -0.668773  0  2.107561  0  0  -0.589342  0  2.372829  0  0  -0.623186  0  2.362391  0  0  -0.318835  -0.565367  0  2.379179  0
O  O55  1  0.65493877  0.50001928  0.43953515  1  0  -0.668707  0  2.107555  0  0  -0.589265  0  2.372787  0  0  -0.623108  0  2.362356  0  0  -0.318792  -0.56529  0  2.379137  0
O  O56  1  0.39442965  0.01333794  0.26965243  1  0  -0.610583  0  2.009354  0  0  -0.541752  0  2.261731  0  0  -0.572513  0  2.251367  0  0  -0.308127  -0.520335  0  2.268456  0
O  O57  1  0.89442538  0.48666729  0.73035431  1  0  -0.61063  0  2.009272  0  0  -0.541779  0  2.261672  0  0  -0.572541  0  2.251307  0  0  -0.30812  -0.520362  0  2.2684  0
O  O58  1  0.60556933  0.98666842  0.73035230  1  0  -0.610596  0  2.009351  0  0  -0.541769  0  2.261692  0  0  -0.572531  0  2.251329  0  0  -0.308164  -0.520353  0  2.268418  0
O  O59  1  0.10557234  0.51333150  0.26964446  1  0  -0.61064  0  2.009313  0  0  -0.541793  0  2.261699  0  0  -0.572555  0  2.251334  0  0  -0.308135  -0.520374  0  2.268426  0
O  O60  1  0.35438000  0.24785636  0.23293738  1  0  -0.668366  0  2.029868  0  0  -0.60436  0  2.294893  0  0  -0.632658  0  2.280578  0  0  -0.326693  -0.583892  0  2.303597  0
O  O61  1  0.85437355  0.25214090  0.76706821  1  0  -0.668351  0  2.02986  0  0  -0.604288  0  2.294863  0  0  -0.632586  0  2.280546  0  0  -0.326657  -0.583828  0  2.303587  0
O  O62  1  0.64562277  0.75214861  0.76706229  1  0  -0.668291  0  2.029824  0  0  -0.604327  0  2.29487  0  0  -0.632623  0  2.280553  0  0  -0.326666  -0.583864  0  2.303583  0
O  O63  1  0.14562543  0.74785801  0.23293431  1  0  -0.668226  0  2.029964  0  0  -0.604186  0  2.294978  0  0  -0.632484  0  2.280663  0  0  -0.326589  -0.583729  0  2.303708  0
