# generated using pymatgen
data_Zn4H28C32O13F2
_symmetry_space_group_name_H-M   'P 1'
_cell_length_a   17.97094964
_cell_length_b   18.47903455
_cell_length_c   20.41679677
_cell_angle_alpha   60.98053124
_cell_angle_beta   62.63619902
_cell_angle_gamma   89.90554942
_symmetry_Int_Tables_number   1
_chemical_formula_structural   Zn4H28C32O13F2
_chemical_formula_sum   'Zn8 H56 C64 O26 F4'
_cell_volume   5047.14870260
_cell_formula_units_Z   2
loop_
 _symmetry_equiv_pos_site_id
 _symmetry_equiv_pos_as_xyz
  1  'x, y, z'
loop_
 _atom_site_type_symbol
 _atom_site_label
 _atom_site_symmetry_multiplicity
 _atom_site_fract_x
 _atom_site_fract_y
 _atom_site_fract_z
 _atom_site_occupancy
 _atom_site_pbe_bader_charge
 _atom_site_pbe_bader_spin_density
 _atom_site_pbe_cm5_charge
 _atom_site_pbe_ddec_charge
 _atom_site_pbe_ddec_spin_density
 _atom_site_pbe_ddec_sum_bond_order
 _atom_site_pbe_magmom
Zn  Zn0  1  0.13057988  0.54399790  0.92343935  1  1.318971  0  0.667171  0.95093  0  2.404197  0
Zn  Zn1  1  0.96009291  0.54899868  0.06858333  1  1.305527  0  0.669754  0.959302  0  2.377917  0
Zn  Zn2  1  0.96791380  0.37892226  0.06270721  1  1.297243  0  0.667225  0.948941  0  2.421321  0
Zn  Zn3  1  0.95618207  0.54399989  0.91288430  1  1.309303  0  0.670657  0.966381  0  2.340568  0
Zn  Zn4  1  0.37683084  0.96889066  0.06248425  1  1.299801  0  0.667296  0.950706  0  2.407416  0
Zn  Zn5  1  0.54485071  0.12926436  0.91895765  1  1.296255  0  0.667531  0.948569  0  2.41929  0
Zn  Zn6  1  0.54039725  0.95952092  0.91435228  1  1.307627  0  0.670448  0.960873  0  2.379167  0
Zn  Zn7  1  0.55395923  0.96088503  0.06755302  1  1.318885  0  0.670303  0.964778  0  2.339953  0
H  H8  1  0.42972186  0.82293959  0.34765195  1  0.165557  0  0.111995  0.12642  0  0.99703  0
H  H9  1  0.20235560  0.83716916  0.32470406  1  0.12881  0  0.118728  0.151313  0  0.980392  0
H  H10  1  0.08561970  0.68393558  0.63549878  1  0.129407  0  0.111507  0.125683  0  1.00023  0
H  H11  1  0.31257671  0.67134595  0.65907362  1  0.135612  0  0.118384  0.149937  0  0.980504  0
H  H12  1  0.67812768  0.08468596  0.63883462  1  0.106971  0  0.112092  0.126563  0  0.99898  0
H  H13  1  0.66694030  0.30990830  0.65359171  1  0.143305  0  0.118977  0.151118  0  0.980517  0
H  H14  1  0.82097425  0.42365824  0.34385793  1  0.132741  0  0.112212  0.126785  0  0.99869  0
H  H15  1  0.83232346  0.19839517  0.32918055  1  0.116595  0  0.119303  0.151964  0  0.979969  0
H  H16  1  0.21708887  0.31521993  0.88440161  1  0.031567  0  0.091198  0.085438  0  0.980121  0
H  H17  1  0.13129983  0.22793872  0.98705002  1  0.045803  0  0.093533  0.093157  0  0.984084  0
H  H18  1  0.22375977  0.13888545  0.98138603  1  0.051052  0  0.093181  0.092904  0  0.985123  0
H  H19  1  0.30990718  0.22763838  0.88043296  1  0.025812  0  0.091409  0.085974  0  0.979039  0
H  H20  1  0.19963882  0.10870465  0.12490875  1  0.061648  0  0.093408  0.094197  0  0.984555  0
H  H21  1  0.27106773  0.17273228  0.12628457  1  0.006866  0  0.090415  0.084366  0  0.979702  0
H  H22  1  0.11043175  0.20112934  0.12849291  1  0.075062  0  0.093399  0.094344  0  0.98609  0
H  H23  1  0.18447820  0.26642410  0.12616144  1  0.003114  0  0.089978  0.083853  0  0.979951  0
H  H24  1  0.32271310  0.41102203  0.88067583  1  0.01979  0  0.090823  0.090558  0  0.984174  0
H  H25  1  0.30803329  0.39261647  0.97925615  1  0.031024  0  0.090046  0.087552  0  0.980457  0
H  H26  1  0.39652646  0.29967561  0.98115987  1  0.01414  0  0.089658  0.087599  0  0.982472  0
H  H27  1  0.41377131  0.32065509  0.88091637  1  0.045682  0  0.091  0.090527  0  0.98316  0
H  H28  1  0.90881826  0.81700061  0.87595428  1  0.047583  0  0.091639  0.086232  0  0.978749  0
H  H29  1  0.88770881  0.79143110  0.97959066  1  0.032856  0  0.092858  0.091167  0  0.983114  0
H  H30  1  0.79884938  0.88396912  0.97873789  1  0.026064  0  0.092877  0.091096  0  0.982925  0
H  H31  1  0.81915088  0.90777879  0.87587313  1  0.013885  0  0.09139  0.086043  0  0.978794  0
H  H32  1  0.67323346  0.75878534  0.11929696  1  0.034038  0  0.093068  0.09476  0  0.985865  0
H  H33  1  0.60249356  0.69480353  0.11736800  1  0.004405  0  0.089642  0.084035  0  0.980636  0
H  H34  1  0.76131725  0.66535853  0.11931041  1  0.05383  0  0.093313  0.09559  0  0.987781  0
H  H35  1  0.69123632  0.60308029  0.11519396  1  0.019257  0  0.089139  0.083265  0  0.980067  0
H  H36  1  0.80999660  0.72699407  0.86874534  1  0.031351  0  0.091014  0.090843  0  0.984121  0
H  H37  1  0.72179093  0.63881766  0.96585435  1  0.019224  0  0.089508  0.0865  0  0.980079  0
H  H38  1  0.63091708  0.72920779  0.96871169  1  0.033222  0  0.089355  0.085933  0  0.980992  0
H  H39  1  0.71875356  0.81698525  0.87076519  1  0.043632  0  0.091183  0.091406  0  0.984654  0
H  H40  1  0.17716028  0.81051343  0.91757718  1  0.008613  0  0.091582  0.086016  0  0.979733  0
H  H41  1  0.26824148  0.78076791  0.86319375  1  0.050322  0  0.093974  0.093973  0  0.981617  0
H  H42  1  0.35866862  0.87550647  0.85924322  1  0.056506  0  0.094304  0.094378  0  0.9821  0
H  H43  1  0.26693922  0.90411772  0.91446236  1  0.0219  0  0.091721  0.086391  0  0.97919  0
H  H44  1  0.40173844  0.75081261  0.94508001  1  0.036979  0  0.093218  0.094957  0  0.9853  0
H  H45  1  0.34244541  0.69155541  0.06114792  1  0.038881  0  0.089685  0.083622  0  0.981207  0
H  H46  1  0.31006569  0.65464928  0.95120374  1  0.056802  0  0.093406  0.095665  0  0.984904  0
H  H47  1  0.24994242  0.59744984  0.06722460  1  0.01239  0  0.089619  0.083316  0  0.980043  0
H  H48  1  0.08925531  0.72636537  0.08475848  1  0.039197  0  0.090955  0.090779  0  0.984337  0
H  H49  1  0.11856790  0.63899573  0.14575429  1  0.023721  0  0.090139  0.08738  0  0.979418  0
H  H50  1  0.21021737  0.73240979  0.14193258  1  0.02305  0  0.090091  0.087231  0  0.981623  0
H  H51  1  0.18020959  0.81960858  0.08173810  1  0.01311  0  0.090594  0.090017  0  0.98505  0
H  H52  1  0.91468383  0.28077878  0.90626704  1  0.026368  0  0.091459  0.086423  0  0.980102  0
H  H53  1  0.87918590  0.36575489  0.84918866  1  0.036918  0  0.093818  0.092907  0  0.980566  0
H  H54  1  0.79319914  0.26792452  0.85238466  1  0.046329  0  0.093627  0.093802  0  0.984145  0
H  H55  1  0.82583134  0.18270310  0.91316347  1  0.024117  0  0.091226  0.08578  0  0.978794  0
H  H56  1  0.66252535  0.30865068  0.93116138  1  0.05563  0  0.093232  0.094789  0  0.986434  0
H  H57  1  0.59996455  0.24963649  0.04714398  1  0.016897  0  0.089418  0.083135  0  0.981014  0
H  H58  1  0.74910023  0.40316991  0.93130164  1  0.048431  0  0.092694  0.094446  0  0.985404  0
H  H59  1  0.68773945  0.34186522  0.04738232  1  0.017508  0  0.089191  0.083042  0  0.980564  0
H  H60  1  0.82774956  0.19156244  0.07357252  1  0.043494  0  0.090998  0.090999  0  0.98579  0
H  H61  1  0.73678762  0.21744567  0.13199030  1  0.019144  0  0.089723  0.086243  0  0.980391  0
H  H62  1  0.64492696  0.12512682  0.13493946  1  0.053349  0  0.089934  0.087775  0  0.979997  0
H  H63  1  0.73537210  0.09602168  0.08041092  1  0.023991  0  0.090685  0.090738  0  0.984167  0
C  C64  1  0.13929676  0.63770087  0.00305501  1  1.539946  0  0.233601  0.600577  0  4.100234  0
C  C65  1  0.87871972  0.37325581  0.22923697  1  1.54437  0  0.226776  0.600705  0  4.169119  0
C  C66  1  0.14669146  0.36550892  0.99808129  1  1.509351  0  0.234153  0.601053  0  4.102002  0
C  C67  1  0.86446934  0.36711301  0.98687626  1  1.534911  0  0.23387  0.601274  0  4.094825  0
C  C68  1  0.13534540  0.62515753  0.75487221  1  1.544878  0  0.228836  0.605552  0  4.162111  0
C  C69  1  0.86248101  0.64338656  0.98738642  1  1.532733  0  0.236794  0.606338  0  4.092196  0
C  C70  1  0.36507415  0.14545423  0.99492411  1  1.53891  0  0.234562  0.601379  0  4.098523  0
C  C71  1  0.61887150  0.13493500  0.75354200  1  1.54184  0  0.227702  0.602471  0  4.164282  0
C  C72  1  0.35927354  0.86390268  0.99524849  1  1.536958  0  0.234349  0.602011  0  4.099548  0
C  C73  1  0.64413480  0.86473150  0.98911964  1  1.554779  0  0.234801  0.603792  0  4.094958  0
C  C74  1  0.37864680  0.88302217  0.22855185  1  1.606741  0  0.227133  0.602802  0  4.161403  0
C  C75  1  0.64863829  0.13965420  0.99164632  1  1.554374  0  0.234021  0.602334  0  4.09601  0
C  C76  1  0.35902663  0.80841438  0.37850180  1  0.016259  0  -0.079558  -0.136509  0  3.931521  0
C  C77  1  0.23036469  0.81623202  0.36591713  1  0.105133  0  -0.095811  -0.232395  0  3.980483  0
C  C78  1  0.17801276  0.77219687  0.45558587  1  0.296098  0  0.103202  0.248824  0  4.053372  0
C  C79  1  0.21098534  0.74375520  0.51242573  1  0.055277  0  -0.008301  -0.009076  0  4.016812  0
C  C80  1  0.15627324  0.69856889  0.60487969  1  0.000558  0  -0.080307  -0.135473  0  3.938354  0
C  C81  1  0.28459810  0.69160453  0.61785693  1  0.051387  0  -0.095848  -0.230554  0  3.979595  0
C  C82  1  0.33717664  0.73525127  0.52816139  1  0.429747  0  0.10383  0.248211  0  4.053489  0
C  C83  1  0.30447615  0.76338596  0.47107534  1  -0.05369  0  -0.00858  -0.008487  0  4.013278  0
C  C84  1  0.32243614  0.83448383  0.32685883  1  0.017372  0  -0.013678  -0.005012  0  3.986096  0
C  C85  1  0.19254555  0.67293428  0.65675716  1  -0.011883  0  -0.013589  -0.006483  0  3.991059  0
C  C86  1  0.69368217  0.15455567  0.60593805  1  -0.003287  0  -0.079877  -0.135921  0  3.937793  0
C  C87  1  0.68745194  0.28205254  0.61398279  1  -0.001304  0  -0.095886  -0.232929  0  3.982628  0
C  C88  1  0.73234627  0.33345819  0.52403983  1  0.405966  0  0.104059  0.249811  0  4.054378  0
C  C89  1  0.76030265  0.30038132  0.46946112  1  -0.014591  0  -0.008613  -0.008696  0  4.020276  0
C  C90  1  0.80569802  0.35379318  0.37678194  1  -0.019363  0  -0.080066  -0.136358  0  3.93913  0
C  C91  1  0.81188727  0.22627626  0.36875717  1  0.050693  0  -0.094763  -0.232527  0  3.981467  0
C  C92  1  0.76777731  0.17495228  0.45867659  1  0.460843  0  0.103051  0.249557  0  4.054484  0
C  C93  1  0.73974633  0.20803093  0.51325189  1  0.045183  0  -0.008456  -0.008976  0  4.020021  0
C  C94  1  0.66786011  0.19110927  0.65530585  1  0.065092  0  -0.013573  -0.004625  0  3.991381  0
C  C95  1  0.83077578  0.31718240  0.32746147  1  -0.008088  0  -0.01351  -0.00417  0  3.993721  0
C  C96  1  0.19977847  0.26475579  0.95142873  1  -0.046449  0  -0.15595  -0.170558  0  3.856182  0
C  C97  1  0.26080488  0.20561602  0.94879837  1  -0.048388  0  -0.155504  -0.169092  0  3.854077  0
C  C98  1  0.30814818  0.20644920  0.99555052  1  0.05572  0  -0.017153  0.020667  0  3.811434  0
C  C99  1  0.23824558  0.17502991  0.09147028  1  -0.050219  0  -0.157481  -0.1716  0  3.858894  0
C  C100  1  0.17945945  0.23638096  0.09262722  1  -0.037527  0  -0.157819  -0.170549  0  3.860436  0
C  C101  1  0.20745080  0.30807010  0.99757775  1  0.078241  0  -0.01651  0.022271  0  3.815359  0
C  C102  1  0.30302533  0.35978878  0.94809849  1  -0.003233  0  -0.164854  -0.178649  0  3.889389  0
C  C103  1  0.36251192  0.29924600  0.94826450  1  -0.027755  0  -0.164786  -0.177857  0  3.889164  0
C  C104  1  0.85638915  0.79377260  0.94362313  1  -0.054259  0  -0.155133  -0.168767  0  3.847804  0
C  C105  1  0.79691139  0.85473474  0.94357466  1  0.003145  0  -0.15459  -0.16824  0  3.848851  0
C  C106  1  0.70134053  0.80365109  0.98856303  1  0.033397  0  -0.01638  0.020766  0  3.809172  0
C  C107  1  0.67114409  0.73031269  0.08365393  1  -0.01524  0  -0.159457  -0.173868  0  3.868949  0
C  C108  1  0.73004645  0.66912186  0.08298180  1  -0.027338  0  -0.159934  -0.174082  0  3.864793  0
C  C109  1  0.80183287  0.70124327  0.98747095  1  0.060502  0  -0.016118  0.021243  0  3.808636  0
C  C110  1  0.75889323  0.70456941  0.93647687  1  -0.010478  0  -0.164148  -0.177387  0  3.88561  0
C  C111  1  0.69879618  0.76459423  0.93782455  1  -0.045811  0  -0.164091  -0.176144  0  3.882021  0
C  C112  1  0.23253265  0.78660433  0.92001557  1  -0.027862  0  -0.155708  -0.170696  0  3.852884  0
C  C113  1  0.29250709  0.84911749  0.91759042  1  -0.044643  0  -0.155109  -0.170011  0  3.852723  0
C  C114  1  0.29834895  0.80092376  0.00103188  1  0.046199  0  -0.016732  0.02227  0  3.807514  0
C  C115  1  0.33573035  0.72498344  0.00338754  1  -0.035375  0  -0.159748  -0.175229  0  3.863829  0
C  C116  1  0.27489393  0.66210460  0.00693978  1  -0.032855  0  -0.15881  -0.172137  0  3.858247  0
C  C117  1  0.19667958  0.69586323  0.00538219  1  0.027384  0  -0.016389  0.021329  0  3.81095  0
C  C118  1  0.14559450  0.70351991  0.08505650  1  -0.01102  0  -0.164441  -0.177502  0  3.88524  0
C  C119  1  0.20604071  0.76546440  0.08270175  1  -0.006497  0  -0.164177  -0.177021  0  3.884975  0
C  C120  1  0.85637088  0.30078670  0.90833341  1  -0.032685  0  -0.154064  -0.169327  0  3.849993  0
C  C121  1  0.79798772  0.23627105  0.91124058  1  -0.032548  0  -0.155369  -0.169802  0  3.849979  0
C  C122  1  0.70488504  0.19909035  0.99375422  1  0.031662  0  -0.016253  0.021108  0  3.810943  0
C  C123  1  0.66704872  0.27527969  0.99008035  1  -0.038172  0  -0.158688  -0.172094  0  3.85863  0
C  C124  1  0.72520706  0.33751690  0.98966721  1  -0.025776  0  -0.159071  -0.1731  0  3.865403  0
C  C125  1  0.80413909  0.30530774  0.99068222  1  0.034596  0  -0.016196  0.021151  0  3.806989  0
C  C126  1  0.77126886  0.21409515  0.07343460  1  -0.028905  0  -0.164904  -0.175226  0  3.883083  0
C  C127  1  0.71094316  0.15166017  0.07627848  1  -0.030589  0  -0.16453  -0.179853  0  3.891767  0
O  O128  1  0.00251569  0.50529373  0.99116980  1  -1.214091  0  -0.573044  -1.026542  0  2.542939  0
O  O129  1  0.17851991  0.61879567  0.94558870  1  -1.173164  0  -0.316682  -0.55091  0  2.353584  0
O  O130  1  0.89213624  0.45456428  0.19413195  1  -1.157686  0  -0.312644  -0.539365  0  2.329289  0
O  O131  1  0.06487481  0.32731195  0.04450931  1  -1.177191  0  -0.316881  -0.55011  0  2.352965  0
O  O132  1  0.05702130  0.61389248  0.05658558  1  -1.173779  0  -0.312278  -0.54505  0  2.356142  0
O  O133  1  0.18131348  0.44685139  0.95156624  1  -1.163724  0  -0.313478  -0.546374  0  2.362057  0
O  O134  1  0.90208694  0.33424614  0.18898076  1  -1.163782  0  -0.313598  -0.539637  0  2.343793  0
O  O135  1  0.89380713  0.33279396  0.03778466  1  -1.169949  0  -0.314432  -0.547871  0  2.380921  0
O  O136  1  0.05282296  0.60844447  0.78808881  1  -1.179191  0  -0.313506  -0.543465  0  2.322024  0
O  O137  1  0.88250392  0.44798502  0.93239541  1  -1.173397  0  -0.315244  -0.550088  0  2.323185  0
O  O138  1  0.17487659  0.60523336  0.79689572  1  -1.174992  0  -0.315004  -0.542058  0  2.341365  0
O  O139  1  0.88901054  0.62511131  0.04042107  1  -1.185248  0  -0.31838  -0.555284  0  2.354929  0
O  O140  1  0.88289886  0.61864873  0.93444662  1  -1.177206  0  -0.313106  -0.547785  0  2.344713  0
O  O141  1  0.50470182  0.00291334  0.99179133  1  -1.20553  0  -0.573026  -1.025742  0  2.54555  0
O  O142  1  0.32573927  0.06562628  0.03650447  1  -1.179383  0  -0.317461  -0.55083  0  2.342319  0
O  O143  1  0.59557338  0.17386989  0.79389780  1  -1.163864  0  -0.314096  -0.540045  0  2.34239  0
O  O144  1  0.44027481  0.88806819  0.93667133  1  -1.179091  0  -0.317136  -0.553745  0  2.344474  0
O  O145  1  0.44742758  0.17812499  0.95286046  1  -1.182905  0  -0.313939  -0.546619  0  2.364731  0
O  O146  1  0.32496130  0.88870716  0.04815994  1  -1.169769  0  -0.31252  -0.543785  0  2.365298  0
O  O147  1  0.60448153  0.05352709  0.78870405  1  -1.184191  0  -0.312587  -0.540649  0  2.329046  0
O  O148  1  0.61679797  0.88743997  0.93637298  1  -1.176493  0  -0.313054  -0.547007  0  2.366196  0
O  O149  1  0.46092868  0.89402772  0.19414810  1  -1.184725  0  -0.312233  -0.539421  0  2.31045  0
O  O150  1  0.62888040  0.88916591  0.04178515  1  -1.182317  0  -0.316811  -0.553663  0  2.335951  0
O  O151  1  0.33812864  0.90935372  0.18764532  1  -1.16916  0  -0.314261  -0.542396  0  2.347892  0
O  O152  1  0.63231260  0.17620056  0.93016853  1  -1.176454  0  -0.318808  -0.552713  0  2.356267  0
O  O153  1  0.62280010  0.05896267  0.04966902  1  -1.184258  0  -0.311684  -0.546093  0  2.343153  0
F  F154  1  0.42555658  0.75311495  0.49075761  1  -0.64398  0  -0.104645  -0.146456  0  1.312281  0
F  F155  1  0.08958946  0.75434665  0.49331447  1  -0.633787  0  -0.104061  -0.146113  0  1.312537  0
F  F156  1  0.74910998  0.08758072  0.49891238  1  -0.622436  0  -0.103628  -0.146173  0  1.312054  0
F  F157  1  0.75143859  0.42083282  0.48386375  1  -0.639831  0  -0.103905  -0.145927  0  1.31222  0
