# generated using pymatgen
data_ZnH9C10N9
_symmetry_space_group_name_H-M   'P 1'
_cell_length_a   6.80204641
_cell_length_b   11.67441802
_cell_length_c   16.01050000
_cell_angle_alpha   90.00000000
_cell_angle_beta   90.00000000
_cell_angle_gamma   99.99356391
_symmetry_Int_Tables_number   1
_chemical_formula_structural   ZnH9C10N9
_chemical_formula_sum   'Zn4 H36 C40 N36'
_cell_volume   1252.10221475
_cell_formula_units_Z   4
loop_
 _symmetry_equiv_pos_site_id
 _symmetry_equiv_pos_as_xyz
  1  'x, y, z'
loop_
 _atom_site_type_symbol
 _atom_site_label
 _atom_site_symmetry_multiplicity
 _atom_site_fract_x
 _atom_site_fract_y
 _atom_site_fract_z
 _atom_site_occupancy
 _atom_site_hle17_bader_spin_density
 _atom_site_hle17_ddec_charge
 _atom_site_hle17_ddec_spin_density
 _atom_site_hle17_ddec_sum_bond_order
 _atom_site_hle17_magmom
 _atom_site_hse06_10hf_bader_spin_density
 _atom_site_hse06_10hf_ddec_charge
 _atom_site_hse06_10hf_ddec_spin_density
 _atom_site_hse06_10hf_ddec_sum_bond_order
 _atom_site_hse06_10hf_magmom
 _atom_site_hse06_bader_spin_density
 _atom_site_hse06_ddec_charge
 _atom_site_hse06_ddec_spin_density
 _atom_site_hse06_ddec_sum_bond_order
 _atom_site_hse06_magmom
 _atom_site_pbe_bader_charge
 _atom_site_pbe_bader_spin_density
 _atom_site_pbe_cm5_charge
 _atom_site_pbe_ddec_charge
 _atom_site_pbe_ddec_spin_density
 _atom_site_pbe_ddec_sum_bond_order
 _atom_site_pbe_magmom
Zn  Zn0  1  0.81288758  0.15474175  0.32958371  1  0  0.902086  0  2.065842  0  0  0.715847  0  2.565826  0  0  0.753175  0  2.52235  0  1.202176  0  0.732649  0.690344  0  2.595421  0
Zn  Zn1  1  0.68711487  0.34525890  0.82958371  1  0  0.902106  0  2.06579  0  0  0.715917  0  2.565786  0  0  0.753242  0  2.52231  0  1.202148  0  0.732693  0.690417  0  2.59538  0
Zn  Zn2  1  0.18711307  0.84525868  0.67041629  1  0  0.902138  0  2.065784  0  0  0.715946  0  2.565776  0  0  0.753268  0  2.522302  0  1.202143  0  0.732689  0.690445  0  2.59537  0
Zn  Zn3  1  0.31288456  0.65474240  0.17041754  1  0  0.902148  0  2.065832  0  0  0.715945  0  2.565833  0  0  0.753268  0  2.522355  0  1.202109  0  0.7327  0.690444  0  2.59543  0
H  H4  1  0.95360065  0.00907519  0.13199213  1  0  0.285042  0  0.955305  0  0  0.264778  0  1.027534  0  0  0.272307  0  1.021781  0  0.506851  0  0.301615  0.259442  0  1.031631  0
H  H5  1  0.54640007  0.49092460  0.63199213  1  0  0.285084  0  0.955274  0  0  0.264825  0  1.027487  0  0  0.272355  0  1.021731  0  0.506848  0  0.30164  0.25949  0  1.031584  0
H  H6  1  0.04640147  0.99092525  0.86800600  1  0  0.285036  0  0.955294  0  0  0.264771  0  1.027526  0  0  0.272303  0  1.021774  0  0.506838  0  0.301618  0.259436  0  1.031622  0
H  H7  1  0.45359859  0.50907410  0.36800725  1  0  0.285088  0  0.955242  0  0  0.264843  0  1.027444  0  0  0.272376  0  1.021687  0  0.506836  0  0.301634  0.259508  0  1.031541  0
H  H8  1  0.45184455  0.97840403  0.31346741  1  0  0.082969  0  0.945074  0  0  0.089376  0  1.01542  0  0  0.091906  0  1.012668  0  0.130124  0  0.116234  0.087484  0  1.017466  0
H  H9  1  0.04815724  0.52159618  0.81346804  1  0  0.082915  0  0.945135  0  0  0.089342  0  1.015454  0  0  0.091872  0  1.012702  0  0.130119  0  0.116206  0.08745  0  1.0175  0
H  H10  1  0.54815316  0.02159640  0.68653321  1  0  0.082951  0  0.945097  0  0  0.089351  0  1.015448  0  0  0.091882  0  1.012697  0  0.13011  0  0.116238  0.08746  0  1.017494  0
H  H11  1  0.95184661  0.47840512  0.18653259  1  0  0.082934  0  0.945142  0  0  0.08935  0  1.015469  0  0  0.09188  0  1.012718  0  0.130135  0  0.116218  0.087458  0  1.017514  0
H  H12  1  0.12999246  0.95489761  0.23631492  1  0  0.12194  0  0.966835  0  0  0.127962  0  1.033532  0  0  0.131263  0  1.032925  0  0.128391  0  0.111208  0.125629  0  1.034087  0
H  H13  1  0.37000932  0.54510260  0.73631554  1  0  0.121956  0  0.966774  0  0  0.127991  0  1.033461  0  0  0.131295  0  1.03285  0  0.128367  0  0.111213  0.125649  0  1.034034  0
H  H14  1  0.87000697  0.04510369  0.76368383  1  0  0.12198  0  0.966749  0  0  0.128006  0  1.033432  0  0  0.131309  0  1.032823  0  0.128393  0  0.111205  0.125659  0  1.03401  0
H  H15  1  0.62999426  0.45489783  0.26368508  1  0  0.121937  0  0.966825  0  0  0.12797  0  1.033516  0  0  0.131269  0  1.032917  0  0.128423  0  0.111205  0.125639  0  1.034068  0
H  H16  1  0.38394412  0.25683542  0.08981106  1  0  0.119162  0  0.977201  0  0  0.128513  0  1.036637  0  0  0.131498  0  1.036562  0  0.094766  0  0.109978  0.126363  0  1.036921  0
H  H17  1  0.11605608  0.24316436  0.58981231  1  0  0.119177  0  0.977129  0  0  0.128533  0  1.036563  0  0  0.131519  0  1.036487  0  0.094769  0  0.109988  0.126384  0  1.036846  0
H  H18  1  0.61605653  0.74316502  0.91018769  1  0  0.119191  0  0.977177  0  0  0.128547  0  1.036605  0  0  0.131534  0  1.03653  0  0.094787  0  0.109999  0.126398  0  1.036889  0
H  H19  1  0.88394379  0.75683346  0.41019144  1  0  0.119176  0  0.97718  0  0  0.128513  0  1.036635  0  0  0.131493  0  1.036568  0  0.09475  0  0.109969  0.126365  0  1.036917  0
H  H20  1  0.68597755  0.27119185  0.17451110  1  0  0.080474  0  0.945215  0  0  0.089211  0  1.011506  0  0  0.091249  0  1.009698  0  0.127726  0  0.116458  0.087718  0  1.012783  0
H  H21  1  0.81402464  0.22880793  0.67451173  1  0  0.080472  0  0.945257  0  0  0.089223  0  1.01153  0  0  0.091248  0  1.009736  0  0.127613  0  0.116455  0.08773  0  1.012808  0
H  H22  1  0.31402284  0.72880771  0.82548827  1  0  0.080464  0  0.945237  0  0  0.089211  0  1.011519  0  0  0.091236  0  1.009724  0  0.127741  0  0.116446  0.087718  0  1.012795  0
H  H23  1  0.18597548  0.77119076  0.32549140  1  0  0.08048  0  0.945215  0  0  0.089203  0  1.011515  0  0  0.091236  0  1.009715  0  0.127742  0  0.116455  0.08771  0  1.012793  0
H  H24  1  0.99453251  0.41459875  0.96253833  1  0  0.07908  0  0.943961  0  0  0.088013  0  1.010549  0  0  0.089964  0  1.007947  0  0.128871  0  0.118679  0.086556  0  1.012419  0
H  H25  1  0.50546968  0.08540103  0.46253833  1  0  0.079077  0  0.943984  0  0  0.088013  0  1.010566  0  0  0.089963  0  1.007966  0  0.128874  0  0.11868  0.086557  0  1.012436  0
H  H26  1  0.00546813  0.58540168  0.03746104  1  0  0.079099  0  0.943963  0  0  0.088042  0  1.010534  0  0  0.089993  0  1.007931  0  0.128874  0  0.118684  0.086585  0  1.012404  0
H  H27  1  0.49453244  0.91459940  0.53746167  1  0  0.079091  0  0.943971  0  0  0.088023  0  1.01056  0  0  0.089974  0  1.007958  0  0.128859  0  0.118681  0.086567  0  1.012429  0
H  H28  1  0.14366977  0.32611786  0.07946598  1  0  0.125209  0  0.981307  0  0  0.130822  0  1.047113  0  0  0.134242  0  1.046968  0  0.12919  0  0.107815  0.128409  0  1.04737  0
H  H29  1  0.35632722  0.17388105  0.57946535  1  0  0.125206  0  0.981305  0  0  0.130818  0  1.047113  0  0  0.13424  0  1.046968  0  0.129181  0  0.10781  0.128405  0  1.047369  0
H  H30  1  0.85633087  0.67388257  0.92053340  1  0  0.125225  0  0.981279  0  0  0.130835  0  1.047089  0  0  0.134253  0  1.046949  0  0.129203  0  0.107812  0.128422  0  1.047346  0
H  H31  1  0.64366971  0.82611677  0.42053402  1  0  0.125219  0  0.981302  0  0  0.130833  0  1.047103  0  0  0.134251  0  1.046963  0  0.129222  0  0.107813  0.12842  0  1.04736  0
H  H32  1  0.74204957  0.00383308  0.02342463  1  0  0.115882  0  0.950777  0  0  0.125335  0  1.012081  0  0  0.128736  0  1.011357  0  0.087855  0  0.108234  0.122944  0  1.0127  0
H  H33  1  0.75795115  0.49616670  0.52342463  1  0  0.115871  0  0.950774  0  0  0.125317  0  1.012091  0  0  0.12872  0  1.011364  0  0.087869  0  0.108237  0.122925  0  1.01271  0
H  H34  1  0.25795254  0.99616735  0.97657475  1  0  0.11587  0  0.950797  0  0  0.125311  0  1.012113  0  0  0.128712  0  1.011391  0  0.087833  0  0.108237  0.12292  0  1.012732  0
H  H35  1  0.24204777  0.50383286  0.47657537  1  0  0.115878  0  0.950778  0  0  0.125318  0  1.012103  0  0  0.128721  0  1.011376  0  0.087856  0  0.108234  0.122927  0  1.012721  0
H  H36  1  0.60067134  0.11016775  0.90970113  1  0  0.070278  0  0.959869  0  0  0.078265  0  1.02512  0  0  0.079997  0  1.024217  0  0.098658  0  0.112584  0.077001  0  1.025764  0
H  H37  1  0.89932938  0.38983203  0.40970113  1  0  0.070275  0  0.959861  0  0  0.07826  0  1.025119  0  0  0.07999  0  1.024222  0  0.09866  0  0.112587  0.076995  0  1.025762  0
H  H38  1  0.39933052  0.88983181  0.09029824  1  0  0.070307  0  0.959862  0  0  0.078255  0  1.025152  0  0  0.07999  0  1.024245  0  0.098658  0  0.11257  0.076991  0  1.025795  0
H  H39  1  0.10066980  0.61016840  0.59029824  1  0  0.070268  0  0.959869  0  0  0.078251  0  1.025128  0  0  0.079988  0  1.024216  0  0.098652  0  0.112579  0.076988  0  1.025771  0
C  C40  1  0.42833946  0.03957891  0.26468068  1  0  0.142106  0  3.725456  0  0  0.107761  0  3.97641  0  0  0.117104  0  3.994189  0  0.483355  0  0.039334  0.101719  0  3.964327  0
C  C41  1  0.07166194  0.46042000  0.76468130  1  0  0.142134  0  3.725488  0  0  0.107796  0  3.97647  0  0  0.11714  0  3.99425  0  0.483372  0  0.039397  0.101756  0  3.964384  0
C  C42  1  0.57165824  0.96042152  0.73531870  1  0  0.142097  0  3.725504  0  0  0.107781  0  3.976472  0  0  0.117122  0  3.994251  0  0.483358  0  0.03931  0.10174  0  3.964385  0
C  C43  1  0.92834164  0.53958043  0.23531932  1  0  0.142035  0  3.725584  0  0  0.107694  0  3.976531  0  0  0.117036  0  3.994307  0  0.48337  0  0.039359  0.101654  0  3.964448  0
C  C44  1  0.25025772  0.02645407  0.22176259  1  0  -0.228558  0  3.714644  0  0  -0.244755  0  3.969115  0  0  -0.256555  0  3.990693  0  -0.032105  0  -0.094024  -0.23718  0  3.954785  0
C  C45  1  0.24974541  0.47354571  0.72176322  1  0  -0.228546  0  3.71454  0  0  -0.244775  0  3.969053  0  0  -0.256573  0  3.990628  0  -0.032118  0  -0.094054  -0.237196  0  3.954725  0
C  C46  1  0.74974318  0.97354723  0.77823741  1  0  -0.22864  0  3.714563  0  0  -0.244846  0  3.969007  0  0  -0.256646  0  3.990584  0  -0.032115  0  -0.094038  -0.237261  0  3.954683  0
C  C47  1  0.75025817  0.52645472  0.27823803  1  0  -0.22854  0  3.714665  0  0  -0.244764  0  3.969142  0  0  -0.256562  0  3.990715  0  -0.032111  0  -0.094061  -0.237189  0  3.954812  0
C  C48  1  0.22252604  0.10705223  0.15891384  1  0  0.310061  0  3.794293  0  0  0.297346  0  4.042372  0  0  0.313231  0  4.059444  0  0.378948  0  0.123552  0.286792  0  4.030545  0
C  C49  1  0.27747415  0.39294755  0.65891509  1  0  0.310043  0  3.794283  0  0  0.297335  0  4.04237  0  0  0.31322  0  4.059438  0  0.378938  0  0.123558  0.286781  0  4.030542  0
C  C50  1  0.77747166  0.89294820  0.84108491  1  0  0.310096  0  3.79428  0  0  0.297435  0  4.042287  0  0  0.313321  0  4.059364  0  0.378921  0  0.123561  0.286881  0  4.030459  0
C  C51  1  0.72252623  0.60705201  0.34108616  1  0  0.310063  0  3.794399  0  0  0.297367  0  4.042478  0  0  0.313254  0  4.059549  0  0.378955  0  0.123555  0.286812  0  4.030652  0
C  C52  1  0.38618111  0.19503039  0.14020487  1  0  -0.22613  0  3.689875  0  0  -0.244535  0  3.942556  0  0  -0.256209  0  3.963418  0  -0.008289  0  -0.098096  -0.237135  0  3.928898  0
C  C53  1  0.11382203  0.30496939  0.64020611  1  0  -0.226132  0  3.689822  0  0  -0.244535  0  3.942504  0  0  -0.256208  0  3.963359  0  -0.008181  0  -0.098096  -0.237134  0  3.928845  0
C  C54  1  0.61382395  0.80497004  0.85979451  1  0  -0.226188  0  3.689893  0  0  -0.244619  0  3.942579  0  0  -0.256297  0  3.963436  0  -0.008202  0  -0.098129  -0.237218  0  3.928922  0
C  C55  1  0.88618104  0.69502930  0.35979701  1  0  -0.226178  0  3.689937  0  0  -0.244558  0  3.942594  0  0  -0.256229  0  3.963457  0  -0.008316  0  -0.098077  -0.237157  0  3.928935  0
C  C56  1  0.55888187  0.20259653  0.18716780  1  0  0.148659  0  3.720832  0  0  0.114063  0  3.974206  0  0  0.124171  0  3.991317  0  0.49398  0  0.042652  0.107544  0  3.962656  0
C  C57  1  0.94112006  0.29740239  0.68716842  1  0  0.148666  0  3.720786  0  0  0.114078  0  3.974161  0  0  0.124196  0  3.991277  0  0.494008  0  0.042653  0.10756  0  3.962612  0
C  C58  1  0.44111852  0.79740304  0.81283095  1  0  0.148709  0  3.720811  0  0  0.114131  0  3.974192  0  0  0.124249  0  3.991306  0  0.493921  0  0.042704  0.107613  0  3.962641  0
C  C59  1  0.05888179  0.70259718  0.31283345  1  0  0.148695  0  3.720816  0  0  0.114096  0  3.974179  0  0  0.124205  0  3.991292  0  0.493945  0  0.042683  0.107579  0  3.96263  0
C  C60  1  0.94234958  0.32332764  0.97737735  1  0  0.166471  0  3.718896  0  0  0.129175  0  3.976824  0  0  0.13948  0  3.993472  0  0.463043  0  0.051956  0.122519  0  3.96544  0
C  C61  1  0.55765114  0.17667214  0.47737735  1  0  0.166446  0  3.719022  0  0  0.129133  0  3.976954  0  0  0.139438  0  3.993604  0  0.46303  0  0.051917  0.122474  0  3.965569  0
C  C62  1  0.05764959  0.67667280  0.02262203  1  0  0.166475  0  3.718944  0  0  0.129176  0  3.976869  0  0  0.139481  0  3.99352  0  0.46302  0  0.051973  0.122519  0  3.965487  0
C  C63  1  0.44234899  0.82332655  0.52262203  1  0  0.166485  0  3.718981  0  0  0.129184  0  3.976906  0  0  0.139489  0  3.993556  0  0.463057  0  0.051989  0.122526  0  3.965522  0
C  C64  1  0.03066999  0.27179286  0.04201743  1  0  -0.224785  0  3.673279  0  0  -0.2396  0  3.922943  0  0  -0.25159  0  3.943136  0  0.051797  0  -0.092766  -0.231833  0  3.909459  0
C  C65  1  0.46933020  0.22820692  0.54201680  1  0  -0.224781  0  3.673271  0  0  -0.239603  0  3.922945  0  0  -0.251579  0  3.943126  0  0.051812  0  -0.092758  -0.231836  0  3.90946  0
C  C66  1  0.96933117  0.72820931  0.95798257  1  0  -0.224813  0  3.673335  0  0  -0.239613  0  3.92299  0  0  -0.251606  0  3.943179  0  0.051824  0  -0.092779  -0.231845  0  3.909506  0
C  C67  1  0.53066967  0.77179090  0.45798195  1  0  -0.224812  0  3.673357  0  0  -0.239631  0  3.923008  0  0  -0.251607  0  3.943194  0  0.051782  0  -0.092796  -0.231863  0  3.909524  0
C  C68  1  0.96403272  0.15303700  0.05889885  1  0  0.311562  0  3.782507  0  0  0.298389  0  4.030816  0  0  0.314056  0  4.047661  0  0.341033  0  0.124516  0.287965  0  4.019161  0
C  C69  1  0.53596653  0.34696278  0.55889885  1  0  0.311617  0  3.782439  0  0  0.298461  0  4.030728  0  0  0.314107  0  4.047598  0  0.341047  0  0.124548  0.288037  0  4.019072  0
C  C70  1  0.03596646  0.84696343  0.94110178  1  0  0.31156  0  3.782537  0  0  0.298374  0  4.030855  0  0  0.314052  0  4.047692  0  0.341021  0  0.124532  0.28795  0  4.019199  0
C  C71  1  0.46403238  0.65303678  0.44110115  1  0  0.311521  0  3.782595  0  0  0.298394  0  4.030854  0  0  0.314042  0  4.04773  0  0.341016  0  0.12452  0.287971  0  4.019198  0
C  C72  1  0.80105676  0.09527641  0.01163549  1  0  -0.222893  0  3.707044  0  0  -0.240478  0  3.961444  0  0  -0.251354  0  3.981641  0  0.045744  0  -0.095151  -0.233468  0  3.947984  0
C  C73  1  0.69894250  0.40472338  0.51163549  1  0  -0.222906  0  3.706987  0  0  -0.240492  0  3.961388  0  0  -0.251358  0  3.981586  0  0.045737  0  -0.095177  -0.233482  0  3.947927  0
C  C74  1  0.19894415  0.90472490  0.98836451  1  0  -0.222826  0  3.70709  0  0  -0.240394  0  3.961476  0  0  -0.251275  0  3.98167  0  0.04572  0  -0.095125  -0.233384  0  3.948016  0
C  C75  1  0.30105642  0.59527619  0.48836451  1  0  -0.222856  0  3.707086  0  0  -0.240442  0  3.961475  0  0  -0.25131  0  3.981675  0  0.04574  0  -0.095128  -0.233431  0  3.948014  0
C  C76  1  0.72196871  0.15403376  0.94877049  1  0  0.137547  0  3.746005  0  0  0.106276  0  3.997031  0  0  0.115836  0  4.014304  0  0.456912  0  0.037184  0.100188  0  3.98516  0
C  C77  1  0.77803054  0.34596603  0.44877049  1  0  0.137609  0  3.746011  0  0  0.106326  0  3.997035  0  0  0.115886  0  4.014306  0  0.456919  0  0.037199  0.100237  0  3.985162  0
C  C78  1  0.27803046  0.84596668  0.05122888  1  0  0.137493  0  3.746057  0  0  0.10626  0  3.997069  0  0  0.115818  0  4.014344  0  0.456912  0  0.037159  0.100172  0  3.985197  0
C  C79  1  0.22196812  0.65403267  0.55122951  1  0  0.137552  0  3.746078  0  0  0.106277  0  3.997105  0  0  0.115836  0  4.014377  0  0.456892  0  0.037171  0.100188  0  3.985232  0
N  N80  1  0.02265452  0.27273482  0.27863340  1  0  -0.553251  0  2.715201  0  0  -0.521574  0  3.026636  0  0  -0.542301  0  3.030935  0  -0.3207  0  -0.30506  -0.50745  0  3.023628  0
N  N81  1  0.47735233  0.22726757  0.77863277  1  0  -0.553328  0  2.714479  0  0  -0.521715  0  3.026003  0  0  -0.542449  0  3.030291  0  -0.320816  0  -0.305135  -0.507586  0  3.023001  0
N  N82  1  0.97734881  0.72726474  0.72136660  1  0  -0.553293  0  2.714676  0  0  -0.521649  0  3.026171  0  0  -0.542382  0  3.030463  0  -0.320738  0  -0.305108  -0.507526  0  3.023176  0
N  N83  1  0.52264390  0.77273287  0.22136785  1  0  -0.55343  0  2.714198  0  0  -0.521793  0  3.025705  0  0  -0.542537  0  3.029998  0  -0.32088  0  -0.305193  -0.507658  0  3.022702  0
N  N84  1  0.17251378  0.31682262  0.31354424  1  0  0.40335  0  4.259852  0  0  0.442019  0  4.536891  0  0  0.457257  0  4.565953  0  -0.283917  0  0.087656  0.431852  0  4.517173  0
N  N85  1  0.32747629  0.18317281  0.81354673  1  0  0.403428  0  4.260127  0  0  0.44209  0  4.537189  0  0  0.457329  0  4.566247  0  -0.283952  0  0.087732  0.431924  0  4.517472  0
N  N86  1  0.82747943  0.68317259  0.68645451  1  0  0.403388  0  4.259893  0  0  0.44203  0  4.536967  0  0  0.457269  0  4.566027  0  -0.283936  0  0.087681  0.431864  0  4.517251  0
N  N87  1  0.67253127  0.81683110  0.18645202  1  0  0.403471  0  4.260306  0  0  0.442118  0  4.537371  0  0  0.457356  0  4.566427  0  -0.283963  0  0.087767  0.43195  0  4.517654  0
N  N88  1  0.32133798  0.36131487  0.34527654  1  0  -0.431461  0  2.493608  0  0  -0.430268  0  2.730266  0  0  -0.43871  0  2.740969  0  -0.128427  0  -0.213982  -0.424344  0  2.723127  0
N  N89  1  0.17867182  0.13868752  0.84527466  1  0  -0.431409  0  2.49461  0  0  -0.430188  0  2.731252  0  0  -0.438622  0  2.741951  0  -0.128226  0  -0.213955  -0.42427  0  2.724113  0
N  N90  1  0.67866656  0.63868383  0.65472534  1  0  -0.431429  0  2.494143  0  0  -0.43021  0  2.730805  0  0  -0.438644  0  2.741506  0  -0.128349  0  -0.213952  -0.424288  0  2.723667  0
N  N91  1  0.82132295  0.86131291  0.15472596  1  0  -0.431327  0  2.495069  0  0  -0.430107  0  2.731734  0  0  -0.43853  0  2.74243  0  -0.128159  0  -0.213905  -0.424194  0  2.724598  0
N  N92  1  0.86332161  0.99982909  0.35952968  1  0  -0.588129  0  2.724239  0  0  -0.556521  0  3.045814  0  0  -0.578252  0  3.048773  0  -0.340852  0  -0.328572  -0.541523  0  3.043565  0
N  N93  1  0.63667949  0.50017200  0.85953156  1  0  -0.588015  0  2.724345  0  0  -0.556404  0  3.045946  0  0  -0.578133  0  3.048915  0  -0.340812  0  -0.32849  -0.541409  0  3.043696  0
N  N94  1  0.13668172  0.00017048  0.64046907  1  0  -0.588274  0  2.723998  0  0  -0.556664  0  3.045602  0  0  -0.578402  0  3.048569  0  -0.340856  0  -0.328686  -0.541663  0  3.043351  0
N  N95  1  0.36331848  0.49982931  0.14046907  1  0  -0.588077  0  2.72418  0  0  -0.556473  0  3.045785  0  0  -0.578201  0  3.048746  0  -0.340869  0  -0.328519  -0.541478  0  3.043538  0
N  N96  1  0.00994074  0.98024012  0.39519128  1  0  0.388887  0  4.270786  0  0  0.427266  0  4.548803  0  0  0.442597  0  4.578287  0  -0.332743  0  0.07854  0.417026  0  4.528705  0
N  N97  1  0.49006519  0.51975923  0.89519128  1  0  0.388883  0  4.270732  0  0  0.427237  0  4.548803  0  0  0.442566  0  4.578285  0  -0.332718  0  0.078478  0.416997  0  4.528703  0
N  N98  1  0.99005696  0.01976032  0.60480685  1  0  0.388961  0  4.270711  0  0  0.427313  0  4.548763  0  0  0.442642  0  4.578243  0  -0.332957  0  0.078607  0.417074  0  4.528667  0
N  N99  1  0.50993373  0.48024033  0.10480872  1  0  0.388935  0  4.270549  0  0  0.427294  0  4.548612  0  0  0.442624  0  4.578087  0  -0.332713  0  0.078495  0.417053  0  4.528516  0
N  N100  1  0.14823788  0.95379996  0.42834765  1  0  -0.410001  0  2.424166  0  0  -0.407588  0  2.653245  0  0  -0.415828  0  2.664978  0  -0.051005  0  -0.202888  -0.4017  0  2.645316  0
N  N101  1  0.35175923  0.54619938  0.92834890  1  0  -0.410124  0  2.423965  0  0  -0.407707  0  2.653064  0  0  -0.415953  0  2.664799  0  -0.051077  0  -0.202936  -0.40181  0  2.64513  0
N  N102  1  0.85176518  0.04619873  0.57165173  1  0  -0.409945  0  2.424323  0  0  -0.407544  0  2.653457  0  0  -0.415782  0  2.66519  0  -0.05079  0  -0.202873  -0.401658  0  2.645529  0
N  N103  1  0.64823649  0.45379931  0.07165110  1  0  -0.41013  0  2.423948  0  0  -0.407721  0  2.653053  0  0  -0.415966  0  2.664785  0  -0.051035  0  -0.202936  -0.401824  0  2.645121  0
N  N104  1  0.58127278  0.12787802  0.24927516  1  0  -0.349407  0  3.31748  0  0  -0.262189  0  3.596255  0  0  -0.281919  0  3.609196  0  -1.286777  0  -0.354333  -0.249033  0  3.587367  0
N  N105  1  0.91872794  0.37212177  0.74927641  1  0  -0.349411  0  3.317372  0  0  -0.262229  0  3.596183  0  0  -0.281958  0  3.609119  0  -1.286778  0  -0.354346  -0.249074  0  3.587297  0
N  N106  1  0.41872613  0.87212155  0.75072359  1  0  -0.349388  0  3.317529  0  0  -0.262216  0  3.596336  0  0  -0.281949  0  3.609285  0  -1.286807  0  -0.354328  -0.249059  0  3.587449  0
N  N107  1  0.08127124  0.62787867  0.25072546  1  0  -0.349345  0  3.31749  0  0  -0.26209  0  3.596199  0  0  -0.281821  0  3.609149  0  -1.286733  0  -0.354341  -0.248936  0  3.587314  0
N  N108  1  0.04095752  0.08884967  0.11886512  1  0  -0.401322  0  3.39308  0  0  -0.341212  0  3.622346  0  0  -0.363211  0  3.632717  0  -1.285874  0  -0.390853  -0.32582  0  3.614604  0
N  N109  1  0.45904267  0.41115011  0.61886512  1  0  -0.401329  0  3.393007  0  0  -0.341223  0  3.622271  0  0  -0.363232  0  3.632689  0  -1.285868  0  -0.390876  -0.325831  0  3.614529  0
N  N110  1  0.95904312  0.91115076  0.88113363  1  0  -0.401319  0  3.392984  0  0  -0.341229  0  3.622251  0  0  -0.363213  0  3.632568  0  -1.285834  0  -0.39086  -0.325834  0  3.614506  0
N  N111  1  0.54095625  0.58884945  0.38113488  1  0  -0.401277  0  3.392967  0  0  -0.341232  0  3.622273  0  0  -0.363217  0  3.632631  0  -1.285862  0  -0.390869  -0.32584  0  3.614532  0
N  N112  1  0.79243423  0.26652901  0.93010524  1  0  -0.354888  0  3.33607  0  0  -0.271755  0  3.618071  0  0  -0.292199  0  3.632361  0  -1.27873  0  -0.345159  -0.258074  0  3.608067  0
N  N113  1  0.70756675  0.23347164  0.43010587  1  0  -0.35495  0  3.336209  0  0  -0.271775  0  3.61817  0  0  -0.292222  0  3.632467  0  -1.278751  0  -0.345128  -0.258092  0  3.608164  0
N  N114  1  0.20756641  0.73347142  0.06989476  1  0  -0.354958  0  3.33608  0  0  -0.271846  0  3.618095  0  0  -0.29229  0  3.632382  0  -1.278694  0  -0.34518  -0.258165  0  3.608093  0
N  N115  1  0.29243364  0.76652792  0.56989476  1  0  -0.354948  0  3.336171  0  0  -0.271801  0  3.618158  0  0  -0.292247  0  3.632452  0  -1.27872  0  -0.345171  -0.258119  0  3.608153  0
