# generated using pymatgen
data_TbH6(C2N3)3
_symmetry_space_group_name_H-M   'P 1'
_cell_length_a   8.53405410
_cell_length_b   8.53406698
_cell_length_c   9.31264140
_cell_angle_alpha   62.72608705
_cell_angle_beta   62.72518333
_cell_angle_gamma   59.99642783
_symmetry_Int_Tables_number   1
_chemical_formula_structural   TbH6(C2N3)3
_chemical_formula_sum   'Tb2 H12 C12 N18'
_cell_volume   498.39156605
_cell_formula_units_Z   2
loop_
 _symmetry_equiv_pos_site_id
 _symmetry_equiv_pos_as_xyz
  1  'x, y, z'
loop_
 _atom_site_type_symbol
 _atom_site_label
 _atom_site_symmetry_multiplicity
 _atom_site_fract_x
 _atom_site_fract_y
 _atom_site_fract_z
 _atom_site_occupancy
 _atom_site_hle17_bader_spin_density
 _atom_site_hle17_ddec_charge
 _atom_site_hle17_ddec_spin_density
 _atom_site_hle17_ddec_sum_bond_order
 _atom_site_hle17_magmom
 _atom_site_hse06_10hf_bader_spin_density
 _atom_site_hse06_10hf_ddec_charge
 _atom_site_hse06_10hf_ddec_spin_density
 _atom_site_hse06_10hf_ddec_sum_bond_order
 _atom_site_hse06_10hf_magmom
 _atom_site_hse06_bader_spin_density
 _atom_site_hse06_ddec_charge
 _atom_site_hse06_ddec_spin_density
 _atom_site_hse06_ddec_sum_bond_order
 _atom_site_hse06_magmom
 _atom_site_pbe_bader_spin_density
 _atom_site_pbe_cm5_charge
 _atom_site_pbe_ddec_charge
 _atom_site_pbe_ddec_spin_density
 _atom_site_pbe_ddec_sum_bond_order
 _atom_site_pbe_magmom
Tb  Tb0  1  0.80743356  0.80746410  0.57766849  1  0  1.823712  0  2.144167  0  0  1.557235  0  2.736884  0  0  1.629425  0  2.664546  0  0  1.770779  1.506693  0  2.786462  0
Tb  Tb1  1  0.19256572  0.19253495  0.42233200  1  0  1.823733  0  2.144163  0  0  1.557239  0  2.736916  0  0  1.629432  0  2.664575  0  0  1.770801  1.506699  0  2.786493  0
H  H2  1  0.51571429  0.14737117  0.96535166  1  0  0.10266  0  0.974079  0  0  0.109449  0  1.041658  0  0  0.112308  0  1.039798  0  0  0.120238  0.107384  0  1.043072  0
H  H3  1  0.14752308  0.37156013  0.96522052  1  0  0.102582  0  0.973755  0  0  0.109014  0  1.042035  0  0  0.11186  0  1.040231  0  0  0.120088  0.106966  0  1.043395  0
H  H4  1  0.37158710  0.51567489  0.96537679  1  0  0.102727  0  0.974151  0  0  0.109549  0  1.04212  0  0  0.112423  0  1.040251  0  0  0.120165  0.107487  0  1.043523  0
H  H5  1  0.48428498  0.85262788  0.03464883  1  0  0.102654  0  0.97408  0  0  0.109441  0  1.041664  0  0  0.112293  0  1.039811  0  0  0.120232  0.107376  0  1.043077  0
H  H6  1  0.85247566  0.62844034  0.03477959  1  0  0.102567  0  0.973769  0  0  0.108998  0  1.042052  0  0  0.111845  0  1.040247  0  0  0.120081  0.10695  0  1.043412  0
H  H7  1  0.62841140  0.48432416  0.03462315  1  0  0.102733  0  0.974121  0  0  0.109555  0  1.042093  0  0  0.112429  0  1.040224  0  0  0.120173  0.107493  0  1.043497  0
H  H8  1  0.77904772  0.32532954  0.79296224  1  0  0.107707  0  0.972431  0  0  0.111537  0  1.042519  0  0  0.114171  0  1.040975  0  0  0.125348  0.109641  0  1.043639  0
H  H9  1  0.32544335  0.10270483  0.79277303  1  0  0.10835  0  0.971957  0  0  0.111564  0  1.042821  0  0  0.114128  0  1.041369  0  0  0.125462  0.109725  0  1.043857  0
H  H10  1  0.10261771  0.77905516  0.79305340  1  0  0.108206  0  0.972457  0  0  0.111734  0  1.042829  0  0  0.114313  0  1.041364  0  0  0.125498  0.109859  0  1.043921  0
H  H11  1  0.22095155  0.67466951  0.20703825  1  0  0.107687  0  0.97247  0  0  0.111517  0  1.042565  0  0  0.11415  0  1.041022  0  0  0.125354  0.109624  0  1.043676  0
H  H12  1  0.67455702  0.89729706  0.20722456  1  0  0.108355  0  0.971914  0  0  0.11157  0  1.04278  0  0  0.114135  0  1.041328  0  0  0.125463  0.109732  0  1.043813  0
H  H13  1  0.89737843  0.22094531  0.20694669  1  0  0.108238  0  0.972402  0  0  0.111723  0  1.042812  0  0  0.114301  0  1.041347  0  0  0.125502  0.109848  0  1.043907  0
C  C14  1  0.63850300  0.12936062  0.85487342  1  0  0.003936  0  3.708439  0  0  -0.023984  0  3.970242  0  0  -0.023575  0  3.987646  0  0  0.011105  -0.024345  0  3.958553  0
C  C15  1  0.12950033  0.37735339  0.85472696  1  0  0.005849  0  3.707941  0  0  -0.021997  0  3.969732  0  0  -0.021586  0  3.987084  0  0  0.011979  -0.02236  0  3.958055  0
C  C16  1  0.37730530  0.63844162  0.85487643  1  0  0.004797  0  3.710517  0  0  -0.023532  0  3.972345  0  0  -0.023162  0  3.989803  0  0  0.011793  -0.023872  0  3.960597  0
C  C17  1  0.36149575  0.87063985  0.14512670  1  0  0.003917  0  3.708323  0  0  -0.024001  0  3.970129  0  0  -0.023587  0  3.987538  0  0  0.011111  -0.024363  0  3.95844  0
C  C18  1  0.87050001  0.62264566  0.14527246  1  0  0.005887  0  3.707794  0  0  -0.021958  0  3.969583  0  0  -0.021547  0  3.986936  0  0  0.012023  -0.02232  0  3.957907  0
C  C19  1  0.62269214  0.36155743  0.14512458  1  0  0.00485  0  3.710507  0  0  -0.023484  0  3.972329  0  0  -0.023113  0  3.989786  0  0  0.011809  -0.023823  0  3.960581  0
C  C20  1  0.76977032  0.21754856  0.76971565  1  0  0.026545  0  3.679923  0  0  -0.008336  0  3.943858  0  0  -0.004696  0  3.9601  0  0  0.023232  -0.010683  0  3.932853  0
C  C21  1  0.21771142  0.24306229  0.76954833  1  0  0.023862  0  3.679987  0  0  -0.010622  0  3.944578  0  0  -0.006955  0  3.96077  0  0  0.021593  -0.012984  0  3.933601  0
C  C22  1  0.24295424  0.76972646  0.76976634  1  0  0.0244  0  3.676716  0  0  -0.010185  0  3.941156  0  0  -0.00653  0  3.957347  0  0  0.022041  -0.012526  0  3.930155  0
C  C23  1  0.23022711  0.78245049  0.23028536  1  0  0.026579  0  3.67989  0  0  -0.008304  0  3.943824  0  0  -0.004662  0  3.960063  0  0  0.023212  -0.01065  0  3.932819  0
C  C24  1  0.78228809  0.75693817  0.23045234  1  0  0.023845  0  3.679862  0  0  -0.010644  0  3.944458  0  0  -0.006977  0  3.960651  0  0  0.021577  -0.013004  0  3.933482  0
C  C25  1  0.75704374  0.23027401  0.23023322  1  0  0.024359  0  3.676675  0  0  -0.010185  0  3.941121  0  0  -0.006531  0  3.957314  0  0  0.022055  -0.012529  0  3.930125  0
N  N26  1  0.84520284  0.01890715  0.64534418  1  0  -0.221854  0  3.337553  0  0  -0.17632  0  3.619446  0  0  -0.186227  0  3.642841  0  0  -0.264811  -0.169413  0  3.603428  0
N  N27  1  0.01889640  0.49058837  0.64530784  1  0  -0.221155  0  3.338747  0  0  -0.175618  0  3.620572  0  0  -0.185545  0  3.643993  0  0  -0.26448  -0.1687  0  3.60454  0
N  N28  1  0.49053115  0.84520319  0.64538445  1  0  -0.220682  0  3.336996  0  0  -0.175119  0  3.618835  0  0  -0.185016  0  3.642217  0  0  -0.26426  -0.168224  0  3.602836  0
N  N29  1  0.15479591  0.98109331  0.35465593  1  0  -0.221893  0  3.337573  0  0  -0.176357  0  3.619463  0  0  -0.186263  0  3.642858  0  0  -0.264812  -0.169449  0  3.603446  0
N  N30  1  0.98110210  0.50941068  0.35469209  1  0  -0.221274  0  3.338851  0  0  -0.175738  0  3.620679  0  0  -0.185666  0  3.644101  0  0  -0.264539  -0.16882  0  3.604648  0
N  N31  1  0.50946705  0.15479585  0.35461712  1  0  -0.220742  0  3.337033  0  0  -0.175182  0  3.618878  0  0  -0.185081  0  3.642259  0  0  -0.26432  -0.168288  0  3.602879  0
N  N32  1  0.89718759  0.14627774  0.63912863  1  0  -0.297806  0  3.23464  0  0  -0.247016  0  3.513682  0  0  -0.25985  0  3.533667  0  0  -0.306985  -0.238159  0  3.500029  0
N  N33  1  0.14632285  0.31746755  0.63905213  1  0  -0.297955  0  3.235335  0  0  -0.247186  0  3.51438  0  0  -0.260018  0  3.534345  0  0  -0.306726  -0.238338  0  3.500758  0
N  N34  1  0.31737303  0.89718270  0.63919750  1  0  -0.298928  0  3.231045  0  0  -0.248116  0  3.510268  0  0  -0.260948  0  3.53022  0  0  -0.307426  -0.239267  0  3.496646  0
N  N35  1  0.10281116  0.85372272  0.36087149  1  0  -0.297796  0  3.234658  0  0  -0.247009  0  3.513701  0  0  -0.259843  0  3.533687  0  0  -0.306985  -0.238152  0  3.500049  0
N  N36  1  0.85367697  0.68253291  0.36094691  1  0  -0.297906  0  3.23528  0  0  -0.247137  0  3.514323  0  0  -0.259969  0  3.534289  0  0  -0.306706  -0.23829  0  3.500702  0
N  N37  1  0.68262495  0.10281777  0.36080206  1  0  -0.298922  0  3.23108  0  0  -0.248106  0  3.510275  0  0  -0.260939  0  3.530231  0  0  -0.307413  -0.239256  0  3.496652  0
N  N38  1  0.68952683  0.00573543  0.77417769  1  0  -0.328913  0  3.171747  0  0  -0.284064  0  3.450143  0  0  -0.294886  0  3.469244  0  0  -0.298401  -0.276348  0  3.437025  0
N  N39  1  0.00577163  0.53062062  0.77410528  1  0  -0.329352  0  3.171879  0  0  -0.284267  0  3.449943  0  0  -0.29509  0  3.469063  0  0  -0.298236  -0.276545  0  3.436808  0
N  N40  1  0.53057967  0.68950703  0.77419328  1  0  -0.328705  0  3.17333  0  0  -0.283729  0  3.451772  0  0  -0.294551  0  3.470871  0  0  -0.298005  -0.276003  0  3.43864  0
N  N41  1  0.31047269  0.99426503  0.22582297  1  0  -0.328871  0  3.171702  0  0  -0.284017  0  3.450088  0  0  -0.29484  0  3.46919  0  0  -0.298381  -0.276302  0  3.436972  0
N  N42  1  0.99422764  0.46937843  0.22589521  1  0  -0.329295  0  3.171979  0  0  -0.284207  0  3.450027  0  0  -0.295029  0  3.469148  0  0  -0.298225  -0.276486  0  3.436894  0
N  N43  1  0.46941828  0.31049060  0.22580811  1  0  -0.32869  0  3.173297  0  0  -0.283705  0  3.451729  0  0  -0.294529  0  3.470831  0  0  -0.298003  -0.275981  0  3.4386  0
