# generated using pymatgen
data_CdH23C29N5O7
_symmetry_space_group_name_H-M   'P 1'
_cell_length_a   9.03875729
_cell_length_b   11.03457066
_cell_length_c   15.63815169
_cell_angle_alpha   89.99921082
_cell_angle_beta   89.99986458
_cell_angle_gamma   102.74709818
_symmetry_Int_Tables_number   1
_chemical_formula_structural   CdH23C29N5O7
_chemical_formula_sum   'Cd2 H46 C58 N10 O14'
_cell_volume   1521.28867163
_cell_formula_units_Z   2
loop_
 _symmetry_equiv_pos_site_id
 _symmetry_equiv_pos_as_xyz
  1  'x, y, z'
loop_
 _atom_site_type_symbol
 _atom_site_label
 _atom_site_symmetry_multiplicity
 _atom_site_fract_x
 _atom_site_fract_y
 _atom_site_fract_z
 _atom_site_occupancy
 _atom_site_hle17_bader_spin_density
 _atom_site_hle17_ddec_charge
 _atom_site_hle17_ddec_spin_density
 _atom_site_hle17_ddec_sum_bond_order
 _atom_site_hle17_magmom
 _atom_site_hse06_10hf_bader_spin_density
 _atom_site_hse06_10hf_ddec_charge
 _atom_site_hse06_10hf_ddec_spin_density
 _atom_site_hse06_10hf_ddec_sum_bond_order
 _atom_site_hse06_10hf_magmom
 _atom_site_hse06_bader_spin_density
 _atom_site_hse06_ddec_charge
 _atom_site_hse06_ddec_spin_density
 _atom_site_hse06_ddec_sum_bond_order
 _atom_site_hse06_magmom
 _atom_site_pbe_bader_spin_density
 _atom_site_pbe_cm5_charge
 _atom_site_pbe_ddec_charge
 _atom_site_pbe_ddec_spin_density
 _atom_site_pbe_ddec_sum_bond_order
 _atom_site_pbe_magmom
Cd  Cd0  1  0.96175801  0.96249179  0.19930656  1  0  1.067203  0  1.679221  0  0  0.86536  0  2.123794  0  0  0.924995  0  2.073403  0  0  0.765081  0.823365  0  2.157981  0
Cd  Cd1  1  0.03824611  0.03750928  0.69929982  1  0  1.067257  0  1.679166  0  0  0.865432  0  2.123726  0  0  0.925066  0  2.073334  0  0  0.765076  0.82343  0  2.157926  0
H  H2  1  0.58511500  0.13812926  0.26370975  1  0  0.285003  0  0.900357  0  0  0.275086  0  0.954441  0  0  0.281127  0  0.951187  0  0  0.314506  0.270771  0  0.956903  0
H  H3  1  0.41488654  0.86187137  0.76372005  1  0  0.285028  0  0.900169  0  0  0.275117  0  0.954247  0  0  0.281157  0  0.950992  0  0  0.314543  0.270799  0  0.95671  0
H  H4  1  0.97653300  0.30772500  0.82612741  1  0  0.311056  0  0.923209  0  0  0.289105  0  0.993953  0  0  0.297739  0  0.987289  0  0  0.305073  0.283004  0  0.998659  0
H  H5  1  0.02347347  0.69227429  0.32612468  1  0  0.311143  0  0.923109  0  0  0.289183  0  0.993871  0  0  0.297812  0  0.987208  0  0  0.305125  0.283081  0  0.998578  0
H  H6  1  0.80227549  0.22569376  0.57944341  1  0  0.310382  0  0.927206  0  0  0.288633  0  0.996875  0  0  0.297686  0  0.989474  0  0  0.303842  0.282253  0  1.002071  0
H  H7  1  0.19771228  0.77430248  0.07944219  1  0  0.31045  0  0.927159  0  0  0.288645  0  0.996937  0  0  0.297702  0  0.989532  0  0  0.303849  0.282263  0  1.002136  0
H  H8  1  0.77044159  0.53203450  0.31995476  1  0  0.108495  0  0.952552  0  0  0.11517  0  1.018164  0  0  0.119286  0  1.014999  0  0  0.104408  0.11217  0  1.020576  0
H  H9  1  0.22954292  0.46796127  0.81995892  1  0  0.108458  0  0.952529  0  0  0.115118  0  1.018187  0  0  0.119233  0  1.01502  0  0  0.104354  0.112118  0  1.020598  0
H  H10  1  0.67048140  0.60853646  0.05875479  1  0  0.106886  0  0.931599  0  0  0.116204  0  0.988665  0  0  0.12035  0  0.985769  0  0  0.106516  0.113191  0  0.990873  0
H  H11  1  0.32953496  0.39147501  0.55876339  1  0  0.106893  0  0.93157  0  0  0.116249  0  0.988599  0  0  0.120397  0  0.985698  0  0  0.106511  0.113236  0  0.990808  0
H  H12  1  0.65078921  0.31279983  0.30022276  1  0  0.080558  0  0.967841  0  0  0.092066  0  1.027846  0  0  0.095107  0  1.026501  0  0  0.098429  0.089871  0  1.028971  0
H  H13  1  0.34918460  0.68720105  0.80022973  1  0  0.080445  0  0.967913  0  0  0.092004  0  1.02788  0  0  0.095044  0  1.026542  0  0  0.098412  0.089808  0  1.029006  0
H  H14  1  0.55362577  0.38334308  0.03663251  1  0  0.118005  0  0.954671  0  0  0.126076  0  1.015666  0  0  0.130454  0  1.011659  0  0  0.108925  0.122898  0  1.01866  0
H  H15  1  0.44638145  0.61666702  0.53664195  1  0  0.118037  0  0.954721  0  0  0.126116  0  1.015685  0  0  0.130482  0  1.011692  0  0  0.108942  0.122938  0  1.018679  0
H  H16  1  0.46789471  0.95117744  0.13565686  1  0  0.066065  0  0.900132  0  0  0.078504  0  0.954846  0  0  0.080047  0  0.953326  0  0  0.11591  0.077325  0  0.956189  0
H  H17  1  0.53209761  0.04882409  0.63566210  1  0  0.065951  0  0.900187  0  0  0.078463  0  0.954831  0  0  0.080002  0  0.953309  0  0  0.115873  0.077283  0  0.956173  0
H  H18  1  0.41460631  0.80793973  0.26020109  1  0  0.119107  0  0.956779  0  0  0.139686  0  1.016044  0  0  0.140476  0  1.017419  0  0  0.095319  0.139057  0  1.015136  0
H  H19  1  0.58539833  0.19206003  0.76020486  1  0  0.119111  0  0.956778  0  0  0.139773  0  1.015967  0  0  0.140562  0  1.01734  0  0  0.095326  0.139143  0  1.015058  0
H  H20  1  0.45992245  0.93558694  0.33235410  1  0  0.111722  0  0.933771  0  0  0.13361  0  0.990539  0  0  0.135311  0  0.99024  0  0  0.092981  0.132388  0  0.990805  0
H  H21  1  0.54008319  0.06440942  0.83235726  1  0  0.111663  0  0.933732  0  0  0.133582  0  0.990483  0  0  0.13528  0  0.99019  0  0  0.09296  0.132357  0  0.99075  0
H  H22  1  0.60205871  0.89813084  0.26346049  1  0  0.108354  0  0.967547  0  0  0.126244  0  1.035723  0  0  0.127582  0  1.035548  0  0  0.090499  0.125347  0  1.035718  0
H  H23  1  0.39794530  0.10187072  0.76347052  1  0  0.10836  0  0.967651  0  0  0.126287  0  1.035799  0  0  0.127626  0  1.03562  0  0  0.090501  0.125389  0  1.035789  0
H  H24  1  0.17482521  0.13643804  0.05766907  1  0  0.087145  0  0.95553  0  0  0.09526  0  1.020751  0  0  0.097442  0  1.018952  0  0  0.116017  0.093585  0  1.02207  0
H  H25  1  0.82518879  0.86356881  0.55767110  1  0  0.086957  0  0.955625  0  0  0.095108  0  1.020841  0  0  0.097275  0  1.019064  0  0  0.115949  0.09344  0  1.022151  0
H  H26  1  0.71041304  0.05452339  0.10140700  1  0  0.071313  0  0.967006  0  0  0.07864  0  1.03552  0  0  0.080837  0  1.033191  0  0  0.112282  0.076936  0  1.037368  0
H  H27  1  0.28959705  0.94546579  0.60140004  1  0  0.071255  0  0.967068  0  0  0.078543  0  1.035627  0  0  0.080739  0  1.0333  0  0  0.112253  0.07684  0  1.037475  0
H  H28  1  0.14463044  0.25946973  0.92769523  1  0  0.130601  0  0.934416  0  0  0.142445  0  0.988676  0  0  0.146429  0  0.986372  0  0  0.118231  0.13943  0  0.990796  0
H  H29  1  0.85537912  0.74054226  0.42769404  1  0  0.130613  0  0.934422  0  0  0.142471  0  0.988653  0  0  0.146454  0  0.986352  0  0  0.118267  0.139455  0  0.990773  0
H  H30  1  0.66254326  0.18209187  0.97860087  1  0  0.134837  0  0.96293  0  0  0.141763  0  1.02346  0  0  0.145836  0  1.021546  0  0  0.113507  0.138847  0  1.025024  0
H  H31  1  0.33746845  0.81790043  0.47859519  1  0  0.134901  0  0.962872  0  0  0.141804  0  1.023424  0  0  0.145873  0  1.021513  0  0  0.113531  0.138887  0  1.024989  0
H  H32  1  0.85770532  0.30007060  0.69499759  1  0  0.104501  0  0.998401  0  0  0.108911  0  1.071651  0  0  0.112662  0  1.069266  0  0  0.10427  0.106119  0  1.073521  0
H  H33  1  0.14230938  0.69992867  0.19499269  1  0  0.104325  0  0.9982  0  0  0.10871  0  1.07154  0  0  0.112448  0  1.069194  0  0  0.104194  0.105914  0  1.073418  0
H  H34  1  0.77111850  0.62090391  0.56436365  1  0  0.097941  0  0.969017  0  0  0.105238  0  1.035373  0  0  0.108446  0  1.033215  0  0  0.105627  0.102968  0  1.036893  0
H  H35  1  0.22888702  0.37908422  0.06436942  1  0  0.097936  0  0.96907  0  0  0.105266  0  1.035388  0  0  0.108479  0  1.033224  0  0  0.105627  0.102995  0  1.036909  0
H  H36  1  0.72034504  0.71295806  0.70461830  1  0  0.104385  0  0.966105  0  0  0.111145  0  1.030652  0  0  0.114211  0  1.029569  0  0  0.102408  0.108883  0  1.031684  0
H  H37  1  0.27963965  0.28703273  0.20462617  1  0  0.10433  0  0.966167  0  0  0.111044  0  1.030759  0  0  0.114104  0  1.029689  0  0  0.102392  0.108784  0  1.031788  0
H  H38  1  0.71557870  0.58721779  0.83786101  1  0  0.103962  0  0.928455  0  0  0.115316  0  0.98322  0  0  0.11913  0  0.98053  0  0  0.110782  0.11245  0  0.985391  0
H  H39  1  0.28440912  0.41277015  0.33786637  1  0  0.104042  0  0.928389  0  0  0.115333  0  0.983211  0  0  0.119148  0  0.980521  0  0  0.110759  0.112476  0  0.98537  0
H  H40  1  0.96413294  0.37174326  0.37416897  1  0  0.13272  0  0.969809  0  0  0.139008  0  1.031538  0  0  0.142773  0  1.03051  0  0  0.112708  0.136301  0  1.032413  0
H  H41  1  0.03586745  0.62825874  0.87416737  1  0  0.132683  0  0.969844  0  0  0.138978  0  1.031566  0  0  0.14274  0  1.030544  0  0  0.112687  0.136272  0  1.032444  0
H  H42  1  0.73287383  0.03888384  0.50662950  1  0  0.130092  0  0.960952  0  0  0.135868  0  1.027245  0  0  0.140051  0  1.025087  0  0  0.112343  0.132878  0  1.028933  0
H  H43  1  0.26710716  0.96111490  0.00662764  1  0  0.130218  0  0.960877  0  0  0.13594  0  1.027226  0  0  0.140124  0  1.025068  0  0  0.112432  0.132949  0  1.028913  0
H  H44  1  0.99238775  0.23819208  0.25062431  1  0  0.074848  0  0.953725  0  0  0.083821  0  1.018529  0  0  0.085345  0  1.018022  0  0  0.114489  0.08268  0  1.018976  0
H  H45  1  0.00761664  0.76181068  0.75062145  1  0  0.074843  0  0.953745  0  0  0.083822  0  1.018542  0  0  0.085343  0  1.018038  0  0  0.114484  0.082689  0  1.01898  0
H  H46  1  0.77241553  0.91919460  0.37758885  1  0  0.081203  0  0.942949  0  0  0.092424  0  1.002028  0  0  0.094337  0  1.000454  0  0  0.119559  0.090981  0  1.003224  0
H  H47  1  0.22756654  0.08080924  0.87758462  1  0  0.081243  0  0.942933  0  0  0.092428  0  1.002049  0  0  0.094317  0  1.000506  0  0  0.1196  0.090984  0  1.003246  0
C  C48  1  0.80072165  0.71909025  0.20147947  1  0  0.6315  0  3.920352  0  0  0.584582  0  4.206639  0  0  0.618725  0  4.200913  0  0  0.194801  0.561508  0  4.209524  0
C  C49  1  0.19928382  0.28091169  0.70148293  1  0  0.631482  0  3.92035  0  0  0.584574  0  4.206604  0  0  0.618719  0  4.200877  0  0  0.194827  0.561508  0  4.209482  0
C  C50  1  0.72817044  0.58459277  0.19020327  1  0  -0.052327  0  3.75288  0  0  -0.02959  0  3.983243  0  0  -0.036502  0  4.006403  0  0  -0.014167  -0.025155  0  3.967633  0
C  C51  1  0.27182910  0.41540757  0.69020724  1  0  -0.052661  0  3.752979  0  0  -0.029879  0  3.983297  0  0  -0.036799  0  4.006461  0  0  -0.014259  -0.025444  0  3.967681  0
C  C52  1  0.72319892  0.50002451  0.25770079  1  0  -0.068833  0  3.718454  0  0  -0.091743  0  3.967664  0  0  -0.092739  0  3.987678  0  0  -0.0835  -0.090977  0  3.954178  0
C  C53  1  0.27677760  0.49997354  0.75770713  1  0  -0.068693  0  3.718124  0  0  -0.0916  0  3.967364  0  0  -0.092588  0  3.987373  0  0  -0.083412  -0.090833  0  3.953875  0
C  C54  1  0.66579977  0.54199633  0.11073185  1  0  -0.058812  0  3.709863  0  0  -0.080827  0  3.955695  0  0  -0.081677  0  3.975366  0  0  -0.077569  -0.080211  0  3.942364  0
C  C55  1  0.33420061  0.45801408  0.61073404  1  0  -0.058682  0  3.709884  0  0  -0.080764  0  3.955687  0  0  -0.081609  0  3.975352  0  0  -0.077551  -0.08015  0  3.942354  0
C  C56  1  0.65575520  0.37507433  0.24564823  1  0  -0.085778  0  3.754217  0  0  -0.108177  0  4.003921  0  0  -0.109734  0  4.025523  0  0  -0.0885  -0.107102  0  3.989288  0
C  C57  1  0.34421999  0.62492677  0.74565134  1  0  -0.085703  0  3.753892  0  0  -0.108171  0  4.003644  0  0  -0.109734  0  4.025246  0  0  -0.0885  -0.107092  0  3.989012  0
C  C58  1  0.59996027  0.41698152  0.09857122  1  0  -0.060544  0  3.712882  0  0  -0.086168  0  3.963137  0  0  -0.086868  0  3.983033  0  0  -0.076887  -0.085568  0  3.949685  0
C  C59  1  0.40003164  0.58303010  0.59857722  1  0  -0.06064  0  3.712957  0  0  -0.086236  0  3.963173  0  0  -0.086932  0  3.983079  0  0  -0.076914  -0.085632  0  3.949721  0
C  C60  1  0.59406746  0.33214372  0.16594597  1  0  -0.061015  0  3.775237  0  0  -0.03944  0  4.010888  0  0  -0.046279  0  4.03556  0  0  -0.014057  -0.034919  0  3.994175  0
C  C61  1  0.40592167  0.66786275  0.66594921  1  0  -0.06092  0  3.774859  0  0  -0.039341  0  4.010517  0  0  -0.046175  0  4.035184  0  0  -0.01399  -0.034816  0  3.993821  0
C  C62  1  0.51490833  0.20041444  0.14908022  1  0  0.532279  0  3.858526  0  0  0.483199  0  4.156664  0  0  0.512603  0  4.155075  0  0  0.237514  0.463343  0  4.157052  0
C  C63  1  0.48507706  0.79959427  0.64908591  1  0  0.532308  0  3.858288  0  0  0.483215  0  4.156405  0  0  0.512616  0  4.154816  0  0  0.23754  0.463335  0  4.156834  0
C  C64  1  0.44253899  0.98663935  0.19855609  1  0  0.093594  0  3.673754  0  0  0.077481  0  3.919629  0  0  0.078373  0  3.931425  0  0  0.01244  0.076677  0  3.911733  0
C  C65  1  0.55745961  0.01336175  0.69856483  1  0  0.093652  0  3.674  0  0  0.077456  0  3.919948  0  0  0.078363  0  3.931718  0  0  0.012507  0.076651  0  3.912054  0
C  C66  1  0.48236047  0.90256802  0.26832814  1  0  -0.320573  0  3.654379  0  0  -0.399565  0  3.890593  0  0  -0.40147  0  3.899526  0  0  -0.23844  -0.397979  0  3.884401  0
C  C67  1  0.51764094  0.09743624  0.76833612  1  0  -0.320497  0  3.654386  0  0  -0.399609  0  3.890528  0  0  -0.401524  0  3.899473  0  0  -0.238426  -0.398013  0  3.88433  0
C  C68  1  0.27174490  0.98248872  0.19931015  1  0  0.628659  0  3.86626  0  0  0.578546  0  4.166876  0  0  0.611334  0  4.161481  0  0  0.197196  0.556151  0  4.169786  0
C  C69  1  0.72824800  0.01750774  0.69931222  1  0  0.62866  0  3.866344  0  0  0.578533  0  4.166982  0  0  0.611316  0  4.161585  0  0  0.197091  0.556134  0  4.169897  0
C  C70  1  0.06249335  0.14571934  0.03690387  1  0  0.130832  0  3.737839  0  0  0.098999  0  3.993453  0  0  0.107315  0  4.013164  0  0  0.041088  0.093941  0  3.979342  0
C  C71  1  0.93752314  0.85428422  0.53690391  1  0  0.131071  0  3.737725  0  0  0.09921  0  3.993332  0  0  0.107533  0  4.013047  0  0  0.041216  0.094146  0  3.979218  0
C  C72  1  0.80422809  0.10245358  0.06180547  1  0  0.138364  0  3.744012  0  0  0.108414  0  3.993268  0  0  0.117058  0  4.012468  0  0  0.038926  0.102669  0  3.980449  0
C  C73  1  0.19578562  0.89754016  0.56179975  1  0  0.138353  0  3.744101  0  0  0.108452  0  3.993345  0  0  0.117097  0  4.012541  0  0  0.03893  0.102707  0  3.980524  0
C  C74  1  0.04593459  0.21453840  0.96488661  1  0  -0.206539  0  3.683939  0  0  -0.226366  0  3.939191  0  0  -0.235936  0  3.957025  0  0  -0.083206  -0.220198  0  3.927014  0
C  C75  1  0.95407427  0.78546349  0.46488549  1  0  -0.206581  0  3.683789  0  0  -0.226413  0  3.939023  0  0  -0.235983  0  3.956856  0  0  -0.083258  -0.220247  0  3.926849  0
C  C76  1  0.77707839  0.17225494  0.99224247  1  0  -0.211745  0  3.682342  0  0  -0.229833  0  3.928217  0  0  -0.239971  0  3.947733  0  0  -0.088224  -0.223469  0  3.915552  0
C  C77  1  0.22293098  0.82773707  0.49223814  1  0  -0.211654  0  3.682206  0  0  -0.229727  0  3.928029  0  0  -0.239859  0  3.947544  0  0  -0.088185  -0.223362  0  3.915363  0
C  C78  1  0.90096362  0.22956273  0.94130834  1  0  0.329478  0  3.748237  0  0  0.319277  0  3.992294  0  0  0.333971  0  4.009353  0  0  0.126952  0.309487  0  3.980483  0
C  C79  1  0.09904301  0.77043875  0.44130730  1  0  0.329503  0  3.748099  0  0  0.319334  0  3.992103  0  0  0.334021  0  4.009165  0  0  0.127046  0.309544  0  3.980294  0
C  C80  1  0.77818005  0.36655151  0.85605983  1  0  0.543821  0  3.836241  0  0  0.497893  0  4.124607  0  0  0.527106  0  4.123931  0  0  0.244847  0.478186  0  4.124446  0
C  C81  1  0.22182757  0.63345643  0.35605419  1  0  0.543566  0  3.836483  0  0  0.49789  0  4.12449  0  0  0.527097  0  4.123821  0  0  0.244874  0.478181  0  4.124332  0
C  C82  1  0.78842343  0.43765236  0.77406002  1  0  -0.063096  0  3.782216  0  0  -0.039218  0  4.019468  0  0  -0.047092  0  4.042678  0  0  -0.015004  -0.034197  0  4.003721  0
C  C83  1  0.21158057  0.56234526  0.27405636  1  0  -0.062934  0  3.782032  0  0  -0.039194  0  4.019287  0  0  -0.047066  0  4.042496  0  0  -0.015108  -0.034172  0  4.003548  0
C  C84  1  0.82555770  0.38968523  0.69604973  1  0  -0.103604  0  3.703899  0  0  -0.140119  0  3.954073  0  0  -0.13835  0  3.973644  0  0  -0.084666  -0.140958  0  3.940958  0
C  C85  1  0.17445156  0.61031031  0.19604374  1  0  -0.103366  0  3.70365  0  0  -0.139835  0  3.95383  0  0  -0.138069  0  3.973394  0  0  -0.084597  -0.14068  0  3.940721  0
C  C86  1  0.81581137  0.45514267  0.62001550  1  0  -0.061503  0  3.767181  0  0  -0.037141  0  3.999514  0  0  -0.045608  0  4.023361  0  0  -0.01568  -0.031823  0  3.983374  0
C  C87  1  0.18419735  0.54484984  0.12001397  1  0  -0.061588  0  3.767211  0  0  -0.037244  0  3.999537  0  0  -0.045714  0  4.023387  0  0  -0.015682  -0.031919  0  3.98339  0
C  C88  1  0.77792555  0.57153668  0.62390033  1  0  -0.048012  0  3.707315  0  0  -0.075737  0  3.953734  0  0  -0.073839  0  3.973394  0  0  -0.073675  -0.076668  0  3.940167  0
C  C89  1  0.22207514  0.42845485  0.12390819  1  0  -0.047967  0  3.707349  0  0  -0.075691  0  3.953706  0  0  -0.073794  0  3.97337  0  0  -0.073641  -0.076622  0  3.940135  0
C  C90  1  0.74662577  0.62130790  0.70196113  1  0  -0.077359  0  3.758757  0  0  -0.08665  0  4.012413  0  0  -0.091358  0  4.034282  0  0  -0.088349  -0.083649  0  3.997659  0
C  C91  1  0.25336473  0.37868386  0.20196942  1  0  -0.077317  0  3.758823  0  0  -0.086581  0  4.012463  0  0  -0.09129  0  4.034331  0  0  -0.088301  -0.083581  0  3.99771  0
C  C92  1  0.74699703  0.55280131  0.77664548  1  0  -0.050246  0  3.710825  0  0  -0.07734  0  3.957886  0  0  -0.075496  0  3.976166  0  0  -0.071023  -0.078029  0  3.945251  0
C  C93  1  0.25299623  0.44719349  0.27664735  1  0  -0.050425  0  3.710825  0  0  -0.07742  0  3.957865  0  0  -0.075576  0  3.976144  0  0  -0.071  -0.078113  0  3.94523  0
C  C94  1  0.84112874  0.40810887  0.53265500  1  0  0.549898  0  3.805552  0  0  0.50824  0  4.082831  0  0  0.537561  0  4.082185  0  0  0.248247  0.488672  0  4.082419  0
C  C95  1  0.15889128  0.59188733  0.03264985  1  0  0.550119  0  3.80533  0  0  0.508516  0  4.082558  0  0  0.537839  0  4.081908  0  0  0.248297  0.48894  0  4.082156  0
C  C96  1  0.84754805  0.21669485  0.45207159  1  0  0.322443  0  3.765224  0  0  0.314145  0  4.005551  0  0  0.329095  0  4.022958  0  0  0.124863  0.304354  0  3.993462  0
C  C97  1  0.15244751  0.78330272  0.95207024  1  0  0.322479  0  3.765321  0  0  0.31431  0  4.005535  0  0  0.329261  0  4.02294  0  0  0.124875  0.304519  0  3.993448  0
C  C98  1  0.92013545  0.27218662  0.37760275  1  0  -0.220789  0  3.692215  0  0  -0.238037  0  3.939229  0  0  -0.248689  0  3.958279  0  0  -0.090602  -0.230947  0  3.926378  0
C  C99  1  0.07986805  0.72781064  0.87760268  1  0  -0.220729  0  3.692318  0  0  -0.238011  0  3.939293  0  0  -0.248662  0  3.958344  0  0  -0.090579  -0.230922  0  3.926443  0
C  C100  1  0.79134469  0.08685624  0.45120515  1  0  -0.223279  0  3.686276  0  0  -0.239994  0  3.934754  0  0  -0.250702  0  3.954262  0  0  -0.091199  -0.233253  0  3.921603  0
C  C101  1  0.20863982  0.91314138  0.95120374  1  0  -0.223359  0  3.686407  0  0  -0.240083  0  3.934881  0  0  -0.250791  0  3.954377  0  0  -0.091265  -0.233341  0  3.921732  0
C  C102  1  0.93500613  0.19715360  0.30849264  1  0  0.142413  0  3.738521  0  0  0.111165  0  3.991202  0  0  0.120667  0  4.009593  0  0  0.042437  0.104987  0  3.97845  0
C  C103  1  0.06499226  0.80284423  0.80849122  1  0  0.142435  0  3.73857  0  0  0.111194  0  3.991258  0  0  0.120698  0  4.009647  0  0  0.042416  0.105007  0  3.978504  0
C  C104  1  0.81262108  0.01973620  0.37926602  1  0  0.131347  0  3.767736  0  0  0.098324  0  4.022572  0  0  0.107156  0  4.042482  0  0  0.039081  0.092665  0  4.008803  0
C  C105  1  0.18736770  0.98026387  0.87926270  1  0  0.131361  0  3.767709  0  0  0.098395  0  4.02253  0  0  0.107245  0  4.04244  0  0  0.039045  0.092737  0  4.008764  0
N  N106  1  0.52984767  0.11300967  0.20790792  1  0  -0.45716  0  3.332434  0  0  -0.409674  0  3.585862  0  0  -0.430332  0  3.593929  0  0  -0.425335  -0.395292  0  3.5799  0
N  N107  1  0.47014047  0.88699778  0.70791598  1  0  -0.457162  0  3.332117  0  0  -0.409622  0  3.585499  0  0  -0.430283  0  3.593565  0  0  -0.425347  -0.395227  0  3.579543  0
N  N108  1  0.94342544  0.08928588  0.08515090  1  0  -0.36576  0  3.284793  0  0  -0.284011  0  3.553507  0  0  -0.306826  0  3.572829  0  0  -0.348335  -0.268521  0  3.539828  0
N  N109  1  0.05659390  0.91071665  0.58514717  1  0  -0.365883  0  3.28488  0  0  -0.284179  0  3.553635  0  0  -0.306991  0  3.572948  0  0  -0.34846  -0.268689  0  3.539962  0
N  N110  1  0.88727517  0.29881666  0.86871759  1  0  -0.451965  0  3.310618  0  0  -0.394675  0  3.547209  0  0  -0.418738  0  3.554024  0  0  -0.392398  -0.377956  0  3.541899  0
N  N111  1  0.11273181  0.70118915  0.36871081  1  0  -0.451986  0  3.310679  0  0  -0.3948  0  3.547205  0  0  -0.418847  0  3.554011  0  0  -0.392527  -0.37808  0  3.541901  0
N  N112  1  0.83003935  0.28131245  0.52602121  1  0  -0.449261  0  3.305059  0  0  -0.38952  0  3.531983  0  0  -0.413627  0  3.538091  0  0  -0.390967  -0.373056  0  3.527097  0
N  N113  1  0.16995591  0.71868211  0.02602121  1  0  -0.449412  0  3.30491  0  0  -0.389729  0  3.53188  0  0  -0.413835  0  3.53798  0  0  -0.390958  -0.373261  0  3.526998  0
N  N114  1  0.88325566  0.07278375  0.30821000  1  0  -0.370817  0  3.293926  0  0  -0.290984  0  3.568283  0  0  -0.31362  0  3.586222  0  0  -0.350224  -0.275439  0  3.555539  0
N  N115  1  0.11673686  0.92721689  0.80820602  1  0  -0.370926  0  3.293974  0  0  -0.291121  0  3.568342  0  0  -0.313755  0  3.586269  0  0  -0.35021  -0.275576  0  3.555607  0
O  O116  1  0.88211929  0.75384156  0.26801141  1  0  -0.66093  0  1.986445  0  0  -0.599706  0  2.228719  0  0  -0.627709  0  2.218727  0  0  -0.329353  -0.580124  0  2.234863  0
O  O117  1  0.11787235  0.24615529  0.76801020  1  0  -0.660858  0  1.986305  0  0  -0.599667  0  2.228616  0  0  -0.627666  0  2.218611  0  0  -0.329346  -0.580092  0  2.234767  0
O  O118  1  0.78212901  0.79612938  0.14374914  1  0  -0.625901  0  1.919626  0  0  -0.563436  0  2.145422  0  0  -0.591316  0  2.134991  0  0  -0.337335  -0.543937  0  2.151793  0
O  O119  1  0.21788491  0.20387842  0.64375140  1  0  -0.625874  0  1.919618  0  0  -0.563419  0  2.145416  0  0  -0.591301  0  2.134982  0  0  -0.33739  -0.543925  0  2.151796  0
O  O120  1  0.43772195  0.16966800  0.08317749  1  0  -0.552919  0  1.883717  0  0  -0.510582  0  2.10249  0  0  -0.530539  0  2.095257  0  0  -0.300852  -0.496697  0  2.107079  0
O  O121  1  0.56225166  0.83034122  0.58318086  1  0  -0.552927  0  1.883779  0  0  -0.510658  0  2.102636  0  0  -0.530609  0  2.095394  0  0  -0.300901  -0.496767  0  2.107245  0
O  O122  1  0.22016526  0.06034171  0.24257617  1  0  -0.610955  0  1.927228  0  0  -0.554209  0  2.154985  0  0  -0.581069  0  2.146803  0  0  -0.329814  -0.535563  0  2.160112  0
O  O123  1  0.77983088  0.93965102  0.74257241  1  0  -0.610995  0  1.927382  0  0  -0.55423  0  2.155129  0  0  -0.581092  0  2.14695  0  0  -0.329792  -0.535574  0  2.160248  0
O  O124  1  0.18614246  0.89499184  0.15644112  1  0  -0.659695  0  2.025502  0  0  -0.590305  0  2.270647  0  0  -0.619303  0  2.260581  0  0  -0.328356  -0.569967  0  2.276891  0
O  O125  1  0.81385358  0.10500738  0.65644350  1  0  -0.659634  0  2.025346  0  0  -0.590273  0  2.27051  0  0  -0.619266  0  2.260438  0  0  -0.328295  -0.569943  0  2.276788  0
O  O126  1  0.67690709  0.37140928  0.90823229  1  0  -0.520065  0  1.912264  0  0  -0.481554  0  2.122347  0  0  -0.501899  0  2.116623  0  0  -0.28185  -0.467309  0  2.125844  0
O  O127  1  0.32310700  0.62859474  0.40822463  1  0  -0.520002  0  1.912218  0  0  -0.481559  0  2.122156  0  0  -0.501904  0  2.116436  0  0  -0.281805  -0.467313  0  2.125655  0
O  O128  1  0.86454989  0.47851094  0.47010441  1  0  -0.521574  0  1.917019  0  0  -0.481253  0  2.12699  0  0  -0.501327  0  2.122259  0  0  -0.282538  -0.467373  0  2.129663  0
O  O129  1  0.13548852  0.52148983  0.97009795  1  0  -0.521713  0  1.916866  0  0  -0.481433  0  2.126864  0  0  -0.501505  0  2.122124  0  0  -0.282611  -0.467553  0  2.129546  0
