# generated using pymatgen
data_HgH6C5S5Br2
_symmetry_space_group_name_H-M   'P 1'
_cell_length_a   4.06777796
_cell_length_b   13.22329134
_cell_length_c   24.69870973
_cell_angle_alpha   75.56280879
_cell_angle_beta   85.25183230
_cell_angle_gamma   81.04678441
_symmetry_Int_Tables_number   1
_chemical_formula_structural   HgH6C5S5Br2
_chemical_formula_sum   'Hg4 H24 C20 S20 Br8'
_cell_volume   1269.55667493
_cell_formula_units_Z   4
loop_
 _symmetry_equiv_pos_site_id
 _symmetry_equiv_pos_as_xyz
  1  'x, y, z'
loop_
 _atom_site_type_symbol
 _atom_site_label
 _atom_site_symmetry_multiplicity
 _atom_site_fract_x
 _atom_site_fract_y
 _atom_site_fract_z
 _atom_site_occupancy
 _atom_site_hle17_bader_spin_density
 _atom_site_hle17_ddec_charge
 _atom_site_hle17_ddec_spin_density
 _atom_site_hle17_ddec_sum_bond_order
 _atom_site_hle17_magmom
 _atom_site_hse06_10hf_bader_spin_density
 _atom_site_hse06_10hf_ddec_charge
 _atom_site_hse06_10hf_ddec_spin_density
 _atom_site_hse06_10hf_ddec_sum_bond_order
 _atom_site_hse06_10hf_magmom
 _atom_site_hse06_bader_spin_density
 _atom_site_hse06_ddec_charge
 _atom_site_hse06_ddec_spin_density
 _atom_site_hse06_ddec_sum_bond_order
 _atom_site_hse06_magmom
 _atom_site_pbe_bader_spin_density
 _atom_site_pbe_cm5_charge
 _atom_site_pbe_ddec_charge
 _atom_site_pbe_ddec_spin_density
 _atom_site_pbe_ddec_sum_bond_order
 _atom_site_pbe_magmom
Hg  Hg0  1  0.99090524  0.66595114  0.08943403  1  0  0.578571  0  2.213553  0  0  0.467122  0  2.716622  0  0  0.509964  0  2.688745  0  0  0.366582  0.438188  0  2.735171  0
Hg  Hg1  1  0.74216298  0.83445855  0.41039892  1  0  0.57872  0  2.215187  0  0  0.467379  0  2.718525  0  0  0.510259  0  2.69058  0  0  0.366615  0.438429  0  2.737114  0
Hg  Hg2  1  0.00902508  0.33404765  0.91056943  1  0  0.578685  0  2.213463  0  0  0.467256  0  2.716524  0  0  0.510088  0  2.68865  0  0  0.366636  0.438317  0  2.735069  0
Hg  Hg3  1  0.25801350  0.16556697  0.58960225  1  0  0.578857  0  2.214605  0  0  0.467555  0  2.71783  0  0  0.510433  0  2.689902  0  0  0.366697  0.438602  0  2.736428  0
H  H4  1  0.62138386  0.63367752  0.83882369  1  0  0.116494  0  0.992555  0  0  0.130363  0  1.061387  0  0  0.131696  0  1.062401  0  0  0.076648  0.129392  0  1.0607  0
H  H5  1  0.09301848  0.86652491  0.66119310  1  0  0.117346  0  0.990964  0  0  0.131302  0  1.059788  0  0  0.13267  0  1.06074  0  0  0.076931  0.130299  0  1.059163  0
H  H6  1  0.37859544  0.36633074  0.16117232  1  0  0.11649  0  0.992466  0  0  0.130345  0  1.061341  0  0  0.131681  0  1.062347  0  0  0.076672  0.129376  0  1.060657  0
H  H7  1  0.90701960  0.13346677  0.33880531  1  0  0.117297  0  0.991081  0  0  0.131279  0  1.059829  0  0  0.132638  0  1.060802  0  0  0.076887  0.130276  0  1.059204  0
H  H8  1  0.01086909  0.57917279  0.87239982  1  0  0.117469  0  0.98984  0  0  0.131789  0  1.059887  0  0  0.133425  0  1.059233  0  0  0.070635  0.130583  0  1.060389  0
H  H9  1  0.46128553  0.92096797  0.62772945  1  0  0.118215  0  0.988374  0  0  0.133043  0  1.057764  0  0  0.13467  0  1.057083  0  0  0.071396  0.131849  0  1.058294  0
H  H10  1  0.98909112  0.42081891  0.12759998  1  0  0.117465  0  0.989802  0  0  0.131799  0  1.059832  0  0  0.133432  0  1.059188  0  0  0.070678  0.130592  0  1.060342  0
H  H11  1  0.53873513  0.07903475  0.37226780  1  0  0.11813  0  0.988456  0  0  0.132964  0  1.057869  0  0  0.134586  0  1.057193  0  0  0.071314  0.131777  0  1.058379  0
H  H12  1  0.97418435  0.58269357  0.80019252  1  0  0.128673  0  0.962878  0  0  0.144247  0  1.03143  0  0  0.146244  0  1.030989  0  0  0.086155  0.142749  0  1.031873  0
H  H13  1  0.35537524  0.91719297  0.69994789  1  0  0.128583  0  0.963479  0  0  0.143833  0  1.03254  0  0  0.145827  0  1.032093  0  0  0.086378  0.142371  0  1.032954  0
H  H14  1  0.02577824  0.41730285  0.19980715  1  0  0.128639  0  0.962643  0  0  0.144185  0  1.031215  0  0  0.146186  0  1.030765  0  0  0.086157  0.142686  0  1.03166  0
H  H15  1  0.64464744  0.08280423  0.30005046  1  0  0.128652  0  0.963576  0  0  0.14389  0  1.032657  0  0  0.145886  0  1.032207  0  0  0.086425  0.142426  0  1.033074  0
H  H16  1  0.14119830  0.07223287  0.84672312  1  0  0.109726  0  0.99074  0  0  0.124383  0  1.061658  0  0  0.124845  0  1.062985  0  0  0.075092  0.123962  0  1.060845  0
H  H17  1  0.06237175  0.42775083  0.65308824  1  0  0.109614  0  0.989893  0  0  0.12411  0  1.061052  0  0  0.124564  0  1.062378  0  0  0.075217  0.123719  0  1.060211  0
H  H18  1  0.85878323  0.92776196  0.15327823  1  0  0.109756  0  0.990687  0  0  0.124387  0  1.061646  0  0  0.124849  0  1.062974  0  0  0.075103  0.123966  0  1.060833  0
H  H19  1  0.93759220  0.57226372  0.34691213  1  0  0.109581  0  0.989805  0  0  0.124114  0  1.060937  0  0  0.124563  0  1.062271  0  0  0.075269  0.12372  0  1.060089  0
H  H20  1  0.21192815  0.13727556  0.77511645  1  0  0.145328  0  0.955779  0  0  0.161694  0  1.019377  0  0  0.164717  0  1.017361  0  0  0.085824  0.159467  0  1.020939  0
H  H21  1  0.12687657  0.36266687  0.72468973  1  0  0.144667  0  0.955953  0  0  0.161378  0  1.019074  0  0  0.164344  0  1.017167  0  0  0.086089  0.159163  0  1.020623  0
H  H22  1  0.78809879  0.86270823  0.22488522  1  0  0.14527  0  0.955863  0  0  0.161714  0  1.01936  0  0  0.164741  0  1.017341  0  0  0.085846  0.159486  0  1.020919  0
H  H23  1  0.87308059  0.63733822  0.27531046  1  0  0.144653  0  0.956069  0  0  0.161368  0  1.019177  0  0  0.164334  0  1.017272  0  0  0.086102  0.159151  0  1.020721  0
H  H24  1  0.49904989  0.14091283  0.82536397  1  0  0.124321  0  0.982418  0  0  0.140264  0  1.04887  0  0  0.141874  0  1.048645  0  0  0.075705  0.139056  0  1.04912  0
H  H25  1  0.46816636  0.35895305  0.67443328  1  0  0.125476  0  0.980863  0  0  0.141202  0  1.047449  0  0  0.142858  0  1.047154  0  0  0.076442  0.139962  0  1.047748  0
H  H26  1  0.50094334  0.85908120  0.17464092  1  0  0.124402  0  0.982571  0  0  0.14035  0  1.049006  0  0  0.141962  0  1.048779  0  0  0.075738  0.139142  0  1.049254  0
H  H27  1  0.53178188  0.64105757  0.32556530  1  0  0.125388  0  0.9809  0  0  0.141132  0  1.047477  0  0  0.142786  0  1.047185  0  0  0.076425  0.139891  0  1.047771  0
C  C28  1  0.91041630  0.85521231  0.96197335  1  0  -0.034222  0  3.779881  0  0  -0.028625  0  4.090341  0  0  -0.013346  0  4.104655  0  0  -0.001863  -0.038324  0  4.080084  0
C  C29  1  0.72746324  0.64485256  0.53791412  1  0  -0.033073  0  3.778824  0  0  -0.027555  0  4.089771  0  0  -0.012308  0  4.104237  0  0  -0.000607  -0.037245  0  4.079433  0
C  C30  1  0.08955357  0.14476755  0.03802841  1  0  -0.034151  0  3.780058  0  0  -0.028611  0  4.090643  0  0  -0.013342  0  4.104964  0  0  -0.00192  -0.038309  0  4.080393  0
C  C31  1  0.27253083  0.35515254  0.46208371  1  0  -0.033092  0  3.778497  0  0  -0.027592  0  4.089495  0  0  -0.012327  0  4.103943  0  0  -0.000561  -0.037289  0  4.07916  0
C  C32  1  0.91664945  0.80864454  0.86564987  1  0  -0.126559  0  3.814238  0  0  -0.114612  0  4.108577  0  0  -0.115861  0  4.129273  0  0  -0.039747  -0.113894  0  4.094593  0
C  C33  1  0.59068858  0.69125419  0.63433389  1  0  -0.126365  0  3.812935  0  0  -0.114614  0  4.107167  0  0  -0.115862  0  4.12782  0  0  -0.039593  -0.113885  0  4.093191  0
C  C34  1  0.08332501  0.19134792  0.13435495  1  0  -0.126262  0  3.813197  0  0  -0.114415  0  4.107718  0  0  -0.115671  0  4.128423  0  0  -0.03967  -0.113692  0  4.093744  0
C  C35  1  0.40936782  0.30875481  0.36566843  1  0  -0.126033  0  3.813513  0  0  -0.114232  0  4.107622  0  0  -0.11548  0  4.128276  0  0  -0.039487  -0.113507  0  4.093648  0
C  C36  1  0.72782108  0.90665812  0.85892416  1  0  -0.093619  0  3.827533  0  0  -0.084567  0  4.117576  0  0  -0.080684  0  4.136704  0  0  -0.023509  -0.087236  0  4.104611  0
C  C37  1  0.49393431  0.59326081  0.64101100  1  0  -0.093952  0  3.825607  0  0  -0.084941  0  4.116225  0  0  -0.080998  0  4.135296  0  0  -0.022372  -0.087666  0  4.103315  0
C  C38  1  0.27218996  0.09331383  0.14108282  1  0  -0.093696  0  3.827204  0  0  -0.084634  0  4.117313  0  0  -0.080744  0  4.136433  0  0  -0.023453  -0.087326  0  4.104378  0
C  C39  1  0.50609668  0.40671746  0.35899221  1  0  -0.094192  0  3.826608  0  0  -0.085202  0  4.117157  0  0  -0.081262  0  4.136241  0  0  -0.022564  -0.087919  0  4.10423  0
C  C40  1  0.89369410  0.62376220  0.83353129  1  0  -0.335245  0  3.63428  0  0  -0.401511  0  3.879706  0  0  -0.403416  0  3.886604  0  0  -0.242739  -0.400004  0  3.874901  0
C  C41  1  0.35003675  0.87628223  0.66653327  1  0  -0.337862  0  3.63381  0  0  -0.404199  0  3.878634  0  0  -0.406097  0  3.885467  0  0  -0.244401  -0.402728  0  3.873894  0
C  C42  1  0.10628791  0.37623343  0.16646669  1  0  -0.335171  0  3.633853  0  0  -0.401364  0  3.879255  0  0  -0.403271  0  3.88615  0  0  -0.242772  -0.399848  0  3.874439  0
C  C43  1  0.65000569  0.12371339  0.33346349  1  0  -0.337841  0  3.634003  0  0  -0.404186  0  3.878809  0  0  -0.406079  0  3.885635  0  0  -0.244336  -0.4027  0  3.87405  0
C  C44  1  0.33344629  0.09260929  0.81359929  1  0  -0.347218  0  3.642026  0  0  -0.413232  0  3.886292  0  0  -0.415016  0  3.893783  0  0  -0.24563  -0.411804  0  3.881185  0
C  C45  1  0.24203255  0.40732587  0.68621285  1  0  -0.346807  0  3.641221  0  0  -0.413093  0  3.886649  0  0  -0.414888  0  3.89413  0  0  -0.246259  -0.41162  0  3.881456  0
C  C46  1  0.66654729  0.90738396  0.18640325  1  0  -0.347396  0  3.642136  0  0  -0.413426  0  3.886324  0  0  -0.415212  0  3.893811  0  0  -0.245776  -0.411998  0  3.881223  0
C  C47  1  0.75793313  0.59268474  0.31378556  1  0  -0.34673  0  3.641522  0  0  -0.413044  0  3.886904  0  0  -0.414825  0  3.894356  0  0  -0.24633  -0.411582  0  3.881737  0
S  S48  1  0.96344596  0.86181841  0.02767848  1  0  -0.237664  0  2.282314  0  0  -0.233485  0  2.66735  0  0  -0.25189  0  2.668488  0  0  -0.15087  -0.220928  0  2.666265  0
S  S49  1  0.85268817  0.63846986  0.47217294  1  0  -0.237671  0  2.281628  0  0  -0.233697  0  2.666444  0  0  -0.25214  0  2.667618  0  0  -0.150953  -0.221099  0  2.665335  0
S  S50  1  0.03654576  0.13816065  0.97232409  1  0  -0.237741  0  2.282306  0  0  -0.233503  0  2.667341  0  0  -0.25191  0  2.668487  0  0  -0.150798  -0.220936  0  2.66625  0
S  S51  1  0.14726200  0.36155022  0.52782329  1  0  -0.237748  0  2.281618  0  0  -0.233771  0  2.666499  0  0  -0.252215  0  2.667658  0  0  -0.150969  -0.221175  0  2.665402  0
S  S52  1  0.07687549  0.75491267  0.93153100  1  0  0.22586  0  2.684802  0  0  0.217801  0  3.036006  0  0  0.218773  0  3.041767  0  0  0.122538  0.216454  0  3.032303  0
S  S53  1  0.76263403  0.74499619  0.56844981  1  0  0.225082  0  2.683688  0  0  0.217228  0  3.034999  0  0  0.218132  0  3.040819  0  0  0.12198  0.215951  0  3.031235  0
S  S54  1  0.92312300  0.24506482  0.06847063  1  0  0.225631  0  2.684905  0  0  0.217592  0  3.036182  0  0  0.218571  0  3.041953  0  0  0.12238  0.216249  0  3.032467  0
S  S55  1  0.23739003  0.25499785  0.43155140  1  0  0.225083  0  2.683233  0  0  0.217213  0  3.03451  0  0  0.218112  0  3.040317  0  0  0.122014  0.215933  0  3.03076  0
S  S56  1  0.67959160  0.95885808  0.91756507  1  0  0.204296  0  2.697963  0  0  0.208925  0  3.052903  0  0  0.20952  0  3.05614  0  0  0.120605  0.207974  0  3.05078  0
S  S57  1  0.55675496  0.54119469  0.58231677  1  0  0.202792  0  2.698649  0  0  0.207865  0  3.05301  0  0  0.208419  0  3.056298  0  0  0.118957  0.206927  0  3.050914  0
S  S58  1  0.32037617  0.04112097  0.08244415  1  0  0.20428  0  2.697929  0  0  0.208912  0  3.052876  0  0  0.209509  0  3.05613  0  0  0.120585  0.207969  0  3.050764  0
S  S59  1  0.44325787  0.45880646  0.41768180  1  0  0.202894  0  2.698416  0  0  0.207948  0  3.052829  0  0  0.208513  0  3.056061  0  0  0.119004  0.207017  0  3.050727  0
S  S60  1  0.03583586  0.75132973  0.80956730  1  0  0.07142  0  2.599808  0  0  0.075991  0  2.975975  0  0  0.07281  0  2.978899  0  0  0.014839  0.078466  0  2.973978  0
S  S61  1  0.59665275  0.74855652  0.69037323  1  0  0.072543  0  2.597761  0  0  0.077062  0  2.97438  0  0  0.073794  0  2.977453  0  0  0.015497  0.079595  0  2.972297  0
S  S62  1  0.96418953  0.24866036  0.19043482  1  0  0.071336  0  2.599927  0  0  0.075914  0  2.976124  0  0  0.072731  0  2.979061  0  0  0.014854  0.078392  0  2.974126  0
S  S63  1  0.40340928  0.25144619  0.30962460  1  0  0.072416  0  2.597245  0  0  0.076918  0  2.973782  0  0  0.073657  0  2.976843  0  0  0.015404  0.079445  0  2.971706  0
S  S64  1  0.56307842  0.97649328  0.79566862  1  0  0.115933  0  2.555989  0  0  0.118526  0  2.920514  0  0  0.11332  0  2.923992  0  0  0.034816  0.122175  0  2.918162  0
S  S65  1  0.33630359  0.52333211  0.70422139  1  0  0.116138  0  2.558669  0  0  0.119046  0  2.922882  0  0  0.11385  0  2.926336  0  0  0.03468  0.122674  0  2.920554  0
S  S66  1  0.43691209  0.02349681  0.20433630  1  0  0.116072  0  2.556127  0  0  0.11868  0  2.920625  0  0  0.113465  0  2.924126  0  0  0.03486  0.122334  0  2.918282  0
S  S67  1  0.66369083  0.47667771  0.29577587  1  0  0.116138  0  2.558351  0  0  0.118987  0  2.922639  0  0  0.113783  0  2.926093  0  0  0.034702  0.122615  0  2.920315  0
Br  Br68  1  0.28044600  0.67035119  0.17646619  1  0  -0.399089  0  1.094101  0  0  -0.337641  0  1.395054  0  0  -0.358095  0  1.379041  0  0  -0.218055  -0.323563  0  1.40595  0
Br  Br69  1  0.12522210  0.83012082  0.32348881  1  0  -0.399425  0  1.095938  0  0  -0.338028  0  1.397274  0  0  -0.358444  0  1.381214  0  0  -0.217733  -0.324006  0  1.40821  0
Br  Br70  1  0.71942366  0.32970437  0.82353616  1  0  -0.399178  0  1.094212  0  0  -0.337716  0  1.395157  0  0  -0.358149  0  1.379106  0  0  -0.218125  -0.323649  0  1.406064  0
Br  Br71  1  0.87484967  0.16993078  0.67650120  1  0  -0.399479  0  1.095932  0  0  -0.338036  0  1.397199  0  0  -0.358462  0  1.381166  0  0  -0.217725  -0.324009  0  1.408134  0
Br  Br72  1  0.64528344  0.56895795  0.04187398  1  0  -0.364439  0  1.257493  0  0  -0.307451  0  1.600025  0  0  -0.328877  0  1.583032  0  0  -0.207466  -0.292739  0  1.611752  0
Br  Br73  1  0.24940057  0.93042716  0.45824498  1  0  -0.363928  0  1.261416  0  0  -0.307204  0  1.604969  0  0  -0.328559  0  1.587937  0  0  -0.207767  -0.292574  0  1.616725  0
Br  Br74  1  0.35466351  0.43104083  0.95812765  1  0  -0.364499  0  1.257522  0  0  -0.307526  0  1.600064  0  0  -0.328951  0  1.583073  0  0  -0.207507  -0.292812  0  1.611782  0
Br  Br75  1  0.75070908  0.06958819  0.54173760  1  0  -0.364036  0  1.26094  0  0  -0.307343  0  1.604436  0  0  -0.328701  0  1.587416  0  0  -0.20782  -0.292701  0  1.616189  0
