# generated using pymatgen
data_ZnH23C23N2ClO6
_symmetry_space_group_name_H-M   'P 1'
_cell_length_a   7.75173399
_cell_length_b   8.58958845
_cell_length_c   36.01051760
_cell_angle_alpha   97.68497647
_cell_angle_beta   90.00037622
_cell_angle_gamma   89.99919797
_symmetry_Int_Tables_number   1
_chemical_formula_structural   ZnH23C23N2ClO6
_chemical_formula_sum   'Zn4 H92 C92 N8 Cl4 O24'
_cell_volume   2376.19596613
_cell_formula_units_Z   4
loop_
 _symmetry_equiv_pos_site_id
 _symmetry_equiv_pos_as_xyz
  1  'x, y, z'
loop_
 _atom_site_type_symbol
 _atom_site_label
 _atom_site_symmetry_multiplicity
 _atom_site_fract_x
 _atom_site_fract_y
 _atom_site_fract_z
 _atom_site_occupancy
 _atom_site_pbe_bader_charge
 _atom_site_pbe_bader_spin_density
 _atom_site_pbe_cm5_charge
 _atom_site_pbe_ddec_charge
 _atom_site_pbe_ddec_spin_density
 _atom_site_pbe_ddec_sum_bond_order
 _atom_site_pbe_magmom
Zn  Zn0  1  0.72144196  0.41010403  0.69944225  1  1.274166  0  0.617919  0.870856  0  2.43547  0
Zn  Zn1  1  0.22144298  0.58988754  0.80056031  1  1.274163  0  0.618005  0.870931  0  2.435319  0
Zn  Zn2  1  0.27855824  0.58989720  0.30055800  1  1.274146  0  0.617901  0.87087  0  2.435461  0
Zn  Zn3  1  0.77856367  0.41011258  0.19944047  1  1.274206  0  0.618003  0.870955  0  2.435202  0
H  H4  1  0.12603133  0.98197416  0.52124331  1  0.064081  0  0.104621  0.105883  0  1.008224  0
H  H5  1  0.62603565  0.01802645  0.97875629  1  0.064073  0  0.104607  0.105839  0  1.008342  0
H  H6  1  0.87396241  0.01802349  0.47875629  1  0.064071  0  0.104606  0.105835  0  1.008303  0
H  H7  1  0.37396583  0.98197005  0.02124356  1  0.064098  0  0.104599  0.105844  0  1.008336  0
H  H8  1  0.85104550  0.08694314  0.55082026  1  0.046695  0  0.101892  0.101001  0  0.998996  0
H  H9  1  0.35104595  0.91306517  0.94917847  1  0.046641  0  0.101915  0.101028  0  0.999039  0
H  H10  1  0.14895082  0.91304520  0.44917994  1  0.046624  0  0.10189  0.100997  0  0.998992  0
H  H11  1  0.64895295  0.08694296  0.05082057  1  0.046685  0  0.101884  0.100987  0  0.999027  0
H  H12  1  0.77270179  0.03689694  0.61515335  1  0.101871  0  0.092558  0.101549  0  1.038838  0
H  H13  1  0.27270085  0.96312071  0.88484718  1  0.101961  0  0.092585  0.101593  0  1.03879  0
H  H14  1  0.22729453  0.96310082  0.38484736  1  0.101954  0  0.092567  0.101567  0  1.038841  0
H  H15  1  0.72729548  0.03688630  0.11515239  1  0.101939  0  0.092578  0.101576  0  1.038811  0
H  H16  1  0.95900383  0.87546608  0.65029414  1  0.1196  0  0.111535  0.12465  0  0.991502  0
H  H17  1  0.45900576  0.12455179  0.84970776  1  0.119643  0  0.111539  0.124671  0  0.991278  0
H  H18  1  0.04099636  0.12453397  0.34970608  1  0.11962  0  0.111554  0.124693  0  0.991468  0
H  H19  1  0.54099572  0.87545646  0.15029239  1  0.11963  0  0.111551  0.1247  0  0.991406  0
H  H20  1  0.47421304  0.60890734  0.51834072  1  0.035989  0  0.090292  0.126499  0  1.043433  0
H  H21  1  0.97421168  0.39109059  0.98166263  1  0.036002  0  0.090338  0.126598  0  1.043412  0
H  H22  1  0.52578844  0.39109741  0.48165962  1  0.0359  0  0.090291  0.126524  0  1.043482  0
H  H23  1  0.02578464  0.60890265  0.01833964  1  0.035778  0  0.090286  0.126538  0  1.043511  0
H  H24  1  0.33282532  0.74054008  0.50000943  1  0.016448  0  0.095444  0.141199  0  0.991052  0
H  H25  1  0.83282396  0.25945703  0.99999203  1  0.016343  0  0.095402  0.141119  0  0.991136  0
H  H26  1  0.66717745  0.25946343  0.49999032  1  0.016482  0  0.095467  0.141214  0  0.991111  0
H  H27  1  0.16717236  0.74053246  0.00000791  1  0.016434  0  0.095438  0.1412  0  0.991057  0
H  H28  1  0.24694281  0.59704683  0.52606495  1  0.042372  0  0.085609  0.117673  0  1.058213  0
H  H29  1  0.74694362  0.40295138  0.97393698  1  0.042376  0  0.085597  0.117675  0  1.058201  0
H  H30  1  0.75305739  0.40295551  0.47393477  1  0.042338  0  0.085601  0.11768  0  1.058241  0
H  H31  1  0.25305400  0.59704051  0.02606358  1  0.042383  0  0.08561  0.117675  0  1.058227  0
H  H32  1  0.52511949  0.00435539  0.57990330  1  0.039011  0  0.090431  0.131969  0  1.000138  0
H  H33  1  0.02511522  0.99564187  0.92009719  1  0.039044  0  0.090441  0.132014  0  1.00006  0
H  H34  1  0.47488070  0.99564705  0.42009726  1  0.039111  0  0.090404  0.131901  0  1.000112  0
H  H35  1  0.97488626  0.00434991  0.07990226  1  0.038673  0  0.090427  0.131969  0  1.000074  0
H  H36  1  0.46723769  0.98711636  0.53192687  1  0.081232  0  0.092474  0.135975  0  1.02159  0
H  H37  1  0.96723532  0.01287898  0.96807335  1  0.081184  0  0.092478  0.135959  0  1.021615  0
H  H38  1  0.53276380  0.01288601  0.46807313  1  0.081251  0  0.092487  0.136002  0  1.02159  0
H  H39  1  0.03276358  0.98711521  0.03192672  1  0.081232  0  0.092474  0.135982  0  1.021628  0
H  H40  1  0.63275666  0.86455108  0.54644898  1  0.05796  0  0.087411  0.123542  0  1.056491  0
H  H41  1  0.13276022  0.13544267  0.95355295  1  0.058084  0  0.087371  0.123467  0  1.056597  0
H  H42  1  0.36724096  0.13545138  0.45355185  1  0.057906  0  0.087397  0.123507  0  1.056579  0
H  H43  1  0.86724127  0.86454805  0.04644758  1  0.057903  0  0.087398  0.123534  0  1.056602  0
H  H44  1  0.33126919  0.58169717  0.65422328  1  0.086459  0  0.114177  0.096251  0  1.015774  0
H  H45  1  0.83126466  0.41830339  0.84577744  1  0.086491  0  0.11417  0.096244  0  1.01577  0
H  H46  1  0.66873100  0.41829809  0.34577598  1  0.086504  0  0.114174  0.096259  0  1.015754  0
H  H47  1  0.16874327  0.58169789  0.15422337  1  0.08656  0  0.114186  0.096192  0  1.015824  0
H  H48  1  0.12303778  0.66602249  0.65873221  1  0.075584  0  0.11338  0.094049  0  0.996984  0
H  H49  1  0.62303571  0.33397719  0.84126931  1  0.075559  0  0.113366  0.094015  0  0.99715  0
H  H50  1  0.87695984  0.33397040  0.34126671  1  0.075593  0  0.113367  0.094026  0  0.996999  0
H  H51  1  0.37696836  0.66603120  0.15873223  1  0.075501  0  0.113386  0.093997  0  0.997091  0
H  H52  1  0.25034844  0.91934584  0.68962815  1  0.036342  0  0.093741  0.090265  0  0.994057  0
H  H53  1  0.75034291  0.08064899  0.81037537  1  0.036289  0  0.093738  0.090295  0  0.993937  0
H  H54  1  0.74964788  0.08064600  0.31037186  1  0.036284  0  0.093751  0.090273  0  0.993975  0
H  H55  1  0.24965341  0.91935934  0.18962562  1  0.036195  0  0.093734  0.090265  0  0.994013  0
H  H56  1  0.45911005  0.83594865  0.68526773  1  0.080343  0  0.096104  0.107374  0  0.982154  0
H  H57  1  0.95910724  0.16404248  0.81473598  1  0.080319  0  0.096147  0.107353  0  0.982221  0
H  H58  1  0.54088627  0.16404439  0.31473258  1  0.080248  0  0.096111  0.107301  0  0.982166  0
H  H59  1  0.04088909  0.83595637  0.18526393  1  0.080418  0  0.096141  0.107361  0  0.98218  0
H  H60  1  0.31226003  0.83148831  0.74944900  1  0.099175  0  0.100155  0.129739  0  0.988541  0
H  H61  1  0.81227329  0.16850688  0.75055406  1  0.099241  0  0.100139  0.129712  0  0.988594  0
H  H62  1  0.68773243  0.16850707  0.25055138  1  0.099182  0  0.100159  0.129761  0  0.988533  0
H  H63  1  0.18772819  0.83149321  0.24944644  1  0.099209  0  0.100147  0.129717  0  0.988591  0
H  H64  1  0.15862670  0.70139422  0.72764722  1  0.085091  0  0.102663  0.125289  0  0.982539  0
H  H65  1  0.65862183  0.29860388  0.77235459  1  0.085234  0  0.102675  0.125328  0  0.982477  0
H  H66  1  0.84137092  0.29859637  0.27235219  1  0.085174  0  0.102681  0.125298  0  0.982512  0
H  H67  1  0.34137449  0.70139849  0.22764542  1  0.085268  0  0.102648  0.125277  0  0.98261  0
H  H68  1  0.56440104  0.60494184  0.63231020  1  0.158608  0  0.111675  0.132382  0  1.062884  0
H  H69  1  0.06439933  0.39505379  0.86769058  1  0.158681  0  0.111684  0.132437  0  1.0628  0
H  H70  1  0.43559915  0.39505812  0.36768918  1  0.158577  0  0.111682  0.132418  0  1.062828  0
H  H71  1  0.93560603  0.60494985  0.13231029  1  0.158722  0  0.111688  0.132428  0  1.062877  0
H  H72  1  0.68944532  0.61675190  0.55149847  1  0.093841  0  0.107091  0.098458  0  1.037341  0
H  H73  1  0.18945522  0.38325397  0.94850275  1  0.09381  0  0.10708  0.098474  0  1.037349  0
H  H74  1  0.31055359  0.38325045  0.44850126  1  0.09387  0  0.107087  0.098446  0  1.037381  0
H  H75  1  0.81055658  0.61674967  0.05149811  1  0.093828  0  0.107047  0.098367  0  1.037472  0
H  H76  1  0.26167876  0.26333149  0.60580372  1  0.117488  0  0.114425  0.136264  0  1.018609  0
H  H77  1  0.76167591  0.73666404  0.89419678  1  0.117321  0  0.114401  0.136212  0  1.01858  0
H  H78  1  0.73831112  0.73665896  0.39419431  1  0.117467  0  0.114401  0.136246  0  1.018563  0
H  H79  1  0.23832299  0.26335001  0.10580297  1  0.117394  0  0.114432  0.136264  0  1.018569  0
H  H80  1  0.93083207  0.47949918  0.53145059  1  0.162941  0  0.110593  0.121839  0  1.048144  0
H  H81  1  0.43082755  0.52051189  0.96855026  1  0.162935  0  0.110599  0.121803  0  1.048128  0
H  H82  1  0.06916683  0.52050777  0.46854842  1  0.162948  0  0.110592  0.121753  0  1.048205  0
H  H83  1  0.56918812  0.47948469  0.03145042  1  0.163056  0  0.110586  0.121741  0  1.048179  0
H  H84  1  0.19859637  0.25415584  0.70580126  1  0.083186  0  0.110806  0.129488  0  0.965241  0
H  H85  1  0.69858137  0.74584049  0.79419945  1  0.083244  0  0.110845  0.129562  0  0.965146  0
H  H86  1  0.80140899  0.74583934  0.29419717  1  0.083099  0  0.110813  0.129498  0  0.965178  0
H  H87  1  0.30141366  0.25416538  0.20580036  1  0.083361  0  0.1108  0.129522  0  0.965292  0
H  H88  1  0.32299329  0.31899259  0.66905211  1  0.073498  0  0.090141  0.095298  0  1.03957  0
H  H89  1  0.82298684  0.68100696  0.83094913  1  0.073225  0  0.090182  0.095354  0  1.039557  0
H  H90  1  0.67701335  0.68100843  0.33094619  1  0.073224  0  0.090197  0.095355  0  1.039573  0
H  H91  1  0.17701206  0.31899770  0.16905037  1  0.073488  0  0.090186  0.095362  0  1.039518  0
H  H92  1  0.20178552  0.14060308  0.65994001  1  0.051994  0  0.091527  0.089459  0  1.035544  0
H  H93  1  0.70176498  0.85939899  0.84006002  1  0.052005  0  0.09148  0.089446  0  1.035509  0
H  H94  1  0.79821854  0.85940131  0.34005699  1  0.05208  0  0.091539  0.089515  0  1.035519  0
H  H95  1  0.29822876  0.14060447  0.15993918  1  0.052006  0  0.091488  0.089463  0  1.035531  0
C  C96  1  0.40955941  0.71896947  0.59469586  1  0.442572  0  0.163402  0.202514  0  3.765667  0
C  C97  1  0.90955748  0.28103382  0.90530643  1  0.442588  0  0.16331  0.202395  0  3.76584  0
C  C98  1  0.59043692  0.28103290  0.40530414  1  0.442554  0  0.163435  0.202668  0  3.765738  0
C  C99  1  0.09044530  0.71896752  0.09469493  1  0.442522  0  0.163289  0.202397  0  3.765789  0
C  C100  1  0.37134361  0.79636020  0.55972434  1  0.063852  0  0.004168  0.148934  0  3.836794  0
C  C101  1  0.87134521  0.20364000  0.94027754  1  0.06361  0  0.004213  0.149018  0  3.836769  0
C  C102  1  0.62865400  0.20364217  0.44027566  1  0.063649  0  0.004182  0.148922  0  3.836644  0
C  C103  1  0.12865498  0.79635424  0.05972308  1  0.063593  0  0.004264  0.149133  0  3.836583  0
C  C104  1  0.19869019  0.87264977  0.56954093  1  -0.002239  0  -0.003699  -0.005378  0  3.919483  0
C  C105  1  0.69868880  0.12735836  0.93046063  1  -0.002275  0  -0.003669  -0.005262  0  3.919551  0
C  C106  1  0.80131001  0.12735149  0.43045959  1  -0.002446  0  -0.003666  -0.005259  0  3.919406  0
C  C107  1  0.30131398  0.87263935  0.06953952  1  -0.002336  0  -0.003729  -0.005431  0  3.919522  0
C  C108  1  0.09065533  0.95850668  0.54926786  1  -0.003275  0  -0.086485  -0.108302  0  3.976854  0
C  C109  1  0.59065716  0.04149682  0.95073288  1  -0.003528  0  -0.08645  -0.108252  0  3.97684  0
C  C110  1  0.90934229  0.04149572  0.45073242  1  -0.003461  0  -0.086489  -0.108325  0  3.97688  0
C  C111  1  0.40934561  0.95850085  0.04926700  1  -0.003518  0  -0.08649  -0.10829  0  3.976947  0
C  C112  1  0.93613433  0.01619307  0.56590538  1  -0.028711  0  -0.090406  -0.083131  0  4.004954  0
C  C113  1  0.43613582  0.98381081  0.93409446  1  -0.02876  0  -0.090432  -0.083205  0  4.004952  0
C  C114  1  0.06386457  0.98380003  0.43409549  1  -0.028197  0  -0.090402  -0.08311  0  4.004871  0
C  C115  1  0.56386824  0.01618795  0.06590462  1  -0.028816  0  -0.090352  -0.083085  0  4.005106  0
C  C116  1  0.89073623  0.98770244  0.60200174  1  -0.053112  0  -0.087815  -0.067852  0  3.993271  0
C  C117  1  0.39073359  0.01231743  0.89800012  1  -0.052759  0  -0.087774  -0.067826  0  3.99329  0
C  C118  1  0.10925880  0.01229882  0.39799879  1  -0.053412  0  -0.087811  -0.067838  0  3.99334  0
C  C119  1  0.60926402  0.98768961  0.10199973  1  -0.052696  0  -0.087841  -0.067891  0  3.99336  0
C  C120  1  0.99668900  0.89845801  0.62239005  1  -0.023456  0  -0.088015  -0.159243  0  3.983748  0
C  C121  1  0.49668438  0.10155705  0.87761183  1  -0.024142  0  -0.088039  -0.159222  0  3.983555  0
C  C122  1  0.00331119  0.10154090  0.37761042  1  -0.023998  0  -0.088023  -0.159281  0  3.983785  0
C  C123  1  0.50331582  0.89844773  0.12238879  1  -0.024141  0  -0.087989  -0.159208  0  3.983559  0
C  C124  1  0.14953034  0.84239171  0.60522574  1  0.261834  0  0.090147  0.104506  0  4.036065  0
C  C125  1  0.64953000  0.15761831  0.89477692  1  0.262461  0  0.09008  0.104316  0  4.036264  0
C  C126  1  0.85046986  0.15761304  0.39477460  1  0.262608  0  0.090103  0.104412  0  4.036167  0
C  C127  1  0.35047148  0.84238412  0.10522364  1  0.262455  0  0.090108  0.104431  0  4.036195  0
C  C128  1  0.35545724  0.67675165  0.52399080  1  -0.017861  0  -0.239774  -0.408126  0  3.851895  0
C  C129  1  0.85545934  0.32324643  0.97601128  1  -0.017636  0  -0.239767  -0.40818  0  3.851964  0
C  C130  1  0.64454296  0.32325076  0.47600948  1  -0.017615  0  -0.239796  -0.408197  0  3.852048  0
C  C131  1  0.14453698  0.67674787  0.02398990  1  -0.01755  0  -0.239809  -0.408276  0  3.85202  0
C  C132  1  0.50888212  0.92072223  0.55431565  1  -0.079258  0  -0.239564  -0.416814  0  3.857432  0
C  C133  1  0.00888631  0.07927527  0.94568538  1  -0.079418  0  -0.239548  -0.416776  0  3.8575  0
C  C134  1  0.49111420  0.07928017  0.44568463  1  -0.079326  0  -0.239533  -0.416698  0  3.85737  0
C  C135  1  0.99111517  0.92071767  0.05431410  1  -0.07882  0  -0.239559  -0.416806  0  3.857392  0
C  C136  1  0.26031778  0.69232037  0.65541983  1  0.263944  0  -0.055539  -0.074251  0  3.878141  0
C  C137  1  0.76031492  0.30768123  0.84458249  1  0.263987  0  -0.05554  -0.07429  0  3.878269  0
C  C138  1  0.73967984  0.30767490  0.34457943  1  0.263693  0  -0.05554  -0.074221  0  3.878163  0
C  C139  1  0.23968914  0.69232360  0.15541869  1  0.263831  0  -0.055545  -0.074143  0  3.878197  0
C  C140  1  0.32207904  0.80845821  0.68862086  1  -0.019605  0  -0.162412  -0.137179  0  3.918916  0
C  C141  1  0.82207699  0.19153698  0.81138332  1  -0.019744  0  -0.162413  -0.137168  0  3.91872  0
C  C142  1  0.67791857  0.19153721  0.31137980  1  -0.019254  0  -0.162436  -0.137094  0  3.91889  0
C  C143  1  0.17792192  0.80846786  0.18861785  1  -0.019628  0  -0.1624  -0.137187  0  3.918749  0
C  C144  1  0.29328526  0.74041519  0.72521333  1  -0.084  0  -0.164495  -0.313907  0  3.919376  0
C  C145  1  0.79328236  0.25957906  0.77478967  1  -0.08374  0  -0.16447  -0.313925  0  3.919167  0
C  C146  1  0.70670977  0.25957902  0.27478701  1  -0.083764  0  -0.164504  -0.314008  0  3.919419  0
C  C147  1  0.20671654  0.74042338  0.22521088  1  -0.083484  0  -0.164467  -0.313889  0  3.919354  0
C  C148  1  0.40996740  0.60314385  0.73091252  1  1.563382  0  0.222694  0.651948  0  4.100217  0
C  C149  1  0.90997124  0.39684179  0.76908903  1  1.56309  0  0.222634  0.651975  0  4.100092  0
C  C150  1  0.59003151  0.39685147  0.26908730  1  1.562881  0  0.222658  0.652027  0  4.100266  0
C  C151  1  0.09003025  0.60315947  0.23091150  1  1.562426  0  0.222659  0.652106  0  4.1  0
C  C152  1  0.55631962  0.63474632  0.60393130  1  0.021306  0  -0.102593  -0.209374  0  3.966483  0
C  C153  1  0.05631921  0.36525416  0.89607016  1  0.02128  0  -0.102506  -0.209312  0  3.966578  0
C  C154  1  0.44367800  0.36525481  0.39606812  1  0.021472  0  -0.102609  -0.209521  0  3.966726  0
C  C155  1  0.94368357  0.63474595  0.10393062  1  0.021264  0  -0.102522  -0.209344  0  3.966575  0
C  C156  1  0.69150357  0.58859076  0.58018720  1  -0.02482  0  -0.045848  0.004792  0  3.859175  0
C  C157  1  0.19150057  0.41141391  0.91981399  1  -0.024424  0  -0.04585  0.004662  0  3.859283  0
C  C158  1  0.30849534  0.41141393  0.41981258  1  -0.024743  0  -0.045836  0.00482  0  3.85928  0
C  C159  1  0.80850091  0.58858618  0.08018651  1  -0.024476  0  -0.045848  0.004733  0  3.859311  0
C  C160  1  0.87749328  0.46333879  0.62600468  1  0.776948  0  0.114866  0.251453  0  4.053987  0
C  C161  1  0.37749989  0.53666007  0.87399633  1  0.776532  0  0.11489  0.251348  0  4.054074  0
C  C162  1  0.12250433  0.53665762  0.37399433  1  0.776932  0  0.114816  0.251409  0  4.054321  0
C  C163  1  0.62250547  0.46334353  0.12600425  1  0.776532  0  0.114827  0.251288  0  4.054096  0
C  C164  1  0.03233992  0.37410684  0.63131392  1  0.434274  0  0.071088  0.132205  0  4.072999  0
C  C165  1  0.53234060  0.62589728  0.86868592  1  0.434368  0  0.070979  0.131974  0  4.073141  0
C  C166  1  0.96766157  0.62589309  0.36868518  1  0.434555  0  0.071004  0.131988  0  4.073042  0
C  C167  1  0.46766346  0.37410859  0.13131389  1  0.434842  0  0.070975  0.132031  0  4.073082  0
C  C168  1  0.14496108  0.32991670  0.60231480  1  0.048316  0  -0.103263  -0.253869  0  4.02565  0
C  C169  1  0.64495679  0.67008495  0.89768570  1  0.048101  0  -0.103208  -0.253667  0  4.025559  0
C  C170  1  0.85503653  0.67008321  0.39768403  1  0.048063  0  -0.103284  -0.253832  0  4.0255  0
C  C171  1  0.35504728  0.32992203  0.10231359  1  0.047957  0  -0.103243  -0.25372  0  4.025539  0
C  C172  1  0.10355533  0.36720205  0.56623349  1  0.24885  0  0.058292  0.041675  0  4.057723  0
C  C173  1  0.60354881  0.63280010  0.93376696  1  0.249447  0  0.058257  0.041588  0  4.057819  0
C  C174  1  0.89643713  0.63279671  0.43376558  1  0.249484  0  0.058332  0.04168  0  4.057537  0
C  C175  1  0.39645525  0.36720104  0.06623246  1  0.249201  0  0.05817  0.041459  0  4.057726  0
C  C176  1  0.95660759  0.45104819  0.55947542  1  -0.063419  0  -0.081676  -0.167988  0  3.965546  0
C  C177  1  0.45660179  0.54895905  0.94052537  1  -0.063788  0  -0.081721  -0.167982  0  3.96564  0
C  C178  1  0.04338487  0.54895169  0.44052312  1  -0.064077  0  -0.081745  -0.16793  0  3.965479  0
C  C179  1  0.54340485  0.45104097  0.05947457  1  -0.063886  0  -0.081686  -0.167835  0  3.965295  0
C  C180  1  0.84110315  0.50174362  0.58884488  1  0.006268  0  -0.02495  -0.013673  0  3.987199  0
C  C181  1  0.34110630  0.49825803  0.91115616  1  0.006235  0  -0.024901  -0.01344  0  3.987068  0
C  C182  1  0.15889188  0.49825394  0.41115389  1  0.006135  0  -0.024891  -0.013569  0  3.987209  0
C  C183  1  0.65889648  0.50174558  0.08884443  1  0.006231  0  -0.024821  -0.013358  0  3.987003  0
C  C184  1  0.20357928  0.25954802  0.67564163  1  0.367244  0  -0.141513  -0.171423  0  3.883563  0
C  C185  1  0.70357042  0.74045174  0.82435889  1  0.367482  0  -0.141568  -0.171574  0  3.883496  0
C  C186  1  0.79642608  0.74045182  0.32435664  1  0.367531  0  -0.1416  -0.171574  0  3.883564  0
C  C187  1  0.29642848  0.25955292  0.17564061  1  0.367129  0  -0.141508  -0.171457  0  3.883578  0
N  N188  1  0.27800833  0.74887661  0.61908789  1  -1.187879  0  -0.215135  0.000901  0  3.657273  0
N  N189  1  0.77800613  0.25112713  0.88091451  1  -1.187824  0  -0.215186  0.000951  0  3.657193  0
N  N190  1  0.72198800  0.25112221  0.38091174  1  -1.187968  0  -0.215182  0.000771  0  3.657476  0
N  N191  1  0.22200051  0.74887064  0.11908621  1  -1.187842  0  -0.215141  0.000913  0  3.657405  0
N  N192  1  0.21731306  0.31308007  0.53585406  1  0.281651  0  0.031791  0.498363  0  4.225224  0
N  N193  1  0.71730662  0.68692185  0.96414626  1  0.281865  0  0.031762  0.498239  0  4.225376  0
N  N194  1  0.78268584  0.68691993  0.46414560  1  0.281294  0  0.031746  0.498263  0  4.225307  0
N  N195  1  0.28270003  0.31307468  0.03585387  1  0.281826  0  0.031744  0.49826  0  4.225297  0
Cl  Cl196  1  0.63871761  0.16260232  0.68242542  1  -0.662947  0  -0.330933  -0.539364  0  1.107142  0
Cl  Cl197  1  0.13872176  0.83739486  0.81757634  1  -0.662922  0  -0.330946  -0.539407  0  1.107118  0
Cl  Cl198  1  0.36126969  0.83739915  0.31757706  1  -0.662945  0  -0.330939  -0.539386  0  1.107153  0
Cl  Cl199  1  0.86128230  0.16260619  0.18242224  1  -0.662943  0  -0.330952  -0.539411  0  1.10708  0
O  O200  1  0.52838598  0.56799897  0.70690053  1  -1.183459  0  -0.309598  -0.530498  0  2.361488  0
O  O201  1  0.02838147  0.43198785  0.79310136  1  -1.183391  0  -0.30957  -0.530378  0  2.361396  0
O  O202  1  0.47161164  0.43199753  0.29309931  1  -1.183296  0  -0.309594  -0.530517  0  2.361386  0
O  O203  1  0.97161743  0.56801346  0.20689973  1  -1.18337  0  -0.309549  -0.530431  0  2.36138  0
O  O204  1  0.38641495  0.52951702  0.75908362  1  -1.176986  0  -0.321909  -0.555444  0  2.336103  0
O  O205  1  0.88641294  0.47047945  0.74091790  1  -1.176942  0  -0.321897  -0.555541  0  2.335925  0
O  O206  1  0.61358912  0.47048315  0.24091771  1  -1.176902  0  -0.321867  -0.555459  0  2.336112  0
O  O207  1  0.11359113  0.52951582  0.25908136  1  -1.176616  0  -0.321919  -0.555625  0  2.335918  0
O  O208  1  0.77979003  0.51050779  0.65398825  1  -1.147356  0  -0.300927  -0.451589  0  2.418036  0
O  O209  1  0.27979782  0.48948771  0.84601394  1  -1.147035  0  -0.300977  -0.451602  0  2.418186  0
O  O210  1  0.22020758  0.48948745  0.34601074  1  -1.147399  0  -0.3009  -0.451583  0  2.418234  0
O  O211  1  0.72020882  0.51051238  0.15398656  1  -1.147152  0  -0.300935  -0.451563  0  2.418117  0
O  O212  1  0.05360043  0.34605026  0.66719836  1  -1.0777  0  -0.179354  -0.150757  0  2.667134  0
O  O213  1  0.55359187  0.65394767  0.83280080  1  -1.077749  0  -0.179221  -0.150549  0  2.666991  0
O  O214  1  0.94640493  0.65395082  0.33280050  1  -1.077789  0  -0.179216  -0.150526  0  2.666951  0
O  O215  1  0.44640574  0.34606051  0.16719879  1  -1.077715  0  -0.179232  -0.150699  0  2.667006  0
O  O216  1  0.36142586  0.25953691  0.54328401  1  -0.493337  0  -0.147131  -0.360858  0  1.961411  0
O  O217  1  0.86142353  0.74046353  0.95671897  1  -0.493532  0  -0.147123  -0.360786  0  1.961387  0
O  O218  1  0.63857304  0.74046546  0.45671599  1  -0.492873  0  -0.147153  -0.360864  0  1.961453  0
O  O219  1  0.13858312  0.25953670  0.04328292  1  -0.493447  0  -0.147144  -0.360822  0  1.961202  0
O  O220  1  0.16801516  0.32050452  0.50283562  1  -0.535101  0  -0.160105  -0.38524  0  1.988059  0
O  O221  1  0.66800465  0.67950380  0.99716424  1  -0.535198  0  -0.160107  -0.385234  0  1.988196  0
O  O222  1  0.83199149  0.67949893  0.49716357  1  -0.535159  0  -0.160019  -0.38513  0  1.988084  0
O  O223  1  0.33200328  0.32047978  0.00283527  1  -0.535213  0  -0.160027  -0.385168  0  1.98825  0
