# generated using pymatgen
data_CdH18C24S2(N3Cl)2
_symmetry_space_group_name_H-M   'P 1'
_cell_length_a   8.07995436
_cell_length_b   9.73134259
_cell_length_c   15.70970000
_cell_angle_alpha   90.00000000
_cell_angle_beta   104.63890697
_cell_angle_gamma   90.00000000
_symmetry_Int_Tables_number   1
_chemical_formula_structural   CdH18C24S2(N3Cl)2
_chemical_formula_sum   'Cd2 H36 C48 S4 N12 Cl4'
_cell_volume   1195.13645274
_cell_formula_units_Z   2
loop_
 _symmetry_equiv_pos_site_id
 _symmetry_equiv_pos_as_xyz
  1  'x, y, z'
loop_
 _atom_site_type_symbol
 _atom_site_label
 _atom_site_symmetry_multiplicity
 _atom_site_fract_x
 _atom_site_fract_y
 _atom_site_fract_z
 _atom_site_occupancy
 _atom_site_hle17_bader_spin_density
 _atom_site_hle17_ddec_charge
 _atom_site_hle17_ddec_spin_density
 _atom_site_hle17_ddec_sum_bond_order
 _atom_site_hle17_magmom
 _atom_site_hse06_10hf_bader_spin_density
 _atom_site_hse06_10hf_ddec_charge
 _atom_site_hse06_10hf_ddec_spin_density
 _atom_site_hse06_10hf_ddec_sum_bond_order
 _atom_site_hse06_10hf_magmom
 _atom_site_hse06_bader_spin_density
 _atom_site_hse06_ddec_charge
 _atom_site_hse06_ddec_spin_density
 _atom_site_hse06_ddec_sum_bond_order
 _atom_site_hse06_magmom
 _atom_site_pbe_bader_charge
 _atom_site_pbe_bader_spin_density
 _atom_site_pbe_cm5_charge
 _atom_site_pbe_ddec_charge
 _atom_site_pbe_ddec_spin_density
 _atom_site_pbe_ddec_sum_bond_order
 _atom_site_pbe_magmom
Cd  Cd0  1  0.99999986  0.49999987  0.00000049  1  0  0.936588  0  1.952599  0  0  0.744745  0  2.409362  0  0  0.791647  0  2.371601  0  1.181353  0  0.669663  0.712214  0  2.433995  0
Cd  Cd1  1  0.00000000  0.00000103  0.49999936  1  0  0.936557  0  1.952619  0  0  0.744722  0  2.40937  0  0  0.791627  0  2.37161  0  1.181356  0  0.669652  0.712193  0  2.434002  0
H  H2  1  0.65061531  0.28411290  0.00428641  1  0  0.092951  0  0.981068  0  0  0.09718  0  1.056286  0  0  0.099275  0  1.054486  0  0.182222  0  0.122109  0.095579  0  1.057758  0
H  H3  1  0.34938583  0.78411277  0.49571361  1  0  0.092934  0  0.981086  0  0  0.097158  0  1.056316  0  0  0.099253  0  1.054511  0  0.18222  0  0.122099  0.095558  0  1.057787  0
H  H4  1  0.34938839  0.71588580  0.99571522  1  0  0.092889  0  0.981066  0  0  0.097111  0  1.056302  0  0  0.099205  0  1.054498  0  0.182183  0  0.122078  0.095509  0  1.057774  0
H  H5  1  0.65061275  0.21588799  0.50428544  1  0  0.092905  0  0.981066  0  0  0.097124  0  1.056305  0  0  0.099217  0  1.054502  0  0.182181  0  0.122087  0.095522  0  1.057778  0
H  H6  1  0.85916362  0.18198722  0.27242325  1  0  0.123292  0  0.990865  0  0  0.127354  0  1.060999  0  0  0.1308  0  1.058969  0  0.182112  0  0.106546  0.12479  0  1.062627  0
H  H7  1  0.14084008  0.68198709  0.22757710  1  0  0.123232  0  0.990956  0  0  0.127308  0  1.061067  0  0  0.130755  0  1.059034  0  0.182308  0  0.106512  0.124744  0  1.062695  0
H  H8  1  0.14084008  0.81800943  0.72757837  1  0  0.123224  0  0.990942  0  0  0.127342  0  1.061009  0  0  0.13079  0  1.058977  0  0.182346  0  0.106525  0.124778  0  1.062637  0
H  H9  1  0.85916106  0.31801367  0.77242165  1  0  0.12321  0  0.991016  0  0  0.127325  0  1.061084  0  0  0.130771  0  1.059052  0  0.182107  0  0.106525  0.124761  0  1.062713  0
H  H10  1  0.08687893  0.35474242  0.21216053  1  0  0.102705  0  0.969832  0  0  0.109369  0  1.035203  0  0  0.111766  0  1.034534  0  0.132273  0  0.106113  0.107706  0  1.035725  0
H  H11  1  0.91312349  0.85474331  0.28783902  1  0  0.102737  0  0.969772  0  0  0.109401  0  1.035137  0  0  0.111805  0  1.034451  0  0.13228  0  0.106128  0.107739  0  1.035658  0
H  H12  1  0.91312477  0.64525423  0.78784109  1  0  0.10273  0  0.969853  0  0  0.109399  0  1.035215  0  0  0.111806  0  1.034517  0  0.132263  0  0.106123  0.107736  0  1.035737  0
H  H13  1  0.08687509  0.14525950  0.71215940  1  0  0.102706  0  0.969891  0  0  0.109384  0  1.035238  0  0  0.111782  0  1.034568  0  0.132318  0  0.106123  0.107721  0  1.03576  0
H  H14  1  0.40248227  0.31047617  0.16203467  1  0  0.154898  0  0.977806  0  0  0.158441  0  1.046569  0  0  0.162203  0  1.044143  0  0.184732  0  0.100193  0.154873  0  1.049468  0
H  H15  1  0.59751887  0.81047501  0.33796599  1  0  0.154883  0  0.977825  0  0  0.158418  0  1.046606  0  0  0.162178  0  1.044178  0  0.184748  0  0.10019  0.154852  0  1.049501  0
H  H16  1  0.59751887  0.68952356  0.83796535  1  0  0.154928  0  0.977778  0  0  0.15848  0  1.04653  0  0  0.162241  0  1.044102  0  0.184735  0  0.100214  0.154911  0  1.049431  0
H  H17  1  0.40248099  0.18952678  0.66203323  1  0  0.154888  0  0.977823  0  0  0.158418  0  1.046613  0  0  0.162179  0  1.044185  0  0.184765  0  0.100188  0.154851  0  1.049511  0
H  H18  1  0.33444530  0.84526466  0.14401569  1  0  0.130561  0  0.977707  0  0  0.1374  0  1.044234  0  0  0.140483  0  1.04223  0  0.11272  0  0.105085  0.133727  0  1.048006  0
H  H19  1  0.66555456  0.34526274  0.35598416  1  0  0.130563  0  0.977653  0  0  0.137391  0  1.04421  0  0  0.140477  0  1.042193  0  0.112729  0  0.105079  0.133719  0  1.047982  0
H  H20  1  0.66555712  0.15473404  0.85598577  1  0  0.130579  0  0.977664  0  0  0.137412  0  1.044208  0  0  0.140494  0  1.042202  0  0.112743  0  0.105093  0.13374  0  1.047978  0
H  H21  1  0.33444658  0.65473802  0.64401586  1  0  0.130531  0  0.977682  0  0  0.137354  0  1.04425  0  0  0.140443  0  1.042215  0  0.112715  0  0.105065  0.133681  0  1.048022  0
H  H22  1  0.52154474  0.70889088  0.14274835  1  0  0.106598  0  1.009391  0  0  0.113634  0  1.076433  0  0  0.117044  0  1.075085  0  0.138701  0  0.089853  0.110876  0  1.078143  0
H  H23  1  0.47845768  0.20888896  0.35725247  1  0  0.106694  0  1.00936  0  0  0.11371  0  1.076417  0  0  0.117123  0  1.075061  0  0.138701  0  0.089871  0.110952  0  1.078128  0
H  H24  1  0.47845384  0.29110783  0.85725261  1  0  0.106638  0  1.009339  0  0  0.113675  0  1.076387  0  0  0.117089  0  1.075031  0  0.138645  0  0.089862  0.110912  0  1.07811  0
H  H25  1  0.52154474  0.79111283  0.64274835  1  0  0.106662  0  1.00932  0  0  0.113657  0  1.076402  0  0  0.11707  0  1.075047  0  0.138716  0  0.089855  0.110895  0  1.078126  0
H  H26  1  0.69684141  0.53981349  0.09202039  1  0  0.074707  0  0.960897  0  0  0.080632  0  1.028441  0  0  0.083089  0  1.026368  0  0.078512  0  0.109317  0.079293  0  1.02938  0
H  H27  1  0.30315717  0.03981259  0.40797866  1  0  0.074687  0  0.960912  0  0  0.080607  0  1.028467  0  0  0.083064  0  1.026393  0  0.078561  0  0.10932  0.079268  0  1.029406  0
H  H28  1  0.30315461  0.46018419  0.90797897  1  0  0.074757  0  0.960857  0  0  0.080673  0  1.028412  0  0  0.083128  0  1.026342  0  0.078568  0  0.109341  0.079334  0  1.029351  0
H  H29  1  0.69684269  0.96018919  0.59202056  1  0  0.074714  0  0.96088  0  0  0.080639  0  1.028429  0  0  0.083092  0  1.02636  0  0.078526  0  0.109315  0.079301  0  1.029367  0
H  H30  1  0.01682473  0.83806833  0.03430787  1  0  0.066175  0  0.953488  0  0  0.072155  0  1.025995  0  0  0.074558  0  1.0238  0  0.080584  0  0.104936  0.07035  0  1.027604  0
H  H31  1  0.98317514  0.33806743  0.46569135  1  0  0.066143  0  0.953546  0  0  0.072132  0  1.026037  0  0  0.074537  0  1.023842  0  0.080606  0  0.104927  0.070326  0  1.027646  0
H  H32  1  0.98317386  0.16193141  0.96569309  1  0  0.066191  0  0.953418  0  0  0.07211  0  1.025985  0  0  0.074506  0  1.023794  0  0.080542  0  0.104927  0.070304  0  1.027594  0
H  H33  1  0.01682345  0.66193538  0.53430516  1  0  0.06614  0  0.953507  0  0  0.072093  0  1.02604  0  0  0.074495  0  1.023848  0  0.080565  0  0.10491  0.070288  0  1.027649  0
H  H34  1  0.84901480  0.02524318  0.07783175  1  0  0.097998  0  0.992087  0  0  0.10315  0  1.062999  0  0  0.106197  0  1.062442  0  0.090668  0  0.099192  0.101116  0  1.063339  0
H  H35  1  0.15098634  0.52524099  0.42216827  1  0  0.097995  0  0.992115  0  0  0.103161  0  1.062995  0  0  0.106211  0  1.062431  0  0.090633  0  0.099186  0.101111  0  1.063365  0
H  H36  1  0.15098378  0.97475553  0.92216921  1  0  0.097977  0  0.992087  0  0  0.103139  0  1.062981  0  0  0.106186  0  1.062423  0  0.090574  0  0.099171  0.1011  0  1.063339  0
H  H37  1  0.84901352  0.47475977  0.57783032  1  0  0.097976  0  0.992199  0  0  0.10319  0  1.063002  0  0  0.106242  0  1.062441  0  0.090644  0  0.099191  0.101127  0  1.06338  0
C  C38  1  0.74151206  0.27934994  0.06818278  1  0  0.151342  0  3.660005  0  0  0.093654  0  3.924778  0  0  0.107411  0  3.93578  0  0.915886  0  0.134603  0.085459  0  3.915865  0
C  C39  1  0.25849036  0.77935084  0.43181741  1  0  0.151327  0  3.660009  0  0  0.09363  0  3.924811  0  0  0.107388  0  3.935809  0  0.915733  0  0.134606  0.085436  0  3.915894  0
C  C40  1  0.25849164  0.72064774  0.93181885  1  0  0.151467  0  3.66  0  0  0.093745  0  3.924809  0  0  0.107502  0  3.93581  0  0.915913  0  0.1346  0.08555  0  3.915895  0
C  C41  1  0.74150823  0.22065095  0.56818101  1  0  0.151379  0  3.65992  0  0  0.093671  0  3.924744  0  0  0.10743  0  3.935743  0  0.915865  0  0.134604  0.085478  0  3.915827  0
C  C42  1  0.85413014  0.22972164  0.20923500  1  0  -0.060312  0  3.640148  0  0  -0.099785  0  3.896057  0  0  -0.098307  0  3.913404  0  0.24423  0  -0.004112  -0.099769  0  3.883628  0
C  C43  1  0.14587227  0.72972254  0.29076582  1  0  -0.060265  0  3.640229  0  0  -0.099755  0  3.896138  0  0  -0.098278  0  3.913492  0  0.243845  0  -0.004077  -0.099736  0  3.883708  0
C  C44  1  0.14587483  0.77027501  0.79076679  1  0  -0.06022  0  3.640229  0  0  -0.099749  0  3.896105  0  0  -0.098289  0  3.913482  0  0.243903  0  -0.004078  -0.09973  0  3.883672  0
C  C45  1  0.85412631  0.27028028  0.70923387  1  0  -0.060215  0  3.640205  0  0  -0.09974  0  3.8961  0  0  -0.098265  0  3.913453  0  0.244261  0  -0.004067  -0.099722  0  3.883669  0
C  C46  1  0.96367442  0.31250261  0.17805245  1  0  -0.013115  0  3.774262  0  0  -0.045948  0  4.045525  0  0  -0.044092  0  4.064809  0  0.39716  0  -0.014657  -0.046833  0  4.031853  0
C  C47  1  0.03632928  0.81250351  0.32194727  1  0  -0.013134  0  3.774245  0  0  -0.045965  0  4.045523  0  0  -0.044108  0  4.064806  0  0.39739  0  -0.014657  -0.04685  0  4.03185  0
C  C48  1  0.03632928  0.68749301  0.82194918  1  0  -0.013121  0  3.77419  0  0  -0.045958  0  4.045445  0  0  -0.044097  0  4.064733  0  0.397039  0  -0.014647  -0.046843  0  4.031773  0
C  C49  1  0.96367314  0.18749725  0.67805164  1  0  -0.013096  0  3.774128  0  0  -0.045942  0  4.045391  0  0  -0.044086  0  4.064674  0  0.396809  0  -0.014653  -0.046827  0  4.03172  0
C  C50  1  0.56269899  0.13450354  0.14128796  1  0  0.134529  0  3.759211  0  0  0.122416  0  4.012292  0  0  0.125886  0  4.035253  0  0.339296  0  0.078535  0.120115  0  3.996537  0
C  C51  1  0.43730215  0.63450340  0.35871270  1  0  0.134478  0  3.759196  0  0  0.122387  0  4.012284  0  0  0.125855  0  4.035248  0  0.339385  0  0.078517  0.120087  0  3.996528  0
C  C52  1  0.43730471  0.86549414  0.85871430  1  0  0.134571  0  3.759182  0  0  0.122368  0  4.012408  0  0  0.125831  0  4.035375  0  0.339278  0  0.07853  0.120068  0  3.99665  0
C  C53  1  0.56269899  0.36549941  0.64128669  1  0  0.134436  0  3.759298  0  0  0.12237  0  4.012363  0  0  0.12584  0  4.035325  0  0.339279  0  0.078531  0.120071  0  3.996607  0
C  C54  1  0.42198555  0.20023239  0.15618389  1  0  -0.227978  0  3.628482  0  0  -0.252644  0  3.906413  0  0  -0.253584  0  3.923069  0  -0.217153  0  -0.094418  -0.251179  0  3.895694  0
C  C55  1  0.57801431  0.70023123  0.34381533  1  0  -0.227947  0  3.628503  0  0  -0.252603  0  3.906423  0  0  -0.253536  0  3.923073  0  -0.217246  0  -0.094403  -0.251138  0  3.895704  0
C  C56  1  0.57801687  0.79976734  0.84381757  1  0  -0.227982  0  3.628383  0  0  -0.252619  0  3.906319  0  0  -0.253553  0  3.92297  0  -0.21712  0  -0.094414  -0.251154  0  3.8956  0
C  C57  1  0.42198555  0.29977056  0.65618262  1  0  -0.227932  0  3.628441  0  0  -0.25258  0  3.906341  0  0  -0.253515  0  3.92299  0  -0.217213  0  -0.094417  -0.251117  0  3.895623  0
C  C58  1  0.38666168  0.94853613  0.14584684  1  0  -0.215122  0  3.681923  0  0  -0.237711  0  3.959868  0  0  -0.238223  0  3.978161  0  -0.250374  0  -0.098083  -0.236324  0  3.948232  0
C  C59  1  0.61333818  0.44853626  0.35415365  1  0  -0.215123  0  3.68194  0  0  -0.237678  0  3.959874  0  0  -0.238186  0  3.978168  0  -0.250413  0  -0.098071  -0.236292  0  3.948239  0
C  C60  1  0.61333946  0.05146361  0.85415445  1  0  -0.215179  0  3.681823  0  0  -0.237736  0  3.959755  0  0  -0.238244  0  3.978043  0  -0.250876  0  -0.09808  -0.23635  0  3.94812  0
C  C61  1  0.38666296  0.55146553  0.64584573  1  0  -0.215007  0  3.681882  0  0  -0.237574  0  3.959845  0  0  -0.238097  0  3.978193  0  -0.250431  0  -0.098019  -0.236186  0  3.948206  0
C  C62  1  0.54475756  0.98743518  0.13392711  1  0  -0.021583  0  3.786095  0  0  -0.016989  0  4.030737  0  0  -0.019903  0  4.054083  0  0.081361  0  -0.022734  -0.015102  0  4.014615  0
C  C63  1  0.45524486  0.48743428  0.36607244  1  0  -0.021536  0  3.786066  0  0  -0.01702  0  4.030785  0  0  -0.019934  0  4.054132  0  0.081372  0  -0.022735  -0.015133  0  4.014663  0
C  C64  1  0.45524230  0.01256250  0.86607465  1  0  -0.021542  0  3.785912  0  0  -0.016978  0  4.030673  0  0  -0.019889  0  4.054018  0  0.081884  0  -0.022786  -0.015091  0  4.01455  0
C  C65  1  0.54475628  0.51256751  0.63392695  1  0  -0.021546  0  3.786104  0  0  -0.017043  0  4.030842  0  0  -0.01996  0  4.054186  0  0.08145  0  -0.022785  -0.015156  0  4.014719  0
C  C66  1  0.66378549  0.88667108  0.11307676  1  0  0.127522  0  3.750598  0  0  0.139322  0  3.981631  0  0  0.145456  0  4.002041  0  -0.029963  0  0.010985  0.135289  0  3.967616  0
C  C67  1  0.33621437  0.38667018  0.38692310  1  0  0.12754  0  3.750703  0  0  0.139386  0  3.981696  0  0  0.145521  0  4.002105  0  -0.029993  0  0.010995  0.135354  0  3.967678  0
C  C68  1  0.33621437  0.11332660  0.88692437  1  0  0.127554  0  3.750479  0  0  0.139342  0  3.981561  0  0  0.145476  0  4.001971  0  -0.029979  0  0.011003  0.135311  0  3.967543  0
C  C69  1  0.66378677  0.61333264  0.61307629  1  0  0.127562  0  3.750599  0  0  0.139383  0  3.981639  0  0  0.145518  0  4.002051  0  -0.029954  0  0.011023  0.135351  0  3.967618  0
C  C70  1  0.62876862  0.74577274  0.11872836  1  0  -0.180557  0  3.726013  0  0  -0.195661  0  3.969021  0  0  -0.204068  0  3.99004  0  -0.073884  0  -0.095114  -0.190159  0  3.955483  0
C  C71  1  0.37123380  0.24577287  0.38127120  1  0  -0.18072  0  3.72599  0  0  -0.195813  0  3.968963  0  0  -0.20422  0  3.98998  0  -0.073892  0  -0.095136  -0.190311  0  3.955427  0
C  C72  1  0.37122868  0.25422391  0.88127244  1  0  -0.180587  0  3.725926  0  0  -0.195685  0  3.968941  0  0  -0.204093  0  3.989961  0  -0.073708  0  -0.095113  -0.190184  0  3.955401  0
C  C73  1  0.62876862  0.75422995  0.61872836  1  0  -0.180716  0  3.726087  0  0  -0.195789  0  3.96911  0  0  -0.204196  0  3.990128  0  -0.073864  0  -0.095171  -0.190287  0  3.955571  0
C  C74  1  0.72802593  0.64852100  0.09067086  1  0  0.131308  0  3.732681  0  0  0.101529  0  3.9845  0  0  0.109119  0  4.002007  0  0.479416  0  0.038931  0.096058  0  3.973055  0
C  C75  1  0.27197265  0.14851805  0.40932883  1  0  0.131436  0  3.732531  0  0  0.101659  0  3.98436  0  0  0.109249  0  4.001862  0  0.479784  0  0.038989  0.096188  0  3.972915  0
C  C76  1  0.27197137  0.35147771  0.90932930  1  0  0.131229  0  3.73253  0  0  0.101463  0  3.984325  0  0  0.109052  0  4.001834  0  0.479339  0  0.038904  0.095993  0  3.972879  0
C  C77  1  0.72802593  0.85148271  0.59067023  1  0  0.131332  0  3.732699  0  0  0.101551  0  3.984497  0  0  0.109146  0  4.002002  0  0.479721  0  0.038975  0.096081  0  3.97305  0
C  C78  1  0.90441628  0.81463682  0.05829038  1  0  0.120549  0  3.75385  0  0  0.090677  0  4.009775  0  0  0.098135  0  4.027797  0  0.448142  0  0.036468  0.085928  0  3.99749  0
C  C79  1  0.09558485  0.31463490  0.44170901  1  0  0.120578  0  3.753953  0  0  0.090704  0  4.009897  0  0  0.09816  0  4.027919  0  0.448145  0  0.036508  0.085957  0  3.997608  0
C  C80  1  0.09558230  0.18536188  0.94171058  1  0  0.120531  0  3.75384  0  0  0.090703  0  4.009746  0  0  0.098167  0  4.027761  0  0.448383  0  0.036496  0.085955  0  3.99746  0
C  C81  1  0.90441373  0.68536586  0.55828813  1  0  0.120628  0  3.753845  0  0  0.090774  0  4.009776  0  0  0.098232  0  4.027798  0  0.447733  0  0.036554  0.086026  0  3.997482  0
C  C82  1  0.80957334  0.91959870  0.08339391  1  0  -0.173325  0  3.706311  0  0  -0.192304  0  3.957738  0  0  -0.199799  0  3.978225  0  -0.001743  0  -0.093388  -0.187687  0  3.943989  0
C  C83  1  0.19042908  0.41959575  0.41660500  1  0  -0.173361  0  3.706522  0  0  -0.192331  0  3.957881  0  0  -0.199825  0  3.978364  0  -0.001654  0  -0.093416  -0.187706  0  3.944136  0
C  C84  1  0.19042396  0.08040001  0.91660625  1  0  -0.173347  0  3.706274  0  0  -0.192328  0  3.95771  0  0  -0.19982  0  3.978191  0  -0.001703  0  -0.093398  -0.187712  0  3.943958  0
C  C85  1  0.80957206  0.58040604  0.58339311  1  0  -0.17335  0  3.706567  0  0  -0.192356  0  3.957949  0  0  -0.199856  0  3.978438  0  -0.001633  0  -0.093401  -0.187716  0  3.944216  0
S  S86  1  0.26732164  0.08434807  0.16361392  1  0  0.214907  0  2.737096  0  0  0.23052  0  3.079396  0  0  0.225906  0  3.091777  0  0.289512  0  0.111514  0.232997  0  3.071495  0
S  S87  1  0.73267950  0.58434794  0.33638737  1  0  0.214889  0  2.737085  0  0  0.230492  0  3.079383  0  0  0.225876  0  3.09176  0  0.289504  0  0.111499  0.232971  0  3.071483  0
S  S88  1  0.73268078  0.91565166  0.83638818  1  0  0.214909  0  2.737025  0  0  0.230527  0  3.079303  0  0  0.225913  0  3.091681  0  0.289431  0  0.111524  0.233005  0  3.071403  0
S  S89  1  0.26732036  0.41565488  0.66361121  1  0  0.214818  0  2.737073  0  0  0.230428  0  3.079357  0  0  0.225814  0  3.091738  0  0.289546  0  0.111475  0.232906  0  3.071456  0
N  N90  1  0.89273120  0.34173599  0.09031574  1  0  -0.373812  0  3.251933  0  0  -0.303056  0  3.532197  0  0  -0.32175  0  3.548871  0  -1.214786  0  -0.35393  -0.290111  0  3.519182  0
N  N91  1  0.10727121  0.84173791  0.40968381  1  0  -0.373769  0  3.251899  0  0  -0.303  0  3.532143  0  0  -0.321702  0  3.548843  0  -1.214628  0  -0.353919  -0.290057  0  3.519129  0
N  N92  1  0.10727249  0.65826169  0.90968652  1  0  -0.373835  0  3.251875  0  0  -0.303055  0  3.532146  0  0  -0.321747  0  3.548817  0  -1.214445  0  -0.353938  -0.290111  0  3.519131  0
N  N93  1  0.89272993  0.15826388  0.59031430  1  0  -0.373836  0  3.251803  0  0  -0.303065  0  3.532072  0  0  -0.321761  0  3.548752  0  -1.214362  0  -0.353937  -0.29012  0  3.519056  0
N  N94  1  0.71297539  0.20981791  0.13862000  1  0  -0.082855  0  3.601488  0  0  0.011305  0  3.806599  0  0  -0.003181  0  3.831929  0  -1.25042  0  -0.228499  0.020111  0  3.788869  0
N  N95  1  0.28702575  0.70981778  0.36138066  1  0  -0.082861  0  3.601485  0  0  0.011306  0  3.806602  0  0  -0.003179  0  3.831932  0  -1.250462  0  -0.228511  0.020113  0  3.788868  0
N  N96  1  0.28702830  0.79017874  0.86138226  1  0  -0.083029  0  3.601725  0  0  0.011202  0  3.806844  0  0  -0.00328  0  3.832175  0  -1.250503  0  -0.228488  0.02001  0  3.789109  0
N  N97  1  0.71297284  0.29018298  0.63861839  1  0  -0.082819  0  3.601566  0  0  0.011337  0  3.806687  0  0  -0.003148  0  3.832018  0  -1.250465  0  -0.228491  0.020144  0  3.78895  0
N  N98  1  0.86401418  0.68102525  0.06001085  1  0  -0.325406  0  3.267515  0  0  -0.25042  0  3.527978  0  0  -0.269053  0  3.546987  0  -1.213018  0  -0.333451  -0.237983  0  3.514951  0
N  N99  1  0.13598569  0.18102538  0.43998836  1  0  -0.325432  0  3.267487  0  0  -0.250471  0  3.527982  0  0  -0.269106  0  3.546994  0  -1.213455  0  -0.333504  -0.238034  0  3.514953  0
N  N100  1  0.13598313  0.31897243  0.93998994  1  0  -0.32537  0  3.267443  0  0  -0.250377  0  3.527884  0  0  -0.269004  0  3.546876  0  -1.213233  0  -0.333457  -0.237942  0  3.514862  0
N  N101  1  0.86401290  0.81897744  0.56000878  1  0  -0.325372  0  3.267404  0  0  -0.25039  0  3.527877  0  0  -0.26902  0  3.546872  0  -1.213069  0  -0.333471  -0.237958  0  3.514867  0
Cl  Cl102  1  0.27870356  0.54471107  0.12597616  1  0  -0.624266  0  0.801376  0  0  -0.566585  0  1.045235  0  0  -0.581192  0  1.028069  0  -0.716884  0  -0.350827  -0.555218  0  1.05815  0
Cl  Cl103  1  0.72129502  0.04471325  0.37402416  1  0  -0.624262  0  0.801373  0  0  -0.566576  0  1.04524  0  0  -0.581184  0  1.028071  0  -0.716871  0  -0.350825  -0.555209  0  1.058154  0
Cl  Cl104  1  0.72129502  0.45528661  0.87402544  1  0  -0.624263  0  0.801365  0  0  -0.566585  0  1.045232  0  0  -0.581195  0  1.028064  0  -0.716869  0  -0.350825  -0.555217  0  1.058148  0
Cl  Cl105  1  0.27870356  0.95528956  0.62597743  1  0  -0.62426  0  0.80135  0  0  -0.566579  0  1.04521  0  0  -0.581186  0  1.028043  0  -0.716885  0  -0.350832  -0.555211  0  1.058126  0
