# generated using pymatgen
data_ZnH5C10N3O4
_symmetry_space_group_name_H-M   'P 1'
_cell_length_a   9.68438511
_cell_length_b   10.57270721
_cell_length_c   11.15709337
_cell_angle_alpha   90.00003437
_cell_angle_beta   90.00004383
_cell_angle_gamma   90.00029988
_symmetry_Int_Tables_number   1
_chemical_formula_structural   ZnH5C10N3O4
_chemical_formula_sum   'Zn4 H20 C40 N12 O16'
_cell_volume   1142.37666796
_cell_formula_units_Z   4
loop_
 _symmetry_equiv_pos_site_id
 _symmetry_equiv_pos_as_xyz
  1  'x, y, z'
loop_
 _atom_site_type_symbol
 _atom_site_label
 _atom_site_symmetry_multiplicity
 _atom_site_fract_x
 _atom_site_fract_y
 _atom_site_fract_z
 _atom_site_occupancy
 _atom_site_hle17_bader_spin_density
 _atom_site_hle17_ddec_charge
 _atom_site_hle17_ddec_spin_density
 _atom_site_hle17_ddec_sum_bond_order
 _atom_site_hle17_magmom
 _atom_site_hse06_10hf_bader_spin_density
 _atom_site_hse06_10hf_ddec_charge
 _atom_site_hse06_10hf_ddec_spin_density
 _atom_site_hse06_10hf_ddec_sum_bond_order
 _atom_site_hse06_10hf_magmom
 _atom_site_hse06_bader_spin_density
 _atom_site_hse06_ddec_charge
 _atom_site_hse06_ddec_spin_density
 _atom_site_hse06_ddec_sum_bond_order
 _atom_site_hse06_magmom
 _atom_site_pbe_bader_spin_density
 _atom_site_pbe_cm5_charge
 _atom_site_pbe_ddec_charge
 _atom_site_pbe_ddec_spin_density
 _atom_site_pbe_ddec_sum_bond_order
 _atom_site_pbe_magmom
Zn  Zn0  1  0.14527688  0.88326157  0.67920766  1  0  0.944104  0  1.903826  0  0  0.745027  0  2.37017  0  0  0.788479  0  2.324254  0  0  0.720422  0.715387  0  2.400799  0
Zn  Zn1  1  0.35472402  0.11673922  0.17920812  1  0  0.944094  0  1.903815  0  0  0.74501  0  2.370157  0  0  0.788454  0  2.324257  0  0  0.720412  0.715371  0  2.400784  0
Zn  Zn2  1  0.85472376  0.38326083  0.82079033  1  0  0.944113  0  1.903767  0  0  0.745031  0  2.370102  0  0  0.788495  0  2.324175  0  0  0.720441  0.715393  0  2.400728  0
Zn  Zn3  1  0.64527673  0.61674057  0.32079003  1  0  0.944105  0  1.903799  0  0  0.745025  0  2.370139  0  0  0.788476  0  2.324228  0  0  0.720418  0.715387  0  2.400764  0
H  H4  1  0.69924807  0.92769989  0.46731037  1  0  0.10702  0  0.958026  0  0  0.115072  0  1.021133  0  0  0.117959  0  1.019126  0  0  0.109448  0.113222  0  1.02242  0
H  H5  1  0.80075152  0.07229782  0.96730867  1  0  0.106998  0  0.958036  0  0  0.115052  0  1.021149  0  0  0.117941  0  1.019141  0  0  0.109458  0.113202  0  1.022436  0
H  H6  1  0.30075239  0.42770103  0.03268974  1  0  0.106999  0  0.958062  0  0  0.11505  0  1.021171  0  0  0.117939  0  1.019163  0  0  0.109451  0.113201  0  1.022458  0
H  H7  1  0.19924735  0.57229967  0.53269004  1  0  0.106999  0  0.958052  0  0  0.115048  0  1.021163  0  0  0.117936  0  1.019156  0  0  0.109448  0.113199  0  1.02245  0
H  H8  1  0.66284532  0.95611077  0.69115810  1  0  0.116378  0  0.939743  0  0  0.126144  0  0.995218  0  0  0.129396  0  0.99492  0  0  0.112331  0.124116  0  0.994968  0
H  H9  1  0.83715403  0.04388677  0.19115671  1  0  0.11636  0  0.939762  0  0  0.12615  0  0.995214  0  0  0.129403  0  0.994913  0  0  0.112311  0.124122  0  0.994964  0
H  H10  1  0.33715368  0.45611131  0.80884262  1  0  0.116363  0  0.939737  0  0  0.126129  0  0.995221  0  0  0.129381  0  0.994923  0  0  0.112318  0.124102  0  0.99497  0
H  H11  1  0.16284424  0.54388863  0.30884229  1  0  0.116395  0  0.939759  0  0  0.126183  0  0.995212  0  0  0.129436  0  0.994912  0  0  0.112334  0.124155  0  0.994963  0
H  H12  1  0.42592990  0.93653529  0.77250805  1  0  0.099262  0  0.969313  0  0  0.103846  0  1.036155  0  0  0.106986  0  1.032709  0  0  0.11992  0.101724  0  1.038231  0
H  H13  1  0.07406902  0.06346273  0.27250919  1  0  0.099266  0  0.96928  0  0  0.103859  0  1.036124  0  0  0.106998  0  1.032679  0  0  0.119914  0.101736  0  1.0382  0
H  H14  1  0.57406899  0.43653598  0.72749086  1  0  0.099254  0  0.969286  0  0  0.10384  0  1.03613  0  0  0.106978  0  1.032686  0  0  0.119909  0.101718  0  1.038207  0
H  H15  1  0.92592730  0.56346442  0.22749161  1  0  0.099284  0  0.969288  0  0  0.103875  0  1.036119  0  0  0.107014  0  1.032675  0  0  0.119919  0.101753  0  1.038195  0
H  H16  1  0.25888643  0.87200164  0.43514502  1  0  0.101013  0  0.937483  0  0  0.109923  0  0.998539  0  0  0.11264  0  0.996037  0  0  0.125463  0.108248  0  0.999994  0
H  H17  1  0.24111159  0.12799837  0.93514690  1  0  0.101003  0  0.937548  0  0  0.109896  0  0.998631  0  0  0.112609  0  0.996128  0  0  0.125464  0.108222  0  1.000085  0
H  H18  1  0.74111267  0.37200113  0.06485326  1  0  0.101002  0  0.93751  0  0  0.109913  0  0.998567  0  0  0.112629  0  0.996066  0  0  0.125461  0.108239  0  1.000022  0
H  H19  1  0.75888656  0.62799916  0.56485364  1  0  0.100979  0  0.937564  0  0  0.109889  0  0.99862  0  0  0.112605  0  0.996118  0  0  0.125446  0.108214  0  1.000075  0
H  H20  1  0.66551228  0.83979722  0.93678924  1  0  0.382352  0  0.917448  0  0  0.351965  0  0.996635  0  0  0.36496  0  0.984187  0  0  0.290074  0.342942  0  1.00499  0
H  H21  1  0.83448729  0.16020236  0.43678971  1  0  0.382352  0  0.917445  0  0  0.351966  0  0.996633  0  0  0.36496  0  0.984188  0  0  0.290079  0.342942  0  1.004989  0
H  H22  1  0.33448709  0.33979759  0.56320962  1  0  0.382364  0  0.917318  0  0  0.351936  0  0.996585  0  0  0.364927  0  0.984146  0  0  0.290095  0.342912  0  1.004941  0
H  H23  1  0.16551371  0.66020313  0.06321115  1  0  0.382353  0  0.91734  0  0  0.351916  0  0.996615  0  0  0.364907  0  0.984178  0  0  0.290087  0.342892  0  1.004972  0
C  C24  1  0.68940673  0.72283358  0.07163468  1  0  0.636856  0  3.878896  0  0  0.587713  0  4.176651  0  0  0.621863  0  4.167605  0  0  0.223918  0.564486  0  4.182644  0
C  C25  1  0.81059355  0.27716766  0.57163668  1  0  0.636957  0  3.878957  0  0  0.587824  0  4.176723  0  0  0.621974  0  4.167678  0  0  0.223955  0.564594  0  4.182717  0
C  C26  1  0.31059256  0.22283785  0.42836532  1  0  0.636756  0  3.878767  0  0  0.587757  0  4.176366  0  0  0.621908  0  4.16732  0  0  0.22397  0.564527  0  4.182361  0
C  C27  1  0.18941165  0.77716878  0.92836394  1  0  0.636703  0  3.878857  0  0  0.587627  0  4.176544  0  0  0.621777  0  4.1675  0  0  0.223884  0.564398  0  4.182539  0
C  C28  1  0.60502375  0.81017054  0.14284229  1  0  -0.021384  0  3.819716  0  0  -0.026348  0  4.068682  0  0  -0.030054  0  4.090712  0  0  0.069559  -0.024468  0  4.054266  0
C  C29  1  0.89497659  0.18982980  0.64284341  1  0  -0.02144  0  3.819701  0  0  -0.026467  0  4.068755  0  0  -0.030173  0  4.090784  0  0  0.069526  -0.02458  0  4.054331  0
C  C30  1  0.39497397  0.31016855  0.35715596  1  0  -0.021447  0  3.819937  0  0  -0.026455  0  4.068871  0  0  -0.03016  0  4.090899  0  0  0.069543  -0.024567  0  4.054445  0
C  C31  1  0.10502708  0.68983236  0.85715717  1  0  -0.021369  0  3.819756  0  0  -0.02641  0  4.068781  0  0  -0.030111  0  4.090812  0  0  0.069571  -0.024523  0  4.054358  0
C  C32  1  0.53454048  0.92080995  0.11531272  1  0  0.002107  0  3.801704  0  0  -0.00812  0  4.056336  0  0  -0.008977  0  4.076719  0  0  0.072614  -0.007816  0  4.043003  0
C  C33  1  0.96545983  0.07918943  0.61531293  1  0  0.002165  0  3.801562  0  0  -0.008075  0  4.056227  0  0  -0.008923  0  4.076598  0  0  0.072653  -0.007773  0  4.042892  0
C  C34  1  0.46546097  0.42080926  0.38468917  1  0  0.002181  0  3.801703  0  0  -0.008066  0  4.056285  0  0  -0.008917  0  4.076659  0  0  0.07262  -0.007762  0  4.042948  0
C  C35  1  0.03454011  0.57919261  0.88468937  1  0  0.002147  0  3.801683  0  0  -0.008043  0  4.056274  0  0  -0.008907  0  4.076663  0  0  0.072644  -0.007741  0  4.042939  0
C  C36  1  0.53040100  0.99810893  0.00519267  1  0  0.630779  0  3.94618  0  0  0.578762  0  4.251129  0  0  0.613118  0  4.24159  0  0  0.208712  0.555719  0  4.257581  0
C  C37  1  0.96960025  0.00189227  0.50519194  1  0  0.630779  0  3.946152  0  0  0.578793  0  4.251064  0  0  0.613147  0  4.241519  0  0  0.20872  0.555749  0  4.257515  0
C  C38  1  0.46959469  0.49810361  0.49481196  1  0  0.630714  0  3.946349  0  0  0.578801  0  4.251132  0  0  0.613156  0  4.24159  0  0  0.208772  0.555756  0  4.257583  0
C  C39  1  0.03040442  0.50189550  0.99481032  1  0  0.63076  0  3.946326  0  0  0.578777  0  4.251201  0  0  0.613135  0  4.24166  0  0  0.208755  0.555731  0  4.257652  0
C  C40  1  0.50495262  0.88025646  0.30513634  1  0  0.37117  0  3.712845  0  0  0.336824  0  3.977508  0  0  0.352745  0  3.992945  0  0  0.227484  0.326485  0  3.966332  0
C  C41  1  0.99504787  0.11974303  0.80513569  1  0  0.371103  0  3.712856  0  0  0.336733  0  3.977478  0  0  0.352651  0  3.992923  0  0  0.227484  0.326397  0  3.9663  0
C  C42  1  0.49504654  0.38025864  0.19486375  1  0  0.371195  0  3.712749  0  0  0.336791  0  3.97748  0  0  0.352711  0  3.992921  0  0  0.22747  0.326452  0  3.966304  0
C  C43  1  0.00495334  0.61974311  0.69486484  1  0  0.371151  0  3.712796  0  0  0.336748  0  3.977518  0  0  0.352667  0  3.99296  0  0  0.227464  0.32641  0  3.966342  0
C  C44  1  0.48195694  0.89690592  0.43461540  1  0  -0.043179  0  3.76597  0  0  -0.019568  0  4.005191  0  0  -0.027911  0  4.028338  0  0  0.004269  -0.01417  0  3.989209  0
C  C45  1  0.01804212  0.10309125  0.93461622  1  0  -0.043196  0  3.765914  0  0  -0.01948  0  4.005021  0  0  -0.027821  0  4.028172  0  0  0.004195  -0.014088  0  3.989038  0
C  C46  1  0.51804334  0.39690623  0.06538380  1  0  -0.043256  0  3.765914  0  0  -0.019633  0  4.005163  0  0  -0.027975  0  4.02831  0  0  0.004223  -0.014236  0  3.989181  0
C  C47  1  0.98195796  0.60309311  0.56538431  1  0  -0.043255  0  3.765807  0  0  -0.019599  0  4.005013  0  0  -0.02794  0  4.028159  0  0  0.004205  -0.014205  0  3.989031  0
C  C48  1  0.59699273  0.91990223  0.50779490  1  0  -0.019207  0  3.665093  0  0  -0.048876  0  3.91235  0  0  -0.044124  0  3.930268  0  0  -0.056049  -0.051429  0  3.899418  0
C  C49  1  0.90300749  0.08009519  0.00779357  1  0  -0.019136  0  3.665041  0  0  -0.048853  0  3.912297  0  0  -0.044103  0  3.930215  0  0  -0.056059  -0.051402  0  3.899362  0
C  C50  1  0.40300812  0.41990226  0.99220401  1  0  -0.019125  0  3.665076  0  0  -0.04879  0  3.912338  0  0  -0.044038  0  3.930255  0  0  -0.05602  -0.051343  0  3.899406  0
C  C51  1  0.09699099  0.58009780  0.49220545  1  0  -0.019101  0  3.665043  0  0  -0.048784  0  3.912301  0  0  -0.044031  0  3.930216  0  0  -0.056013  -0.051335  0  3.899367  0
C  C52  1  0.57775671  0.93569855  0.63040030  1  0  -0.104207  0  3.72187  0  0  -0.115239  0  3.972657  0  0  -0.123898  0  3.994301  0  0  -0.07694  -0.10946  0  3.956692  0
C  C53  1  0.92224258  0.06429894  0.13039988  1  0  -0.104205  0  3.721847  0  0  -0.115237  0  3.972637  0  0  -0.123897  0  3.994285  0  0  -0.076915  -0.109461  0  3.956671  0
C  C54  1  0.42224320  0.43569860  0.86959861  1  0  -0.104215  0  3.721849  0  0  -0.11525  0  3.972658  0  0  -0.123909  0  3.994302  0  0  -0.076956  -0.109472  0  3.956692  0
C  C55  1  0.07775580  0.56430043  0.36959913  1  0  -0.104269  0  3.721927  0  0  -0.115317  0  3.972714  0  0  -0.123977  0  3.994362  0  0  -0.07697  -0.109539  0  3.956749  0
C  C56  1  0.44519795  0.92587957  0.67704054  1  0  0.143165  0  3.656152  0  0  0.107672  0  3.901922  0  0  0.117011  0  3.917739  0  0  0.056438  0.10198  0  3.890171  0
C  C57  1  0.05480191  0.07411839  0.17703988  1  0  0.14319  0  3.656089  0  0  0.107656  0  3.901909  0  0  0.116991  0  3.91773  0  0  0.056505  0.101965  0  3.890156  0
C  C58  1  0.55480190  0.42587928  0.82295927  1  0  0.143173  0  3.656099  0  0  0.10767  0  3.90189  0  0  0.117009  0  3.917709  0  0  0.056502  0.101977  0  3.890139  0
C  C59  1  0.94519653  0.57411929  0.32296004  1  0  0.143167  0  3.656161  0  0  0.107663  0  3.901948  0  0  0.116998  0  3.91777  0  0  0.056517  0.101972  0  3.890195  0
C  C60  1  0.35197037  0.88897105  0.48752519  1  0  0.127718  0  3.642795  0  0  0.082152  0  3.891414  0  0  0.090971  0  3.907793  0  0  0.060151  0.076088  0  3.880382  0
C  C61  1  0.14803080  0.11102711  0.98752520  1  0  0.12765  0  3.642926  0  0  0.082049  0  3.891541  0  0  0.090874  0  3.907913  0  0  0.060143  0.07599  0  3.880504  0
C  C62  1  0.64803090  0.38897100  0.01247400  1  0  0.127652  0  3.642844  0  0  0.082082  0  3.891463  0  0  0.090904  0  3.907841  0  0  0.060127  0.076018  0  3.880431  0
C  C63  1  0.85196829  0.61102925  0.51247533  1  0  0.127736  0  3.642772  0  0  0.082161  0  3.891371  0  0  0.090982  0  3.907747  0  0  0.060184  0.076101  0  3.880337  0
N  N64  1  0.58511333  0.78585887  0.26239044  1  0  -0.436115  0  3.266534  0  0  -0.361401  0  3.555484  0  0  -0.381175  0  3.566965  0  0  -0.355976  -0.347971  0  3.547238  0
N  N65  1  0.91488608  0.21414154  0.76239158  1  0  -0.43608  0  3.26657  0  0  -0.361325  0  3.555508  0  0  -0.381105  0  3.566999  0  0  -0.355954  -0.347898  0  3.547257  0
N  N66  1  0.41488529  0.28585880  0.23760780  1  0  -0.436059  0  3.266491  0  0  -0.361309  0  3.555428  0  0  -0.381085  0  3.566915  0  0  -0.355914  -0.347882  0  3.54718  0
N  N67  1  0.08511360  0.71414298  0.73760990  1  0  -0.436074  0  3.266474  0  0  -0.361331  0  3.555451  0  0  -0.381104  0  3.566933  0  0  -0.355947  -0.347903  0  3.547203  0
N  N68  1  0.47057169  0.96309323  0.21744505  1  0  -0.429963  0  3.213443  0  0  -0.357427  0  3.500402  0  0  -0.377192  0  3.511187  0  0  -0.349007  -0.343808  0  3.492352  0
N  N69  1  0.02942924  0.03690760  0.71744405  1  0  -0.429965  0  3.213464  0  0  -0.357421  0  3.50043  0  0  -0.377192  0  3.511217  0  0  -0.349034  -0.343803  0  3.492381  0
N  N70  1  0.52942896  0.46309184  0.28255777  1  0  -0.429946  0  3.213472  0  0  -0.357399  0  3.500445  0  0  -0.377166  0  3.51123  0  0  -0.349007  -0.343781  0  3.492393  0
N  N71  1  0.97057150  0.53690859  0.78255734  1  0  -0.429949  0  3.21341  0  0  -0.357413  0  3.500377  0  0  -0.377181  0  3.511169  0  0  -0.349024  -0.343795  0  3.492327  0
N  N72  1  0.33483876  0.90216161  0.60675248  1  0  -0.317519  0  3.316303  0  0  -0.226046  0  3.59539  0  0  -0.24633  0  3.609076  0  0  -0.329441  -0.212747  0  3.586216  0
N  N73  1  0.16516104  0.09783725  0.10675459  1  0  -0.317453  0  3.316286  0  0  -0.225949  0  3.595359  0  0  -0.24623  0  3.609044  0  0  -0.329429  -0.212653  0  3.586182  0
N  N74  1  0.66516096  0.40216189  0.89324642  1  0  -0.317418  0  3.316256  0  0  -0.22593  0  3.595323  0  0  -0.246216  0  3.609012  0  0  -0.329419  -0.212632  0  3.586148  0
N  N75  1  0.83483753  0.59783861  0.39324713  1  0  -0.317478  0  3.316308  0  0  -0.225997  0  3.595395  0  0  -0.24628  0  3.609081  0  0  -0.329459  -0.212702  0  3.586219  0
O  O76  1  0.73620552  0.62539036  0.12018315  1  0  -0.566027  0  1.976115  0  0  -0.513153  0  2.213731  0  0  -0.536492  0  2.203977  0  0  -0.283699  -0.497487  0  2.220406  0
O  O77  1  0.76379686  0.37460902  0.62018339  1  0  -0.566056  0  1.976248  0  0  -0.513185  0  2.213852  0  0  -0.536528  0  2.2041  0  0  -0.283716  -0.497519  0  2.22053  0
O  O78  1  0.26379115  0.12538113  0.37981410  1  0  -0.566049  0  1.975565  0  0  -0.513248  0  2.213147  0  0  -0.536591  0  2.203395  0  0  -0.283784  -0.497579  0  2.219823  0
O  O79  1  0.23621199  0.87461885  0.87981639  1  0  -0.56604  0  1.975897  0  0  -0.513173  0  2.213469  0  0  -0.536515  0  2.203717  0  0  -0.28374  -0.497507  0  2.220147  0
O  O80  1  0.71269004  0.75089580  0.95855118  1  0  -0.526864  0  2.043713  0  0  -0.479497  0  2.245398  0  0  -0.501497  0  2.232654  0  0  -0.327211  -0.464539  0  2.253737  0
O  O81  1  0.78731161  0.24910569  0.45855166  1  0  -0.526909  0  2.043705  0  0  -0.479537  0  2.245382  0  0  -0.501536  0  2.232641  0  0  -0.327236  -0.464581  0  2.253731  0
O  O82  1  0.28730985  0.25089025  0.54144405  1  0  -0.526752  0  2.043844  0  0  -0.479406  0  2.24553  0  0  -0.501402  0  2.232788  0  0  -0.327185  -0.464453  0  2.253883  0
O  O83  1  0.21269093  0.74910951  0.04144566  1  0  -0.526742  0  2.043712  0  0  -0.479356  0  2.245415  0  0  -0.501354  0  2.232673  0  0  -0.327144  -0.464399  0  2.25376  0
O  O84  1  0.60144866  0.96090038  0.91527380  1  0  -0.592752  0  1.990715  0  0  -0.542367  0  2.211548  0  0  -0.566392  0  2.200707  0  0  -0.307114  -0.526597  0  2.217911  0
O  O85  1  0.89855192  0.03910108  0.41527334  1  0  -0.592755  0  1.99074  0  0  -0.542381  0  2.211564  0  0  -0.566402  0  2.200724  0  0  -0.307118  -0.526609  0  2.217927  0
O  O86  1  0.39855243  0.46090013  0.58472782  1  0  -0.592757  0  1.990971  0  0  -0.542373  0  2.211771  0  0  -0.56639  0  2.200932  0  0  -0.307143  -0.526601  0  2.218135  0
O  O87  1  0.10144839  0.53910155  0.08472834  1  0  -0.59277  0  1.990841  0  0  -0.542378  0  2.211691  0  0  -0.566396  0  2.20085  0  0  -0.307176  -0.526607  0  2.218054  0
O  O88  1  0.46063046  0.09997929  0.00942020  1  0  -0.604727  0  1.99659  0  0  -0.547075  0  2.250884  0  0  -0.572101  0  2.238609  0  0  -0.315386  -0.529922  0  2.25903  0
O  O89  1  0.03937235  0.90002235  0.50941878  1  0  -0.604744  0  1.996588  0  0  -0.547098  0  2.250863  0  0  -0.572126  0  2.238588  0  0  -0.315398  -0.529944  0  2.259007  0
O  O90  1  0.53936813  0.59998118  0.49058242  1  0  -0.604714  0  1.996355  0  0  -0.547116  0  2.250598  0  0  -0.572148  0  2.238329  0  0  -0.315425  -0.529963  0  2.258742  0
O  O91  1  0.96063252  0.40002127  0.99058101  1  0  -0.604722  0  1.996456  0  0  -0.547096  0  2.25074  0  0  -0.572128  0  2.238467  0  0  -0.315392  -0.529944  0  2.258886  0
