# generated using pymatgen
data_AgH4C6NO2
_symmetry_space_group_name_H-M   'P 1'
_cell_length_a   3.74510082
_cell_length_b   10.95077403
_cell_length_c   14.11043536
_cell_angle_alpha   89.99981369
_cell_angle_beta   92.36480480
_cell_angle_gamma   89.99979723
_symmetry_Int_Tables_number   1
_chemical_formula_structural   AgH4C6NO2
_chemical_formula_sum   'Ag4 H16 C24 N4 O8'
_cell_volume   578.20085028
_cell_formula_units_Z   4
loop_
 _symmetry_equiv_pos_site_id
 _symmetry_equiv_pos_as_xyz
  1  'x, y, z'
loop_
 _atom_site_type_symbol
 _atom_site_label
 _atom_site_symmetry_multiplicity
 _atom_site_fract_x
 _atom_site_fract_y
 _atom_site_fract_z
 _atom_site_occupancy
 _atom_site_hle17_bader_spin_density
 _atom_site_hle17_ddec_charge
 _atom_site_hle17_ddec_spin_density
 _atom_site_hle17_ddec_sum_bond_order
 _atom_site_hle17_magmom
 _atom_site_hse06_10hf_bader_spin_density
 _atom_site_hse06_10hf_ddec_charge
 _atom_site_hse06_10hf_ddec_spin_density
 _atom_site_hse06_10hf_ddec_sum_bond_order
 _atom_site_hse06_10hf_magmom
 _atom_site_hse06_bader_spin_density
 _atom_site_hse06_ddec_charge
 _atom_site_hse06_ddec_spin_density
 _atom_site_hse06_ddec_sum_bond_order
 _atom_site_hse06_magmom
 _atom_site_pbe_bader_spin_density
 _atom_site_pbe_cm5_charge
 _atom_site_pbe_ddec_charge
 _atom_site_pbe_ddec_spin_density
 _atom_site_pbe_ddec_sum_bond_order
 _atom_site_pbe_magmom
Ag  Ag0  1  0.67441302  0.99094337  0.39791791  1  0  0.589753  0  1.407602  0  0  0.451492  0  1.853188  0  0  0.484237  0  1.802434  0  0  0.445914  0.428594  0  1.888509  0
Ag  Ag1  1  0.32555857  0.49092838  0.10207881  1  0  0.589668  0  1.407579  0  0  0.451452  0  1.85308  0  0  0.484204  0  1.802322  0  0  0.445887  0.42855  0  1.8884  0
Ag  Ag2  1  0.32551487  0.00906370  0.60209132  1  0  0.589651  0  1.407604  0  0  0.45145  0  1.853094  0  0  0.484195  0  1.802335  0  0  0.445884  0.428554  0  1.888416  0
Ag  Ag3  1  0.67447423  0.50906956  0.89791413  1  0  0.589715  0  1.407651  0  0  0.451462  0  1.853215  0  0  0.484208  0  1.802453  0  0  0.445881  0.428571  0  1.888543  0
H  H4  1  0.77912384  0.46456213  0.45876644  1  0  0.120955  0  0.955098  0  0  0.128877  0  1.018789  0  0  0.132855  0  1.016141  0  0  0.113804  0.125899  0  1.021076  0
H  H5  1  0.22086403  0.96455810  0.04123198  1  0  0.120919  0  0.955151  0  0  0.128874  0  1.018796  0  0  0.132853  0  1.016143  0  0  0.113798  0.125895  0  1.021082  0
H  H6  1  0.22087144  0.53544402  0.54122882  1  0  0.120981  0  0.955136  0  0  0.128891  0  1.018825  0  0  0.132869  0  1.016175  0  0  0.113813  0.125912  0  1.02111  0
H  H7  1  0.77912560  0.03544897  0.95877100  1  0  0.121011  0  0.955045  0  0  0.128919  0  1.01873  0  0  0.132899  0  1.016078  0  0  0.113807  0.12594  0  1.021013  0
H  H8  1  0.50881829  0.56205158  0.31541712  1  0  0.083305  0  0.942103  0  0  0.095359  0  1.002398  0  0  0.09714  0  1.001299  0  0  0.116376  0.094087  0  1.003185  0
H  H9  1  0.49115028  0.06206072  0.18458064  1  0  0.083336  0  0.941897  0  0  0.095357  0  1.00225  0  0  0.097123  0  1.001168  0  0  0.116419  0.094088  0  1.003042  0
H  H10  1  0.49117170  0.43794088  0.68457665  1  0  0.083289  0  0.942035  0  0  0.095341  0  1.00234  0  0  0.097109  0  1.001257  0  0  0.116419  0.094073  0  1.003133  0
H  H11  1  0.50881251  0.93794909  0.81542481  1  0  0.083265  0  0.942127  0  0  0.095353  0  1.002372  0  0  0.097101  0  1.001312  0  0  0.1164  0.094084  0  1.003161  0
H  H12  1  0.76607691  0.26635579  0.14607949  1  0  0.095145  0  0.955555  0  0  0.100917  0  1.023414  0  0  0.104433  0  1.019522  0  0  0.114889  0.098239  0  1.026406  0
H  H13  1  0.23392911  0.76636415  0.35392465  1  0  0.095192  0  0.955486  0  0  0.100951  0  1.023359  0  0  0.104459  0  1.019463  0  0  0.114895  0.09827  0  1.026351  0
H  H14  1  0.23392875  0.73363301  0.85392371  1  0  0.095194  0  0.955464  0  0  0.100939  0  1.023379  0  0  0.104451  0  1.019481  0  0  0.114896  0.098259  0  1.026372  0
H  H15  1  0.76607396  0.23363379  0.64607639  1  0  0.095201  0  0.955494  0  0  0.100963  0  1.023361  0  0  0.104472  0  1.019464  0  0  0.11491  0.098285  0  1.026354  0
H  H16  1  0.04435515  0.15564501  0.28525366  1  0  0.093177  0  0.985108  0  0  0.099177  0  1.060565  0  0  0.102448  0  1.058552  0  0  0.099331  0.096777  0  1.062214  0
H  H17  1  0.95565751  0.65564584  0.21475085  1  0  0.093123  0  0.985048  0  0  0.09914  0  1.060496  0  0  0.102405  0  1.058494  0  0  0.099338  0.096738  0  1.062142  0
H  H18  1  0.95562905  0.84434928  0.71475138  1  0  0.093155  0  0.985103  0  0  0.099171  0  1.060541  0  0  0.102438  0  1.058536  0  0  0.099333  0.096771  0  1.062191  0
H  H19  1  0.04434845  0.34435210  0.78524456  1  0  0.093111  0  0.985199  0  0  0.09916  0  1.060594  0  0  0.102426  0  1.058591  0  0  0.099344  0.096762  0  1.062245  0
C  C20  1  0.09450103  0.23696853  0.47059009  1  0  0.637884  0  3.915234  0  0  0.587059  0  4.203545  0  0  0.620541  0  4.198106  0  0  0.201905  0.564244  0  4.206284  0
C  C21  1  0.90551054  0.73696926  0.02941774  1  0  0.638216  0  3.914887  0  0  0.587393  0  4.20319  0  0  0.620878  0  4.197748  0  0  0.20207  0.564572  0  4.205931  0
C  C22  1  0.90551516  0.76303489  0.52941751  1  0  0.637957  0  3.91494  0  0  0.587151  0  4.203186  0  0  0.62064  0  4.197756  0  0  0.20196  0.56433  0  4.205922  0
C  C23  1  0.09452457  0.26303324  0.97058445  1  0  0.637812  0  3.915043  0  0  0.587042  0  4.203237  0  0  0.620524  0  4.19781  0  0  0.201952  0.564224  0  4.205976  0
C  C24  1  0.92874995  0.30007977  0.38424872  1  0  -0.001141  0  3.713453  0  0  0.018272  0  3.940538  0  0  0.016726  0  3.961071  0  0  0.003772  0.019143  0  3.926986  0
C  C25  1  0.07124508  0.80008107  0.11575306  1  0  -0.001226  0  3.713502  0  0  0.018162  0  3.940611  0  0  0.016615  0  3.961142  0  0  0.00368  0.019034  0  3.927054  0
C  C26  1  0.07125045  0.69992091  0.61575229  1  0  -0.001242  0  3.713588  0  0  0.018152  0  3.940677  0  0  0.016598  0  3.961219  0  0  0.003705  0.019029  0  3.927118  0
C  C27  1  0.92876618  0.19991870  0.88424384  1  0  -0.001032  0  3.713279  0  0  0.018319  0  3.94037  0  0  0.016775  0  3.960898  0  0  0.003734  0.019194  0  3.926818  0
C  C28  1  0.78095725  0.41664420  0.39140810  1  0  -0.102638  0  3.685764  0  0  -0.126229  0  3.932937  0  0  -0.130876  0  3.952179  0  0  -0.07367  -0.123398  0  3.920567  0
C  C29  1  0.21904181  0.91664171  0.10859202  1  0  -0.102603  0  3.685755  0  0  -0.12618  0  3.932887  0  0  -0.130827  0  3.952123  0  0  -0.073608  -0.12335  0  3.920521  0
C  C30  1  0.21904062  0.58335739  0.60858933  1  0  -0.102628  0  3.685857  0  0  -0.126184  0  3.93302  0  0  -0.13083  0  3.952261  0  0  -0.073649  -0.123351  0  3.920647  0
C  C31  1  0.78096666  0.08335714  0.89140768  1  0  -0.102735  0  3.685752  0  0  -0.126265  0  3.932879  0  0  -0.130913  0  3.952111  0  0  -0.073618  -0.123428  0  3.920504  0
C  C32  1  0.62892346  0.47177297  0.31076414  1  0  0.115436  0  3.70112  0  0  0.087277  0  3.949677  0  0  0.093467  0  3.969346  0  0  0.040866  0.083191  0  3.936243  0
C  C33  1  0.37106173  0.97177546  0.18923211  1  0  0.115565  0  3.700813  0  0  0.087373  0  3.949382  0  0  0.093572  0  3.969055  0  0  0.040867  0.083274  0  3.93597  0
C  C34  1  0.37107989  0.52822497  0.68922982  1  0  0.115582  0  3.701065  0  0  0.087372  0  3.949629  0  0  0.09357  0  3.969301  0  0  0.040896  0.083279  0  3.936213  0
C  C35  1  0.62891990  0.02822795  0.81077006  1  0  0.115612  0  3.701251  0  0  0.087418  0  3.949776  0  0  0.093631  0  3.969455  0  0  0.040926  0.083327  0  3.93635  0
C  C36  1  0.77235873  0.30652541  0.21672967  1  0  0.111228  0  3.706212  0  0  0.080748  0  3.959246  0  0  0.087746  0  3.976265  0  0  0.035251  0.075913  0  3.948099  0
C  C37  1  0.22764694  0.80653041  0.28327152  1  0  0.11114  0  3.706301  0  0  0.080668  0  3.95928  0  0  0.08768  0  3.976286  0  0  0.035203  0.075836  0  3.948126  0
C  C38  1  0.22764702  0.69346797  0.78327141  1  0  0.111136  0  3.70628  0  0  0.080626  0  3.959313  0  0  0.087634  0  3.976318  0  0  0.035147  0.075792  0  3.948166  0
C  C39  1  0.77235360  0.19346844  0.71672594  1  0  0.111084  0  3.706311  0  0  0.080619  0  3.959323  0  0  0.087628  0  3.976328  0  0  0.035179  0.075787  0  3.948178  0
C  C40  1  0.92428330  0.24524365  0.29461092  1  0  -0.136392  0  3.730947  0  0  -0.153143  0  3.976745  0  0  -0.159851  0  3.99915  0  0  -0.088328  -0.148898  0  3.962209  0
C  C41  1  0.07573372  0.74524549  0.20539201  1  0  -0.136255  0  3.73082  0  0  -0.153036  0  3.976643  0  0  -0.159745  0  3.999048  0  0  -0.088281  -0.14879  0  3.962101  0
C  C42  1  0.07571975  0.75475064  0.70539083  1  0  -0.136248  0  3.730925  0  0  -0.153001  0  3.976705  0  0  -0.15971  0  3.999116  0  0  -0.088255  -0.148757  0  3.962168  0
C  C43  1  0.92428555  0.25475062  0.79460501  1  0  -0.136334  0  3.730948  0  0  -0.153137  0  3.976772  0  0  -0.159846  0  3.99918  0  0  -0.088338  -0.148894  0  3.962243  0
N  N44  1  0.62203518  0.41815959  0.22454828  1  0  -0.334782  0  3.392143  0  0  -0.247662  0  3.680432  0  0  -0.26773  0  3.696888  0  0  -0.353227  -0.233886  0  3.668869  0
N  N45  1  0.37796656  0.91816720  0.27545116  1  0  -0.334974  0  3.392312  0  0  -0.247778  0  3.680522  0  0  -0.267844  0  3.696967  0  0  -0.353277  -0.234002  0  3.668964  0
N  N46  1  0.37797874  0.58183104  0.77544866  1  0  -0.334931  0  3.392362  0  0  -0.247719  0  3.680575  0  0  -0.267784  0  3.697021  0  0  -0.353229  -0.233947  0  3.669027  0
N  N47  1  0.62203108  0.08183439  0.72455193  1  0  -0.33484  0  3.39237  0  0  -0.24773  0  3.680656  0  0  -0.267797  0  3.697099  0  0  -0.353261  -0.233954  0  3.6691  0
O  O48  1  0.08019741  0.11840615  0.46955682  1  0  -0.686181  0  2.234739  0  0  -0.586718  0  2.533693  0  0  -0.620305  0  2.515592  0  0  -0.349841  -0.562757  0  2.545219  0
O  O49  1  0.91977039  0.61841416  0.03044363  1  0  -0.686247  0  2.234967  0  0  -0.586761  0  2.533922  0  0  -0.620337  0  2.515799  0  0  -0.349839  -0.562799  0  2.545439  0
O  O50  1  0.91972772  0.88159270  0.53045450  1  0  -0.686178  0  2.234712  0  0  -0.586736  0  2.533721  0  0  -0.620278  0  2.515518  0  0  -0.349865  -0.562778  0  2.545243  0
O  O51  1  0.08028417  0.38159565  0.96953969  1  0  -0.686157  0  2.234611  0  0  -0.586716  0  2.533603  0  0  -0.620271  0  2.515427  0  0  -0.349824  -0.562755  0  2.545127  0
O  O52  1  0.23719485  0.29948445  0.53547217  1  0  -0.585684  0  1.89808  0  0  -0.535383  0  2.119512  0  0  -0.560802  0  2.114251  0  0  -0.307029  -0.517103  0  2.122443  0
O  O53  1  0.76278561  0.79950090  0.96453030  1  0  -0.585945  0  1.897375  0  0  -0.535669  0  2.118856  0  0  -0.561098  0  2.113598  0  0  -0.307185  -0.517387  0  2.121784  0
O  O54  1  0.76287280  0.70050618  0.46451841  1  0  -0.585768  0  1.89752  0  0  -0.535488  0  2.118967  0  0  -0.560919  0  2.113707  0  0  -0.307071  -0.517204  0  2.121891  0
O  O55  1  0.23716380  0.20050982  0.03547568  1  0  -0.585638  0  1.897984  0  0  -0.535361  0  2.119393  0  0  -0.560787  0  2.114137  0  0  -0.307058  -0.517078  0  2.122318  0
