# generated using pymatgen
data_CuH10C6N2O5
_symmetry_space_group_name_H-M   'P 1'
_cell_length_a   7.62030270
_cell_length_b   7.05835652
_cell_length_c   9.36154554
_cell_angle_alpha   112.33824467
_cell_angle_beta   114.36784766
_cell_angle_gamma   89.61104714
_symmetry_Int_Tables_number   1
_chemical_formula_structural   CuH10C6N2O5
_chemical_formula_sum   'Cu2 H20 C12 N4 O10'
_cell_volume   417.47085570
_cell_formula_units_Z   2
loop_
 _symmetry_equiv_pos_site_id
 _symmetry_equiv_pos_as_xyz
  1  'x, y, z'
loop_
 _atom_site_type_symbol
 _atom_site_label
 _atom_site_symmetry_multiplicity
 _atom_site_fract_x
 _atom_site_fract_y
 _atom_site_fract_z
 _atom_site_occupancy
 _atom_site_hle17_ddec_charge
 _atom_site_hle17_ddec_spin_density
 _atom_site_hle17_ddec_sum_bond_order
 _atom_site_hle17_magmom
 _atom_site_hse06_10hf_ddec_charge
 _atom_site_hse06_10hf_ddec_spin_density
 _atom_site_hse06_10hf_ddec_sum_bond_order
 _atom_site_hse06_10hf_magmom
 _atom_site_hse06_ddec_charge
 _atom_site_hse06_ddec_spin_density
 _atom_site_hse06_ddec_sum_bond_order
 _atom_site_hse06_magmom
 _atom_site_pbe_cm5_charge
 _atom_site_pbe_ddec_charge
 _atom_site_pbe_ddec_spin_density
 _atom_site_pbe_ddec_sum_bond_order
 _atom_site_pbe_magmom
Cu  Cu0  1  0.81571792  0.81468822  0.62994653  1  0.919176  -0.676782  1.635176  -0.509  0.920447  -0.794149  1.993924  -0.658  1.014741  -0.863969  1.938589  -0.755  0.698131  0.855385  -0.743202  2.039844  -0.593
Cu  Cu1  1  0.18527212  0.18445880  0.36975620  1  0.918698  -0.676867  1.635336  -0.509  0.920354  -0.794415  1.994061  -0.659  1.014614  -0.863856  1.938732  -0.756  0.69799  0.854824  -0.742166  2.039797  -0.593
H  H2  1  0.39278896  0.44836476  0.78625111  1  0.1604  0.000102  0.918999  0.0  0.172894  1e-05  0.976537  0.0  0.177426  0.000124  0.97386  0.0  0.116176  0.169788  -5e-05  0.978534  0.0
H  H3  1  0.60911814  0.66114845  0.21378636  1  0.160559  0.000108  0.918056  0.0  0.173326  3.3e-05  0.976043  0.0  0.1778  0.000138  0.973371  0.0  0.1164  0.170239  -5.7e-05  0.978005  0.0
H  H4  1  0.44053513  0.72740555  0.88455537  1  0.132631  -4.6e-05  0.960442  0.0  0.145682  -0.000188  1.015194  0.0  0.150413  -5.6e-05  1.011169  0.0  0.103816  0.142343  -0.000383  1.018173  -0.001
H  H5  1  0.55697864  0.84150987  0.11519469  1  0.131527  -4.4e-05  0.962447  0.0  0.145535  -0.000195  1.016793  0.0  0.150138  -5.5e-05  1.012859  0.0  0.103921  0.142204  -0.00038  1.019774  -0.001
H  H6  1  0.61840771  0.47133422  0.45829562  1  0.411971  0.00052  0.899747  0.002  0.382867  -0.000278  0.962627  0.0  0.396402  -4e-06  0.943397  0.0  0.286207  0.373131  -0.000518  0.976496  0.0
H  H7  1  0.38260989  0.01379698  0.54362820  1  0.411851  0.000581  0.899591  0.002  0.383623  -0.000255  0.961077  0.0  0.397168  2.3e-05  0.94184  0.0  0.287305  0.37396  -0.000523  0.974861  0.0
H  H8  1  0.16219683  0.01254315  0.54134238  1  0.411028  0.000523  0.902708  0.002  0.382854  -0.000239  0.963158  0.0  0.396366  2.7e-05  0.944002  0.0  0.286018  0.373262  -0.000477  0.976778  0.0
H  H9  1  0.83682054  0.46958780  0.45652580  1  0.412336  0.000549  0.900412  0.002  0.383545  -0.000235  0.961875  0.0  0.397044  4.4e-05  0.942714  0.0  0.286917  0.37394  -0.000487  0.975524  0.0
H  H10  1  0.88212927  0.96865225  0.99966047  1  0.105768  -0.000459  0.945733  -0.002  0.112716  -0.000186  1.013387  -0.001  0.114009  -5.2e-05  1.011408  -0.001  0.12492  0.111284  -0.000335  1.014952  -0.001
H  H11  1  0.11889304  0.96770629  0.00035145  1  0.104697  -0.000396  0.946019  -0.002  0.112068  -0.00016  1.013368  -0.001  0.113548  -4.1e-05  1.011198  -0.001  0.124913  0.110663  -0.000382  1.014971  -0.001
H  H12  1  0.64665712  0.13059387  0.84422177  1  0.090738  -0.000487  0.907921  -0.001  0.102341  -0.000437  0.967655  -0.001  0.10271  -0.000279  0.96642  0.0  0.124473  0.101669  -0.00051  0.969003  -0.001
H  H13  1  0.35386396  0.28455022  0.15617215  1  0.090469  -0.000384  0.907413  -0.001  0.102014  -0.000363  0.967069  0.0  0.102408  -0.000239  0.965812  0.0  0.124565  0.101412  -0.000523  0.968307  -0.001
H  H14  1  0.80246113  0.28625880  0.15506069  1  0.089722  -0.000411  0.909337  -0.001  0.102622  -0.000355  0.967397  -0.001  0.102933  -0.000224  0.96621  0.0  0.124728  0.101944  -0.000479  0.968734  -0.001
H  H15  1  0.19783363  0.12889802  0.84494689  1  0.088978  -0.000381  0.908869  -0.001  0.102141  -0.000368  0.966772  0.0  0.102476  -0.000237  0.965591  0.0  0.124664  0.101541  -0.00049  0.968062  -0.001
H  H16  1  0.70472627  0.25462725  0.73042359  1  0.088668  -0.000914  0.921288  -0.001  0.096289  -0.000398  0.987388  -0.001  0.095478  -0.0002  0.988071  0.0  0.122785  0.096586  -0.000572  0.987213  -0.001
H  H17  1  0.29454509  0.52317426  0.26984726  1  0.089173  -0.000942  0.918191  -0.002  0.096804  -0.000409  0.983983  -0.001  0.095913  -0.000203  0.984696  0.0  0.122833  0.096992  -0.000561  0.983898  -0.001
H  H18  1  0.97513689  0.52420713  0.26938819  1  0.088244  -0.001005  0.920616  -0.002  0.095586  -0.000431  0.987355  -0.001  0.094653  -0.000217  0.988085  0.0  0.12228  0.095862  -0.00059  0.987189  -0.001
H  H19  1  0.02423736  0.25346415  0.73081503  1  0.088552  -0.001033  0.91816  -0.002  0.096288  -0.000457  0.984026  -0.001  0.095255  -0.000237  0.984863  -0.001  0.122728  0.096628  -0.000587  0.983663  -0.001
H  H20  1  0.94132558  0.56911752  0.88510593  1  0.080126  -0.000929  0.922098  -0.002  0.086366  -0.000291  0.993372  -0.001  0.085262  -5.2e-05  0.994125  0.0  0.119012  0.087116  -0.000537  0.992897  -0.001
H  H21  1  0.05686733  0.68422370  0.11505338  1  0.080311  -0.000892  0.923181  -0.002  0.086938  -0.00026  0.993813  -0.001  0.085816  -2.9e-05  0.994598  0.0  0.119061  0.087698  -0.000529  0.993331  -0.001
C  C22  1  0.49987488  0.59001819  0.66699620  1  0.736165  0.004085  3.808534  0.004  0.698736  0.000327  4.102701  0.001  0.73692  0.000637  4.09249  0.001  0.21576  0.672078  9.4e-05  4.108424  0.001
C  C23  1  0.50145915  0.92258278  0.33435741  1  0.73806  0.005053  3.79638  0.005  0.701059  0.000457  4.091236  0.001  0.739843  0.000826  4.080887  0.001  0.218195  0.674024  0.000221  4.097088  0.001
C  C24  1  0.83613146  0.92246939  0.33243570  1  0.737888  0.004402  3.801081  0.004  0.699401  0.000485  4.098561  0.001  0.737623  0.00085  4.088313  0.001  0.217015  0.672773  0.00022  4.104582  0.001
C  C25  1  0.16357254  0.58909626  0.66578220  1  0.740228  0.005464  3.794693  0.005  0.700847  0.000735  4.092116  0.001  0.739789  0.001066  4.081632  0.001  0.218365  0.673718  0.000335  4.098106  0.001
C  C26  1  0.37995819  0.59020407  0.76263993  1  -0.428923  -0.009078  3.643776  -0.01  -0.469835  -0.004993  3.879916  -0.006  -0.482518  -0.002858  3.8794  -0.004  -0.170198  -0.461016  -0.007064  3.880204  -0.008
C  C27  1  0.62005723  0.82655957  0.23715031  1  -0.426833  -0.009188  3.640816  -0.01  -0.470501  -0.005065  3.879505  -0.006  -0.483029  -0.002891  3.878969  -0.004  -0.170566  -0.461858  -0.007034  3.879964  -0.008
C  C28  1  0.00040115  0.05597023  0.00003354  1  0.039669  0.009991  3.531435  0.011  -0.024878  0.002651  3.792943  0.004  -0.014771  0.004179  3.804321  0.005  0.004631  -0.030764  0.001083  3.785925  0.003
C  C29  1  0.76292921  0.22348244  0.84605472  1  0.070078  0.006265  3.597568  0.006  0.005822  0.001132  3.868859  0.002  0.017062  0.001915  3.8787  0.002  0.018894  -0.00147  0.000338  3.862204  0.001
C  C30  1  0.23692416  0.37632664  0.15417228  1  0.072075  0.006483  3.595167  0.006  0.00826  0.001275  3.866372  0.002  0.019649  0.002045  3.876053  0.002  0.019255  0.001078  0.000396  3.859802  0.001
C  C31  1  0.91717425  0.37738599  0.15362509  1  0.070988  0.006403  3.598537  0.006  0.006407  0.001265  3.869294  0.002  0.017842  0.002039  3.878983  0.002  0.01893  -0.000836  0.000498  3.862581  0.001
C  C32  1  0.08265802  0.22239134  0.84656740  1  0.07278  0.006633  3.598661  0.006  0.007776  0.001375  3.870336  0.002  0.019222  0.002138  3.880147  0.002  0.019183  0.000398  0.000585  3.863826  0.001
C  C33  1  0.99935335  0.53626589  0.00010603  1  0.07923  0.003098  3.617785  0.004  0.018196  0.000698  3.886797  0.001  0.028356  0.00073  3.898257  0.001  0.020758  0.011294  0.000489  3.878295  0.001
N  N34  1  0.92058185  0.09570450  0.84115368  1  -0.239065  -0.110958  3.168341  -0.142  -0.191212  -0.064249  3.454511  -0.089  -0.227154  -0.04757  3.481948  -0.071  -0.349234  -0.170172  -0.072254  3.438515  -0.094
N  N35  1  0.07988284  0.25465341  0.15897542  1  -0.239315  -0.111165  3.169375  -0.142  -0.191994  -0.063901  3.456047  -0.088  -0.227951  -0.047405  3.483397  -0.071  -0.34885  -0.170714  -0.072245  3.439718  -0.094
N  N36  1  0.84010200  0.41876038  0.99986398  1  -0.243136  -0.033325  3.136424  -0.041  -0.194048  -0.013361  3.408548  -0.018  -0.214527  -0.007446  3.428523  -0.011  -0.339482  -0.178188  -0.020126  3.392954  -0.025
N  N37  1  0.15926940  0.41771147  0.00038564  1  -0.244128  -0.035849  3.134935  -0.044  -0.195807  -0.014309  3.407271  -0.019  -0.216774  -0.007726  3.427518  -0.011  -0.339752  -0.181186  -0.019641  3.392923  -0.024
O  O38  1  0.63961130  0.74214077  0.74130630  1  -0.62487  -0.0388  2.012668  -0.054  -0.593035  -0.022378  2.277128  -0.035  -0.62597  -0.013829  2.264737  -0.025  -0.320235  -0.568179  -0.03039  2.28471  -0.044
O  O39  1  0.35885961  0.99926866  0.26021671  1  -0.619944  -0.0477  2.019054  -0.067  -0.589508  -0.027781  2.286156  -0.044  -0.624038  -0.017732  2.274028  -0.031  -0.318936  -0.564072  -0.036383  2.293714  -0.053
O  O40  1  0.90041298  0.00203304  0.25847309  1  -0.620212  -0.048906  2.012306  -0.068  -0.590058  -0.027717  2.280138  -0.044  -0.624334  -0.017743  2.268199  -0.031  -0.319625  -0.564637  -0.036347  2.287456  -0.053
O  O41  1  0.09618808  0.74132351  0.73983980  1  -0.616578  -0.057294  2.02175  -0.08  -0.587041  -0.032857  2.292434  -0.051  -0.622753  -0.02172  2.280811  -0.038  -0.318331  -0.560821  -0.042363  2.299653  -0.061
O  O42  1  0.45863673  0.43786861  0.52203269  1  -0.653182  -0.015592  2.049185  -0.023  -0.606914  -0.010761  2.296888  -0.018  -0.639908  -0.006887  2.286151  -0.013  -0.318762  -0.58262  -0.014261  2.303665  -0.021
O  O43  1  0.54572537  0.91765777  0.48033869  1  -0.648409  -0.020518  2.052717  -0.03  -0.60254  -0.014186  2.300927  -0.023  -0.636652  -0.009492  2.290679  -0.017  -0.316633  -0.577865  -0.018289  2.307456  -0.027
O  O44  1  0.94086611  0.91428125  0.47661383  1  -0.654205  -0.00832  2.048922  -0.013  -0.607051  -0.006643  2.294957  -0.012  -0.638842  -0.00387  2.283833  -0.008  -0.319461  -0.584213  -0.008898  2.302292  -0.014
O  O45  1  0.06107229  0.43757860  0.52081022  1  -0.649183  -0.012732  2.055486  -0.019  -0.602236  -0.009756  2.303079  -0.016  -0.635039  -0.006183  2.292307  -0.012  -0.316394  -0.578514  -0.012592  2.309986  -0.019
O  O46  1  0.71488896  0.53475128  0.43293304  1  -0.803798  -0.069109  1.981049  -0.091  -0.767131  -0.049164  2.194281  -0.07  -0.802809  -0.036738  2.159772  -0.057  -0.582262  -0.743754  -0.05603  2.219651  -0.075
O  O47  1  0.28428476  0.10200684  0.56681132  1  -0.801004  -0.069753  1.984027  -0.092  -0.766017  -0.04925  2.195964  -0.07  -0.801811  -0.036742  2.161336  -0.057  -0.582108  -0.742954  -0.056006  2.221273  -0.075
