# generated using pymatgen
data_GdCuH8C14(NO4)2
_symmetry_space_group_name_H-M   'P 1'
_cell_length_a   9.17017780
_cell_length_b   9.56961899
_cell_length_c   21.45933237
_cell_angle_alpha   90.00079836
_cell_angle_beta   89.99956452
_cell_angle_gamma   116.21644845
_symmetry_Int_Tables_number   1
_chemical_formula_structural   GdCuH8C14(NO4)2
_chemical_formula_sum   'Gd4 Cu4 H32 C56 N8 O32'
_cell_volume   1689.44771753
_cell_formula_units_Z   4
loop_
 _symmetry_equiv_pos_site_id
 _symmetry_equiv_pos_as_xyz
  1  'x, y, z'
loop_
 _atom_site_type_symbol
 _atom_site_label
 _atom_site_symmetry_multiplicity
 _atom_site_fract_x
 _atom_site_fract_y
 _atom_site_fract_z
 _atom_site_occupancy
 _atom_site_pbe_bader_charge
 _atom_site_pbe_bader_spin_density
 _atom_site_pbe_cm5_charge
 _atom_site_pbe_ddec_charge
 _atom_site_pbe_ddec_spin_density
 _atom_site_pbe_ddec_sum_bond_order
 _atom_site_pbe_magmom
Gd  Gd0  1  0.87734879  0.14629917  0.50894683  1  2.192759  0  1.459077  2.04005  0  2.236769  0
Gd  Gd1  1  0.62264469  0.85370058  0.00894365  1  2.19266  0  1.458983  2.040037  0  2.236773  0
Gd  Gd2  1  0.12264834  0.85370366  0.49105359  1  2.192703  0  1.458997  2.039973  0  2.236897  0
Gd  Gd3  1  0.37735141  0.14629527  0.99105444  1  2.192718  0  1.459083  2.040028  0  2.236777  0
Cu  Cu4  1  0.95273972  0.80260233  0.14562289  1  0.663041  0  0.533228  0.357449  0  2.094996  0
Cu  Cu5  1  0.54726400  0.19741315  0.64562232  1  0.663011  0  0.533338  0.357556  0  2.095012  0
Cu  Cu6  1  0.04724493  0.19739233  0.85437846  1  0.663056  0  0.533248  0.357436  0  2.094938  0
Cu  Cu7  1  0.45274126  0.80259552  0.35437483  1  0.663026  0  0.533223  0.357399  0  2.094919  0
H  H8  1  0.00174833  0.82989131  0.27675254  1  0.123032  0  0.121618  0.095053  0  1.002748  0
H  H9  1  0.49824883  0.17012218  0.77675082  1  0.122894  0  0.121607  0.095114  0  1.002596  0
H  H10  1  0.99825207  0.17011153  0.72325021  1  0.122862  0  0.121593  0.095018  0  1.002722  0
H  H11  1  0.50174828  0.82988298  0.22324634  1  0.122961  0  0.121607  0.095085  0  1.002751  0
H  H12  1  0.89437297  0.20254319  0.33748777  1  0.134848  0  0.124533  0.136437  0  0.982042  0
H  H13  1  0.60563608  0.79746521  0.83747860  1  0.134407  0  0.124612  0.136555  0  0.982073  0
H  H14  1  0.10563935  0.79746898  0.66251684  1  0.135249  0  0.124553  0.136458  0  0.982145  0
H  H15  1  0.39438005  0.20254813  0.16251669  1  0.135051  0  0.124525  0.136473  0  0.982097  0
H  H16  1  0.84660432  0.24499379  0.22392574  1  0.068326  0  0.112172  0.118803  0  0.983347  0
H  H17  1  0.65339159  0.75500771  0.72391522  1  0.068187  0  0.112138  0.118784  0  0.983366  0
H  H18  1  0.15339608  0.75500905  0.77607655  1  0.067945  0  0.112155  0.118786  0  0.983367  0
H  H19  1  0.34660990  0.24499513  0.27607915  1  0.068374  0  0.112158  0.118797  0  0.983335  0
H  H20  1  0.86883658  0.06726224  0.14323765  1  0.165183  0  0.12511  0.10099  0  1.016384  0
H  H21  1  0.63114873  0.93273916  0.64322876  1  0.165042  0  0.125106  0.101011  0  1.016483  0
H  H22  1  0.13115843  0.93273360  0.85676604  1  0.16509  0  0.125115  0.101082  0  1.016304  0
H  H23  1  0.36884406  0.06726133  0.35676560  1  0.165134  0  0.125079  0.10103  0  1.016281  0
H  H24  1  0.21670495  0.72116259  0.16257077  1  0.10294  0  0.111364  0.071858  0  1.042133  0
H  H25  1  0.28330524  0.27884636  0.66257786  1  0.102001  0  0.111322  0.071773  0  1.042164  0
H  H26  1  0.78328244  0.27883091  0.83742359  1  0.103263  0  0.111327  0.071824  0  1.042086  0
H  H27  1  0.71670719  0.72115417  0.33742628  1  0.102059  0  0.111321  0.071799  0  1.042144  0
H  H28  1  0.28115209  0.50548961  0.12840305  1  0.110734  0  0.117934  0.134381  0  0.987406  0
H  H29  1  0.21884845  0.49451597  0.62841028  1  0.110678  0  0.117924  0.13436  0  0.9874  0
H  H30  1  0.71884399  0.49450856  0.87159085  1  0.110615  0  0.117928  0.13437  0  0.98735  0
H  H31  1  0.78115853  0.50548455  0.37159433  1  0.110588  0  0.117913  0.13437  0  0.987368  0
H  H32  1  0.07103831  0.28313094  0.06791014  1  0.088604  0  0.116146  0.119571  0  1.009956  0
H  H33  1  0.42895330  0.71686236  0.56791154  1  0.088491  0  0.116108  0.119505  0  1.009898  0
H  H34  1  0.92894536  0.71685208  0.93209028  1  0.088583  0  0.116127  0.119538  0  1.009965  0
H  H35  1  0.57104931  0.28313816  0.43209261  1  0.088505  0  0.1161  0.119501  0  1.009928  0
H  H36  1  0.77221157  0.52688399  0.07118619  1  0.127956  0  0.124318  0.104312  0  1.018023  0
H  H37  1  0.72778932  0.47311530  0.57118580  1  0.127801  0  0.124273  0.104274  0  1.017971  0
H  H38  1  0.22778184  0.47310836  0.92881330  1  0.127883  0  0.124279  0.104318  0  1.017893  0
H  H39  1  0.27221703  0.52689336  0.42881508  1  0.127868  0  0.124283  0.104311  0  1.017975  0
C  C40  1  0.96578925  0.92160637  0.26624255  1  0.454922  0  0.046508  0.049834  0  3.942975  0
C  C41  1  0.53420428  0.07839871  0.76624129  1  0.455008  0  0.046512  0.049873  0  3.942618  0
C  C42  1  0.03420682  0.07839180  0.73375787  1  0.454886  0  0.046578  0.05001  0  3.942645  0
C  C43  1  0.46579394  0.92160412  0.23375726  1  0.454806  0  0.046495  0.049793  0  3.942897  0
C  C44  1  0.95241100  0.01295990  0.31441462  1  0.020804  0  -0.00995  -0.079703  0  3.961363  0
C  C45  1  0.54759866  0.98705131  0.81441053  1  0.02057  0  -0.009898  -0.079736  0  3.961135  0
C  C46  1  0.04759649  0.98704412  0.68558767  1  0.020686  0  -0.00996  -0.079703  0  3.961093  0
C  C47  1  0.45241424  0.01295737  0.18558709  1  0.020787  0  -0.009928  -0.079751  0  3.961368  0
C  C48  1  0.90698271  0.13103481  0.30016018  1  -0.096145  0  -0.049885  -0.032642  0  3.88193  0
C  C49  1  0.59302158  0.86897363  0.80015289  1  -0.095215  0  -0.049976  -0.032785  0  3.881987  0
C  C50  1  0.09302585  0.86897153  0.69984257  1  -0.096272  0  -0.049878  -0.03267  0  3.881979  0
C  C51  1  0.40698535  0.13103155  0.19984194  1  -0.096166  0  -0.049868  -0.032666  0  3.881975  0
C  C52  1  0.87972498  0.15320299  0.23777299  1  0.049571  0  -0.080672  -0.127378  0  3.971113  0
C  C53  1  0.62027306  0.84679892  0.73776454  1  0.049783  0  -0.080656  -0.12735  0  3.971226  0
C  C54  1  0.12027926  0.84679869  0.76222883  1  0.050125  0  -0.08065  -0.127334  0  3.971261  0
C  C55  1  0.37973060  0.15320625  0.26222889  1  0.04945  0  -0.080699  -0.127351  0  3.970987  0
C  C56  1  0.89326323  0.05586912  0.19216920  1  0.388212  0  0.055431  0.107981  0  3.863328  0
C  C57  1  0.60672845  0.94413142  0.69216279  1  0.388003  0  0.055494  0.10799  0  3.863466  0
C  C58  1  0.10673508  0.94412440  0.80783309  1  0.388051  0  0.055389  0.107847  0  3.86346  0
C  C59  1  0.39326975  0.05587373  0.30783204  1  0.388041  0  0.05548  0.107906  0  3.863277  0
C  C60  1  0.98688311  0.98019523  0.37970522  1  1.623164  0  0.228167  0.627545  0  4.206397  0
C  C61  1  0.51312082  0.01981791  0.87970041  1  1.623012  0  0.228185  0.627709  0  4.206055  0
C  C62  1  0.01312480  0.01982159  0.62030079  1  1.622811  0  0.228023  0.627457  0  4.206428  0
C  C63  1  0.48688172  0.98018959  0.12029628  1  1.622839  0  0.228128  0.627511  0  4.206266  0
C  C64  1  0.13086808  0.62508647  0.13474589  1  0.463476  0  0.044306  0.089059  0  3.918376  0
C  C65  1  0.36913515  0.37492047  0.63475190  1  0.463804  0  0.044388  0.089245  0  3.918274  0
C  C66  1  0.86911927  0.37491168  0.86525080  1  0.462203  0  0.044285  0.089008  0  3.918297  0
C  C67  1  0.63087510  0.62508006  0.36525178  1  0.463589  0  0.044361  0.08918  0  3.918395  0
C  C68  1  0.16452882  0.50311576  0.11665216  1  -0.028907  0  -0.073283  -0.100526  0  3.940439  0
C  C69  1  0.33547015  0.49688598  0.61665904  1  -0.02849  0  -0.073365  -0.100694  0  3.940465  0
C  C70  1  0.83546124  0.49688356  0.88334360  1  -0.028297  0  -0.073284  -0.100532  0  3.940494  0
C  C71  1  0.66453521  0.50311105  0.38334511  1  -0.028246  0  -0.073358  -0.100695  0  3.940657  0
C  C72  1  0.04890053  0.38117220  0.08224830  1  0.006841  0  -0.057222  -0.041361  0  3.905437  0
C  C73  1  0.45109480  0.61882502  0.58225228  1  0.007025  0  -0.057181  -0.041254  0  3.905286  0
C  C74  1  0.95108470  0.61881897  0.91774979  1  0.007497  0  -0.057186  -0.041366  0  3.905267  0
C  C75  1  0.54890834  0.38117666  0.41775187  1  0.006948  0  -0.057177  -0.041296  0  3.905332  0
C  C76  1  0.90453289  0.38757156  0.06536430  1  0.019977  0  -0.011607  -0.08108  0  3.940573  0
C  C77  1  0.59546258  0.61242522  0.56536474  1  0.020052  0  -0.011662  -0.081111  0  3.940519  0
C  C78  1  0.09545887  0.61242194  0.93463519  1  0.019384  0  -0.011631  -0.080891  0  3.940509  0
C  C79  1  0.40453945  0.38757879  0.43463708  1  0.020131  0  -0.011575  -0.080912  0  3.94072  0
C  C80  1  0.88164517  0.51628993  0.08393148  1  0.425522  0  0.049378  0.072951  0  3.864753  0
C  C81  1  0.61834916  0.48370507  0.58393105  1  0.425738  0  0.049394  0.072871  0  3.864642  0
C  C82  1  0.11834278  0.48370241  0.91606614  1  0.425821  0  0.049468  0.072813  0  3.864491  0
C  C83  1  0.38165131  0.51629078  0.41606890  1  0.425501  0  0.049399  0.072834  0  3.864854  0
C  C84  1  0.77331191  0.25631122  0.02965051  1  1.599795  0  0.231195  0.64747  0  4.168062  0
C  C85  1  0.72668360  0.74369613  0.52964947  1  1.599736  0  0.231294  0.647579  0  4.167765  0
C  C86  1  0.22667711  0.74368345  0.97034432  1  1.599841  0  0.231235  0.647404  0  4.168238  0
C  C87  1  0.27331614  0.25631950  0.47035235  1  1.599086  0  0.231291  0.647504  0  4.168006  0
C  C88  1  0.01055741  0.50751480  0.53602335  1  1.62272  0  0.208547  0.484659  0  4.265329  0
C  C89  1  0.48944580  0.49247641  0.03602095  1  1.622637  0  0.208529  0.484667  0  4.265291  0
C  C90  1  0.98944368  0.49247291  0.46398220  1  1.58593  0  0.20854  0.484681  0  4.265166  0
C  C91  1  0.51056075  0.50751131  0.96398087  1  1.585635  0  0.2086  0.484688  0  4.26539  0
C  C92  1  0.00481191  0.97856407  0.03419792  1  1.591383  0  0.207838  0.486316  0  4.235275  0
C  C93  1  0.49518968  0.02142591  0.53420414  1  1.618056  0  0.20798  0.48665  0  4.235118  0
C  C94  1  0.99519617  0.02143412  0.96579691  1  1.617879  0  0.208036  0.486832  0  4.235083  0
C  C95  1  0.50480865  0.97856528  0.46580141  1  1.591471  0  0.207971  0.486568  0  4.23512  0
N  N96  1  0.93464741  0.93992510  0.20608794  1  -1.21018  0  -0.372293  -0.205794  0  3.725777  0
N  N97  1  0.56534910  0.06007703  0.70608647  1  -1.210165  0  -0.372349  -0.205958  0  3.725697  0
N  N98  1  0.06534873  0.06006609  0.79391154  1  -1.21016  0  -0.372284  -0.205844  0  3.725664  0
N  N99  1  0.43464530  0.93992463  0.29391162  1  -1.209856  0  -0.37227  -0.205744  0  3.725724  0
N  N100  1  0.99147431  0.63292306  0.11897516  1  -1.212889  0  -0.378001  -0.21537  0  3.741616  0
N  N101  1  0.50852744  0.36707999  0.61897996  1  -1.212952  0  -0.377996  -0.215294  0  3.741406  0
N  N102  1  0.00850974  0.36707742  0.88102060  1  -1.212949  0  -0.377999  -0.215218  0  3.741274  0
N  N103  1  0.49148120  0.63291705  0.38102186  1  -1.212831  0  -0.377961  -0.215276  0  3.741286  0
O  O104  1  0.94806854  0.04438149  0.42402204  1  -1.205164  0  -0.398055  -0.683242  0  2.423185  0
O  O105  1  0.55192993  0.95561433  0.92401635  1  -1.205041  0  -0.398107  -0.68337  0  2.422795  0
O  O106  1  0.05193398  0.95562833  0.57598024  1  -1.204939  0  -0.397998  -0.683213  0  2.422838  0
O  O107  1  0.44807112  0.04437803  0.07597941  1  -1.205172  0  -0.39802  -0.683204  0  2.423045  0
O  O108  1  0.05304344  0.88946820  0.38665075  1  -1.171983  0  -0.370962  -0.620881  0  2.261842  0
O  O109  1  0.44696480  0.11054044  0.88664836  1  -1.171836  0  -0.370961  -0.620942  0  2.262011  0
O  O110  1  0.94696836  0.11054048  0.61335247  1  -1.171824  0  -0.370935  -0.620864  0  2.262156  0
O  O111  1  0.55303887  0.88946241  0.11335067  1  -1.171748  0  -0.370958  -0.620858  0  2.261853  0
O  O112  1  0.66573583  0.28396123  0.00267509  1  -1.192442  0  -0.38  -0.661011  0  2.312373  0
O  O113  1  0.83426050  0.71602787  0.50267539  1  -1.192371  0  -0.379964  -0.660958  0  2.31211  0
O  O114  1  0.33425383  0.71602296  0.99731881  1  -1.192409  0  -0.379986  -0.660992  0  2.312262  0
O  O115  1  0.16574045  0.28397381  0.49732503  1  -1.191812  0  -0.379988  -0.661011  0  2.312395  0
O  O116  1  0.78064999  0.12690383  0.03090083  1  -1.193152  0  -0.374488  -0.66034  0  2.329347  0
O  O117  1  0.71934665  0.87309891  0.53090388  1  -1.19313  0  -0.374545  -0.660401  0  2.329365  0
O  O118  1  0.21934342  0.87308852  0.96909865  1  -1.193115  0  -0.374532  -0.66032  0  2.329387  0
O  O119  1  0.28065533  0.12690975  0.46910120  1  -1.193026  0  -0.374545  -0.660365  0  2.329288  0
O  O120  1  0.94749848  0.38273172  0.56709045  1  -1.183395  0  -0.367243  -0.583864  0  2.298402  0
O  O121  1  0.55250400  0.61727327  0.06709117  1  -1.183246  0  -0.367297  -0.583939  0  2.297991  0
O  O122  1  0.05251613  0.61726882  0.43291090  1  -1.18315  0  -0.367257  -0.583884  0  2.29787  0
O  O123  1  0.44750079  0.38272725  0.93291158  1  -1.183006  0  -0.367237  -0.583766  0  2.298285  0
O  O124  1  0.08907544  0.64385408  0.55797540  1  -1.184208  0  -0.381893  -0.606979  0  2.286766  0
O  O125  1  0.41092977  0.35614709  0.05797241  1  -1.184192  0  -0.381834  -0.606924  0  2.287022  0
O  O126  1  0.91093099  0.35614528  0.44203062  1  -1.184151  0  -0.381851  -0.606915  0  2.287035  0
O  O127  1  0.58908544  0.64384763  0.94203034  1  -1.184018  0  -0.381947  -0.607085  0  2.286927  0
O  O128  1  0.87228658  0.87935366  0.05871328  1  -1.180384  0  -0.366775  -0.577745  0  2.419338  0
O  O129  1  0.62770181  0.12064407  0.55871758  1  -1.180081  0  -0.366846  -0.577764  0  2.419497  0
O  O130  1  0.12771275  0.12064684  0.94128294  1  -1.18  0  -0.366808  -0.57783  0  2.419567  0
O  O131  1  0.37228335  0.87935408  0.44128331  1  -1.180427  0  -0.366787  -0.577764  0  2.419298  0
O  O132  1  0.14015472  0.04198073  0.06125158  1  -1.18003  0  -0.344572  -0.566909  0  2.314495  0
O  O133  1  0.35984074  0.95801121  0.56126028  1  -1.180205  0  -0.344556  -0.567079  0  2.314393  0
O  O134  1  0.85985113  0.95802212  0.93874092  1  -1.18  0  -0.344607  -0.567116  0  2.314332  0
O  O135  1  0.64014776  0.04197996  0.43874806  1  -1.179961  0  -0.34469  -0.567075  0  2.314572  0
