# generated using pymatgen
data_CdH6C8S2N5
_symmetry_space_group_name_H-M   'P 1'
_cell_length_a   9.91983313
_cell_length_b   9.91987360
_cell_length_c   12.28247051
_cell_angle_alpha   83.12812818
_cell_angle_beta   83.12860186
_cell_angle_gamma   83.51100535
_symmetry_Int_Tables_number   1
_chemical_formula_structural   CdH6C8S2N5
_chemical_formula_sum   'Cd4 H24 C32 S8 N20'
_cell_volume   1185.34899874
_cell_formula_units_Z   4
loop_
 _symmetry_equiv_pos_site_id
 _symmetry_equiv_pos_as_xyz
  1  'x, y, z'
loop_
 _atom_site_type_symbol
 _atom_site_label
 _atom_site_symmetry_multiplicity
 _atom_site_fract_x
 _atom_site_fract_y
 _atom_site_fract_z
 _atom_site_occupancy
 _atom_site_hle17_bader_spin_density
 _atom_site_hle17_ddec_charge
 _atom_site_hle17_ddec_spin_density
 _atom_site_hle17_ddec_sum_bond_order
 _atom_site_hle17_magmom
 _atom_site_hse06_10hf_bader_spin_density
 _atom_site_hse06_10hf_ddec_charge
 _atom_site_hse06_10hf_ddec_spin_density
 _atom_site_hse06_10hf_ddec_sum_bond_order
 _atom_site_hse06_10hf_magmom
 _atom_site_hse06_bader_spin_density
 _atom_site_hse06_ddec_charge
 _atom_site_hse06_ddec_spin_density
 _atom_site_hse06_ddec_sum_bond_order
 _atom_site_hse06_magmom
 _atom_site_pbe_bader_spin_density
 _atom_site_pbe_cm5_charge
 _atom_site_pbe_ddec_charge
 _atom_site_pbe_ddec_spin_density
 _atom_site_pbe_ddec_sum_bond_order
 _atom_site_pbe_magmom
Cd  Cd0  1  0.64468583  0.23821432  0.94601417  1  0  0.931107  0  2.01588  0  0  0.749828  0  2.486329  0  0  0.792742  0  2.451236  0  0  0.717853  0.722354  0  2.505802  0
Cd  Cd1  1  0.76178740  0.35531117  0.55398522  1  0  0.93116  0  2.015871  0  0  0.749908  0  2.486302  0  0  0.792821  0  2.45121  0  0  0.717882  0.722436  0  2.505775  0
Cd  Cd2  1  0.35531345  0.76178589  0.05398630  1  0  0.931115  0  2.015902  0  0  0.749854  0  2.486354  0  0  0.79277  0  2.451254  0  0  0.717868  0.722383  0  2.505829  0
Cd  Cd3  1  0.23821521  0.64468595  0.44601604  1  0  0.931116  0  2.015887  0  0  0.749865  0  2.486316  0  0  0.792769  0  2.451233  0  0  0.717861  0.722389  0  2.505787  0
H  H4  1  0.77807553  0.32115619  0.15746185  1  0  0.061667  0  0.989172  0  0  0.062551  0  1.068653  0  0  0.064908  0  1.067174  0  0  0.097685  0.060427  0  1.070632  0
H  H5  1  0.67884245  0.22192605  0.34253704  1  0  0.061719  0  0.989163  0  0  0.062582  0  1.068652  0  0  0.064942  0  1.067172  0  0  0.097689  0.060458  0  1.070629  0
H  H6  1  0.22192496  0.67884197  0.84254033  1  0  0.061687  0  0.989191  0  0  0.062579  0  1.068663  0  0  0.064934  0  1.067186  0  0  0.09771  0.060455  0  1.070639  0
H  H7  1  0.32115693  0.77807314  0.65746107  1  0  0.061633  0  0.989217  0  0  0.06254  0  1.068682  0  0  0.064899  0  1.067202  0  0  0.097681  0.060416  0  1.07066  0
H  H8  1  0.00373977  0.36798430  0.21132465  1  0  0.100361  0  0.978416  0  0  0.106896  0  1.045865  0  0  0.109776  0  1.045135  0  0  0.095087  0.104798  0  1.046458  0
H  H9  1  0.63201532  0.99626060  0.28867544  1  0  0.100379  0  0.978322  0  0  0.10691  0  1.045781  0  0  0.109792  0  1.045047  0  0  0.095105  0.10481  0  1.046383  0
H  H10  1  0.99626348  0.63201690  0.78867534  1  0  0.100337  0  0.978337  0  0  0.106859  0  1.045804  0  0  0.109741  0  1.045071  0  0  0.095086  0.104756  0  1.046411  0
H  H11  1  0.36798424  0.00373655  0.71132530  1  0  0.100338  0  0.978388  0  0  0.106868  0  1.045861  0  0  0.10975  0  1.045128  0  0  0.095085  0.104768  0  1.046462  0
H  H12  1  0.20748330  0.35951449  0.06888627  1  0  0.100691  0  0.945392  0  0  0.109383  0  1.008234  0  0  0.111547  0  1.00746  0  0  0.105312  0.10727  0  1.009944  0
H  H13  1  0.64048430  0.79251856  0.43111695  1  0  0.100674  0  0.945454  0  0  0.10939  0  1.008268  0  0  0.111552  0  1.007497  0  0  0.105308  0.107276  0  1.009977  0
H  H14  1  0.79251903  0.64048569  0.93111309  1  0  0.100699  0  0.94542  0  0  0.109393  0  1.008262  0  0  0.111558  0  1.007488  0  0  0.105317  0.107281  0  1.009972  0
H  H15  1  0.35951314  0.20747962  0.56888552  1  0  0.100721  0  0.9454  0  0  0.109399  0  1.008246  0  0  0.11156  0  1.007475  0  0  0.105327  0.107287  0  1.009949  0
H  H16  1  0.18015812  0.30279717  0.88224487  1  0  0.094438  0  1.002615  0  0  0.100225  0  1.073975  0  0  0.103487  0  1.073009  0  0  0.096148  0.098265  0  1.074261  0
H  H17  1  0.69720440  0.81984516  0.61775696  1  0  0.094402  0  1.002699  0  0  0.10019  0  1.074055  0  0  0.103452  0  1.07309  0  0  0.096141  0.09823  0  1.074343  0
H  H18  1  0.81984098  0.69720508  0.11775461  1  0  0.094436  0  1.002635  0  0  0.100214  0  1.074005  0  0  0.103474  0  1.073043  0  0  0.09613  0.098254  0  1.074294  0
H  H19  1  0.30279581  0.18015606  0.38224414  1  0  0.094427  0  1.002611  0  0  0.100219  0  1.073962  0  0  0.103481  0  1.072999  0  0  0.096149  0.098259  0  1.074251  0
H  H20  1  0.01903136  0.24854508  0.64911823  1  0  0.331355  0  0.91733  0  0  0.310946  0  0.98756  0  0  0.318412  0  0.981416  0  0  0.297868  0.30562  0  0.992023  0
H  H21  1  0.75145522  0.98096738  0.85088378  1  0  0.33135  0  0.917342  0  0  0.310947  0  0.987567  0  0  0.318413  0  0.981422  0  0  0.297875  0.305622  0  0.992031  0
H  H22  1  0.98096691  0.75145514  0.35088396  1  0  0.331358  0  0.91734  0  0  0.310956  0  0.987564  0  0  0.318421  0  0.98142  0  0  0.297862  0.305628  0  0.992031  0
H  H23  1  0.24854315  0.01903182  0.14911687  1  0  0.331368  0  0.917299  0  0  0.310968  0  0.987514  0  0  0.318434  0  0.981367  0  0  0.297889  0.305643  0  0.991976  0
H  H24  1  0.11427911  0.32220479  0.72931123  1  0  0.305433  0  0.941061  0  0  0.286981  0  1.015389  0  0  0.29326  0  1.011318  0  0  0.284566  0.282452  0  1.018448  0
H  H25  1  0.67779543  0.88572089  0.77069237  1  0  0.30542  0  0.941096  0  0  0.286983  0  1.015415  0  0  0.293263  0  1.011344  0  0  0.28458  0.282455  0  1.018476  0
H  H26  1  0.88572036  0.67779338  0.27069104  1  0  0.305403  0  0.941108  0  0  0.286986  0  1.015401  0  0  0.293257  0  1.011338  0  0  0.284565  0.282456  0  1.018464  0
H  H27  1  0.32220496  0.11427829  0.22931053  1  0  0.305463  0  0.941032  0  0  0.287016  0  1.015368  0  0  0.293295  0  1.011297  0  0  0.284573  0.282487  0  1.018429  0
C  C28  1  0.87004616  0.31715692  0.09900153  1  0  0.133478  0  3.714056  0  0  0.10623  0  3.961473  0  0  0.112211  0  3.979224  0  0  0.04695  0.10232  0  3.949421  0
C  C29  1  0.68283885  0.12995501  0.40099963  1  0  0.133333  0  3.713976  0  0  0.10612  0  3.961376  0  0  0.112098  0  3.979126  0  0  0.046959  0.102212  0  3.949323  0
C  C30  1  0.12995432  0.68284123  0.90100146  1  0  0.133398  0  3.714043  0  0  0.106153  0  3.961449  0  0  0.112136  0  3.979199  0  0  0.046936  0.102247  0  3.949394  0
C  C31  1  0.31715647  0.87004421  0.59900131  1  0  0.133423  0  3.714091  0  0  0.106181  0  3.961513  0  0  0.112155  0  3.979265  0  0  0.046957  0.10227  0  3.949458  0
C  C32  1  0.99513812  0.34376566  0.12842935  1  0  -0.107046  0  3.719131  0  0  -0.121071  0  3.969481  0  0  -0.125879  0  3.989158  0  0  -0.082659  -0.117666  0  3.955452  0
C  C33  1  0.65622449  0.00486406  0.37157423  1  0  -0.106956  0  3.719086  0  0  -0.12099  0  3.969434  0  0  -0.125795  0  3.989108  0  0  -0.082696  -0.117586  0  3.955403  0
C  C34  1  0.00486256  0.65623046  0.87157381  1  0  -0.10689  0  3.719017  0  0  -0.12089  0  3.969343  0  0  -0.1257  0  3.989017  0  0  -0.082636  -0.117488  0  3.955312  0
C  C35  1  0.34376473  0.99513520  0.62842974  1  0  -0.106936  0  3.719086  0  0  -0.120995  0  3.96946  0  0  -0.125795  0  3.989134  0  0  -0.082655  -0.117589  0  3.955429  0
C  C36  1  0.10788953  0.33910794  0.04934942  1  0  0.013186  0  3.684682  0  0  -0.004249  0  3.933814  0  0  -0.00152  0  3.952152  0  0  -0.062399  -0.005562  0  3.921189  0
C  C37  1  0.66088715  0.89211159  0.45065150  1  0  0.013116  0  3.68469  0  0  -0.004341  0  3.933826  0  0  -0.001614  0  3.952167  0  0  -0.062395  -0.005652  0  3.921202  0
C  C38  1  0.89211087  0.66089124  0.95065104  1  0  0.013079  0  3.684789  0  0  -0.004371  0  3.933917  0  0  -0.001644  0  3.952255  0  0  -0.062429  -0.005681  0  3.921294  0
C  C39  1  0.33910613  0.10788764  0.54935045  1  0  0.013097  0  3.684712  0  0  -0.00431  0  3.93384  0  0  -0.001583  0  3.952182  0  0  -0.062426  -0.005622  0  3.921216  0
C  C40  1  0.09183922  0.30840094  0.94403700  1  0  -0.121905  0  3.689548  0  0  -0.141381  0  3.93169  0  0  -0.146824  0  3.95281  0  0  -0.078166  -0.137676  0  3.916603  0
C  C41  1  0.69160014  0.90815721  0.55596439  1  0  -0.121807  0  3.689487  0  0  -0.141259  0  3.931615  0  0  -0.146702  0  3.952734  0  0  -0.078146  -0.137555  0  3.91653  0
C  C42  1  0.90815794  0.69160031  0.05596276  1  0  -0.121851  0  3.689549  0  0  -0.141284  0  3.931683  0  0  -0.146725  0  3.952806  0  0  -0.078132  -0.13758  0  3.916602  0
C  C43  1  0.30839740  0.09183995  0.44403654  1  0  -0.121833  0  3.689472  0  0  -0.141275  0  3.931616  0  0  -0.146724  0  3.952736  0  0  -0.078136  -0.137575  0  3.916534  0
C  C44  1  0.96330107  0.28220592  0.92088895  1  0  0.142832  0  3.731137  0  0  0.147854  0  3.965152  0  0  0.150901  0  3.98481  0  0  0.124837  0.145661  0  3.951886  0
C  C45  1  0.71779081  0.03670006  0.57911149  1  0  0.142721  0  3.731136  0  0  0.147714  0  3.965215  0  0  0.150762  0  3.984876  0  0  0.124815  0.145523  0  3.951951  0
C  C46  1  0.03669942  0.71779224  0.07911241  1  0  0.142772  0  3.731128  0  0  0.147731  0  3.965247  0  0  0.150777  0  3.984905  0  0  0.124838  0.145541  0  3.951982  0
C  C47  1  0.28220552  0.96329915  0.42088854  1  0  0.142685  0  3.731177  0  0  0.147621  0  3.965333  0  0  0.150675  0  3.984994  0  0  0.124758  0.145431  0  3.952066  0
C  C48  1  0.94018697  0.24648245  0.81077831  1  0  0.409062  0  3.807401  0  0  0.368358  0  4.083465  0  0  0.390586  0  4.091876  0  0  0.243122  0.353428  0  4.07799  0
C  C49  1  0.75351731  0.05981248  0.68922285  1  0  0.409164  0  3.807347  0  0  0.368454  0  4.083459  0  0  0.39069  0  4.091854  0  0  0.243117  0.353524  0  4.077988  0
C  C50  1  0.05981028  0.75351778  0.18922316  1  0  0.409132  0  3.807354  0  0  0.368459  0  4.083438  0  0  0.39069  0  4.091843  0  0  0.243125  0.353529  0  4.077967  0
C  C51  1  0.24648318  0.94018568  0.31077688  1  0  0.409136  0  3.807297  0  0  0.368471  0  4.083353  0  0  0.390695  0  4.091768  0  0  0.243152  0.353541  0  4.077882  0
C  C52  1  0.55338992  0.58000375  0.86949755  1  0  0.312685  0  3.979362  0  0  0.291222  0  4.281083  0  0  0.311982  0  4.29448  0  0  0.150771  0.277353  0  4.272533  0
C  C53  1  0.42000820  0.44660760  0.63049033  1  0  0.31277  0  3.979096  0  0  0.291319  0  4.280811  0  0  0.312075  0  4.294201  0  0  0.15082  0.277446  0  4.272265  0
C  C54  1  0.44661157  0.42000563  0.13049450  1  0  0.312712  0  3.979251  0  0  0.291247  0  4.280982  0  0  0.312005  0  4.294374  0  0  0.150783  0.277378  0  4.272435  0
C  C55  1  0.58000218  0.55339356  0.36949758  1  0  0.312711  0  3.979469  0  0  0.291241  0  4.2812  0  0  0.311997  0  4.294596  0  0  0.150813  0.27737  0  4.272648  0
C  C56  1  0.62687952  0.92075906  0.07708542  1  0  0.292164  0  3.996537  0  0  0.271388  0  4.297395  0  0  0.29221  0  4.312243  0  0  0.142713  0.257803  0  4.286636  0
C  C57  1  0.07924733  0.37312091  0.42291182  1  0  0.2922  0  3.996404  0  0  0.271426  0  4.297272  0  0  0.292249  0  4.312127  0  0  0.142726  0.257837  0  4.286515  0
C  C58  1  0.37312097  0.07923910  0.92291187  1  0  0.292157  0  3.996532  0  0  0.271383  0  4.297393  0  0  0.292201  0  4.312252  0  0  0.142747  0.257795  0  4.286637  0
C  C59  1  0.92075907  0.62687924  0.57708797  1  0  0.292229  0  3.996499  0  0  0.271456  0  4.297358  0  0  0.292279  0  4.312209  0  0  0.142745  0.257871  0  4.286596  0
S  S60  1  0.49042311  0.73985186  0.85029224  1  0  -0.346138  0  2.18624  0  0  -0.303466  0  2.51804  0  0  -0.320623  0  2.510599  0  0  -0.128165  -0.292126  0  2.523619  0
S  S61  1  0.26016147  0.50957199  0.64970228  1  0  -0.346263  0  2.186366  0  0  -0.303598  0  2.518154  0  0  -0.320755  0  2.510721  0  0  -0.128234  -0.292259  0  2.523734  0
S  S62  1  0.50957542  0.26015652  0.14970262  1  0  -0.346173  0  2.186428  0  0  -0.303494  0  2.518197  0  0  -0.320653  0  2.510766  0  0  -0.128182  -0.292154  0  2.523777  0
S  S63  1  0.73985094  0.49042914  0.35029033  1  0  -0.346149  0  2.186242  0  0  -0.303489  0  2.518044  0  0  -0.320638  0  2.510596  0  0  -0.128185  -0.292148  0  2.523623  0
S  S64  1  0.56115058  0.80348910  0.16586874  1  0  -0.298029  0  2.224495  0  0  -0.262973  0  2.562172  0  0  -0.281178  0  2.557811  0  0  -0.121183  -0.251183  0  2.563666  0
S  S65  1  0.19651402  0.43885110  0.33413050  1  0  -0.298056  0  2.224624  0  0  -0.263016  0  2.562312  0  0  -0.281213  0  2.557952  0  0  -0.121214  -0.251227  0  2.563801  0
S  S66  1  0.43884778  0.19651010  0.83413028  1  0  -0.298007  0  2.224533  0  0  -0.262959  0  2.562203  0  0  -0.281164  0  2.557845  0  0  -0.121198  -0.251168  0  2.563694  0
S  S67  1  0.80349006  0.56115213  0.66586921  1  0  -0.298067  0  2.224567  0  0  -0.263019  0  2.56224  0  0  -0.281228  0  2.557881  0  0  -0.121214  -0.251234  0  2.563731  0
N  N68  1  0.85462819  0.28705149  0.99826354  1  0  -0.325661  0  3.253503  0  0  -0.25573  0  3.503017  0  0  -0.272521  0  3.52241  0  0  -0.321116  -0.243787  0  3.488891  0
N  N69  1  0.71294505  0.14537541  0.50173872  1  0  -0.325549  0  3.25334  0  0  -0.255628  0  3.502866  0  0  -0.272419  0  3.522262  0  0  -0.321088  -0.243685  0  3.488739  0
N  N70  1  0.14537351  0.71294462  0.00173872  1  0  -0.325614  0  3.253421  0  0  -0.255699  0  3.502995  0  0  -0.27249  0  3.522389  0  0  -0.321126  -0.243756  0  3.488869  0
N  N71  1  0.28705313  0.85462582  0.49826338  1  0  -0.325502  0  3.253456  0  0  -0.255573  0  3.503024  0  0  -0.272364  0  3.522418  0  0  -0.321072  -0.24363  0  3.488895  0
N  N72  1  0.82460099  0.19668275  0.80286615  1  0  -0.340698  0  3.177769  0  0  -0.282594  0  3.458135  0  0  -0.302791  0  3.476928  0  0  -0.26498  -0.269192  0  3.445361  0
N  N73  1  0.80331537  0.17540028  0.69713557  1  0  -0.340777  0  3.177784  0  0  -0.282675  0  3.45815  0  0  -0.30288  0  3.476945  0  0  -0.26498  -0.26927  0  3.445372  0
N  N74  1  0.17539848  0.80331542  0.19713612  1  0  -0.340712  0  3.177658  0  0  -0.282619  0  3.458031  0  0  -0.302822  0  3.476826  0  0  -0.264984  -0.269216  0  3.445255  0
N  N75  1  0.19668290  0.82459994  0.30286499  1  0  -0.340788  0  3.177799  0  0  -0.282681  0  3.458163  0  0  -0.302879  0  3.476958  0  0  -0.265003  -0.269279  0  3.445388  0
N  N76  1  0.04012917  0.25975711  0.72689878  1  0  -0.641595  0  3.153562  0  0  -0.604596  0  3.38552  0  0  -0.626035  0  3.384751  0  0  -0.569681  -0.590375  0  3.385965  0
N  N77  1  0.74024232  0.95987206  0.77310392  1  0  -0.641604  0  3.153622  0  0  -0.60463  0  3.385584  0  0  -0.626071  0  3.38481  0  0  -0.5697  -0.590409  0  3.386032  0
N  N78  1  0.95987021  0.74024208  0.27310341  1  0  -0.641589  0  3.153712  0  0  -0.604642  0  3.385641  0  0  -0.626073  0  3.384888  0  0  -0.569682  -0.59042  0  3.386092  0
N  N79  1  0.25975697  0.04012815  0.22689817  1  0  -0.641662  0  3.153497  0  0  -0.604694  0  3.385454  0  0  -0.626126  0  3.384686  0  0  -0.569714  -0.590471  0  3.385903  0
N  N80  1  0.60163800  0.46587193  0.88290290  1  0  -0.504942  0  2.881964  0  0  -0.450075  0  3.159371  0  0  -0.470094  0  3.167592  0  0  -0.381256  -0.436453  0  3.152203  0
N  N81  1  0.53413706  0.39835919  0.61709237  1  0  -0.504916  0  2.881788  0  0  -0.450059  0  3.159224  0  0  -0.47007  0  3.167423  0  0  -0.38122  -0.436437  0  3.152057  0
N  N82  1  0.39836165  0.53413542  0.11709196  1  0  -0.504934  0  2.881816  0  0  -0.450055  0  3.159254  0  0  -0.470076  0  3.167473  0  0  -0.381229  -0.436433  0  3.152088  0
N  N83  1  0.46587137  0.60164095  0.38290396  1  0  -0.504951  0  2.882044  0  0  -0.450073  0  3.159451  0  0  -0.470093  0  3.167677  0  0  -0.381277  -0.436452  0  3.152281  0
N  N84  1  0.67951143  0.00430471  0.01408361  1  0  -0.542446  0  2.87237  0  0  -0.485725  0  3.135885  0  0  -0.504551  0  3.142613  0  0  -0.39332  -0.473727  0  3.130674  0
N  N85  1  0.99569381  0.32049039  0.48591929  1  0  -0.542489  0  2.872149  0  0  -0.485767  0  3.135675  0  0  -0.504599  0  3.14241  0  0  -0.393315  -0.473769  0  3.130465  0
N  N86  1  0.32048906  0.99569345  0.98591612  1  0  -0.542463  0  2.872337  0  0  -0.485738  0  3.135856  0  0  -0.504566  0  3.142591  0  0  -0.393353  -0.473741  0  3.130648  0
N  N87  1  0.00430631  0.67951185  0.51408253  1  0  -0.542502  0  2.872245  0  0  -0.485783  0  3.135756  0  0  -0.504606  0  3.142486  0  0  -0.393343  -0.473783  0  3.130542  0
