# generated using pymatgen
data_CuMoP2H12C11N2O9
_symmetry_space_group_name_H-M   'P 1'
_cell_length_a   8.08679149
_cell_length_b   8.64382148
_cell_length_c   11.85624948
_cell_angle_alpha   82.14990692
_cell_angle_beta   77.32476655
_cell_angle_gamma   75.53188841
_symmetry_Int_Tables_number   1
_chemical_formula_structural   CuMoP2H12C11N2O9
_chemical_formula_sum   'Cu2 Mo2 P4 H24 C22 N4 O18'
_cell_volume   779.98392716
_cell_formula_units_Z   2
loop_
 _symmetry_equiv_pos_site_id
 _symmetry_equiv_pos_as_xyz
  1  'x, y, z'
loop_
 _atom_site_type_symbol
 _atom_site_label
 _atom_site_symmetry_multiplicity
 _atom_site_fract_x
 _atom_site_fract_y
 _atom_site_fract_z
 _atom_site_occupancy
 _atom_site_hle17_ddec_charge
 _atom_site_hle17_ddec_spin_density
 _atom_site_hle17_ddec_sum_bond_order
 _atom_site_hle17_magmom
 _atom_site_hse06_10hf_ddec_charge
 _atom_site_hse06_10hf_ddec_spin_density
 _atom_site_hse06_10hf_ddec_sum_bond_order
 _atom_site_hse06_10hf_magmom
 _atom_site_hse06_ddec_charge
 _atom_site_hse06_ddec_spin_density
 _atom_site_hse06_ddec_sum_bond_order
 _atom_site_hse06_magmom
 _atom_site_pbe_cm5_charge
 _atom_site_pbe_ddec_charge
 _atom_site_pbe_ddec_spin_density
 _atom_site_pbe_ddec_sum_bond_order
 _atom_site_pbe_magmom
Cu  Cu0  1  0.23645010  0.91054921  0.29888781  1  0.943269  0.75297  1.859484  0.529  0.927251  0.824711  2.252188  0.641  1.008642  0.89533  2.183462  0.721  0.773884  0.878232  0.772153  2.298673  0.586
Cu  Cu1  1  0.76354046  0.08946704  0.70109067  1  0.943369  -0.753072  1.860339  -0.53  0.927137  -0.824753  2.253472  -0.641  1.008644  -0.895349  2.184537  -0.721  0.774131  0.878164  -0.772199  2.299939  -0.586
Mo  Mo2  1  0.32786892  0.27361946  0.86222060  1  2.250435  0.006791  3.941158  0.008  2.239755  0.003234  4.474934  0.004  2.335579  0.002791  4.445188  0.004  1.594597  2.17468  0.00358  4.494451  0.004
Mo  Mo3  1  0.67212449  0.72637886  0.13779635  1  2.250535  -0.006723  3.941992  -0.008  2.239848  -0.003228  4.475767  -0.004  2.335659  -0.002786  4.446016  -0.004  1.594831  2.174782  -0.003574  4.495276  -0.004
P  P4  1  0.08488792  0.67997001  0.17137531  1  1.590127  0.002487  4.729141  0.0  1.44976  0.004658  5.229749  0.003  1.506814  0.003731  5.18591  0.003  0.366093  1.410067  0.005348  5.258616  0.003
P  P5  1  0.91510422  0.32001869  0.82861748  1  1.589955  -0.002492  4.72829  0.0  1.449659  -0.004665  5.228938  -0.003  1.506679  -0.003734  5.185076  -0.003  0.366013  1.409966  -0.005351  5.257818  -0.003
P  P6  1  0.31295473  0.90205682  0.03172489  1  1.595387  3.7e-05  4.741268  -0.001  1.45409  0.002386  5.234583  0.001  1.511065  0.001821  5.190201  0.001  0.355287  1.41435  0.002813  5.264526  0.001
P  P7  1  0.68703214  0.09793192  0.96829397  1  1.59532  -4.1e-05  4.740753  0.001  1.454108  -0.002391  5.23406  -0.001  1.511041  -0.00182  5.189674  -0.001  0.355354  1.414369  -0.002814  5.264007  -0.001
H  H8  1  0.38628566  0.19922089  0.18621196  1  0.108493  0.001751  0.936293  0.003  0.115285  0.001307  0.996339  0.002  0.117077  0.000911  0.994049  0.002  0.128836  0.113611  0.001635  0.998324  0.003
H  H9  1  0.61373068  0.80078812  0.81377189  1  0.108351  -0.001756  0.936632  -0.003  0.115129  -0.001307  0.996673  -0.002  0.11693  -0.000911  0.994368  -0.002  0.128798  0.113462  -0.001634  0.998662  -0.003
H  H10  1  0.45627088  0.42715699  0.26200908  1  0.127004  0.000517  0.940507  0.001  0.13614  0.000494  0.996878  0.001  0.138983  0.000344  0.995851  0.0  0.117934  0.133906  0.000615  0.997999  0.001
H  H11  1  0.54373707  0.57282331  0.73800669  1  0.126938  -0.000519  0.940419  -0.001  0.13611  -0.000495  0.996747  -0.001  0.13892  -0.000344  0.995765  0.0  0.117868  0.133877  -0.000615  0.997871  -0.001
H  H12  1  0.41043995  0.43434412  0.47885432  1  0.089243  0.000284  0.946958  0.001  0.1027  -7e-06  1.003022  0.0  0.104467  -3.5e-05  1.002259  0.0  0.108498  0.101335  3.5e-05  1.003816  0.0
H  H13  1  0.58957803  0.56564214  0.52114843  1  0.089355  -0.000285  0.946912  -0.001  0.102769  6e-06  1.003021  0.0  0.104546  3.5e-05  1.002244  0.0  0.108464  0.10135  -3.5e-05  1.003879  0.0
H  H14  1  0.29897288  0.21633249  0.60908541  1  0.129585  0.000745  0.973251  0.001  0.139108  0.0006  1.032499  0.001  0.14211  0.000397  1.031134  0.001  0.111273  0.136823  0.000774  1.033688  0.001
H  H15  1  0.70103162  0.78365257  0.39089666  1  0.129494  -0.000742  0.973222  -0.001  0.13906  -0.000599  1.032472  -0.001  0.142054  -0.000397  1.031121  -0.001  0.111243  0.136848  -0.000773  1.033562  -0.001
H  H16  1  0.21423246  0.01424010  0.70722930  1  0.136812  0.000943  0.947689  0.001  0.146103  0.000785  1.005167  0.001  0.149504  0.000541  1.004133  0.001  0.116889  0.143524  0.000992  1.006299  0.001
H  H17  1  0.78575199  0.98575940  0.29276101  1  0.136725  -0.000944  0.947684  -0.001  0.14605  -0.000785  1.005141  -0.001  0.149452  -0.000541  1.004107  -0.001  0.116844  0.143465  -0.000992  1.006273  -0.001
H  H18  1  0.11651677  0.76707437  0.80103532  1  0.111878  0.000327  0.940173  0.001  0.125623  8e-06  0.993448  0.0  0.127618  -2.2e-05  0.992254  0.0  0.116407  0.123954  5.2e-05  0.994684  0.0
H  H19  1  0.88347707  0.23293830  0.19895989  1  0.11183  -0.000321  0.940172  -0.001  0.125586  -8e-06  0.993445  0.0  0.127583  2.2e-05  0.992248  0.0  0.116393  0.12391  -5.2e-05  0.994681  0.0
H  H20  1  0.06336945  0.57902759  0.67936769  1  0.124091  0.000536  0.960887  0.001  0.132076  0.000489  1.019867  0.001  0.13606  0.000347  1.018086  0.0  0.113596  0.12905  0.000598  1.02141  0.001
H  H21  1  0.93662331  0.42099467  0.32062758  1  0.12405  -0.000542  0.960683  -0.001  0.131979  -0.000489  1.019747  -0.001  0.135965  -0.000347  1.017965  0.0  0.113546  0.128948  -0.000598  1.021289  -0.001
H  H22  1  0.11581147  0.64505339  0.45953630  1  0.098663  0.001523  0.944918  0.003  0.107579  0.001152  1.003794  0.002  0.109688  0.000779  1.002275  0.002  0.121647  0.105891  0.001478  1.004967  0.003
H  H23  1  0.88418985  0.35493890  0.54046576  1  0.098654  -0.001524  0.944945  -0.003  0.107578  -0.001152  1.00382  -0.002  0.109682  -0.000779  1.002301  -0.002  0.12166  0.105892  -0.001478  1.004993  -0.003
H  H24  1  0.04587167  0.86313438  0.00281406  1  0.191832  1.5e-05  0.948283  0.0  0.201465  -1.1e-05  1.00291  0.0  0.205106  -3e-06  1.00192  0.0  0.119998  0.198874  -1.7e-05  1.003742  0.0
H  H25  1  0.95412583  0.13689389  0.99719763  1  0.191659  -8e-06  0.948501  0.0  0.201315  1.1e-05  1.003157  0.0  0.204927  4e-06  1.002165  0.0  0.119886  0.198707  1.7e-05  1.004015  0.0
H  H26  1  0.21728594  0.69234964  0.96916144  1  0.213047  -1.1e-05  0.929633  0.0  0.223811  -8e-06  0.978964  0.0  0.22873  -2.1e-05  0.976043  0.0  0.123141  0.220444  8e-06  0.981091  0.0
H  H27  1  0.78271163  0.30765822  0.03083117  1  0.212924  1.8e-05  0.929848  0.0  0.223776  9e-06  0.979104  0.0  0.228675  2.1e-05  0.976168  0.0  0.12315  0.22041  -8e-06  0.981221  0.0
H  H28  1  0.18037213  0.18943546  0.08567484  1  0.426066  0.000352  0.885517  0.0  0.399278  0.000348  0.944413  0.0  0.410836  0.000233  0.927716  0.0  0.296901  0.391277  0.00045  0.955959  0.0
H  H29  1  0.81960705  0.81055927  0.91432937  1  0.426085  -0.000353  0.885499  0.0  0.399298  -0.000348  0.944402  0.0  0.410857  -0.000233  0.927705  0.0  0.296875  0.391298  -0.00045  0.955949  0.0
H  H30  1  0.14488183  0.38505556  0.08228691  1  0.463617  0.000283  0.833513  0.0  0.431873  0.000246  0.897347  0.0  0.444577  0.000146  0.879367  0.0  0.295776  0.423068  0.000355  0.909723  0.0
H  H31  1  0.85512593  0.61495708  0.91771049  1  0.463752  -0.000283  0.833331  0.0  0.431861  -0.000246  0.897402  0.0  0.444564  -0.000146  0.879424  0.0  0.295761  0.423058  -0.000355  0.909775  0.0
C  C32  1  0.36738456  0.20896057  0.27889660  1  0.171988  -0.008393  3.614227  -0.009  0.14402  -0.00099  3.868923  -0.002  0.154462  -0.002151  3.885725  -0.004  0.066939  0.136984  -0.000158  3.858436  -0.001
C  C33  1  0.63263279  0.79105444  0.72109494  1  0.172247  0.00842  3.614184  0.009  0.144241  0.000986  3.86894  0.002  0.154684  0.002154  3.885741  0.004  0.067014  0.137194  0.000157  3.858482  0.001
C  C34  1  0.40686119  0.33486671  0.32217544  1  -0.080297  0.011613  3.657211  0.012  -0.093072  0.004733  3.903813  0.006  -0.099177  0.004068  3.923167  0.005  -0.064362  -0.089329  0.005312  3.891313  0.006
C  C35  1  0.59315913  0.66512554  0.67782721  1  -0.080269  -0.011607  3.656928  -0.012  -0.093001  -0.00473  3.90347  -0.006  -0.099083  -0.004072  3.92284  -0.005  -0.064221  -0.089259  -0.005312  3.890957  -0.006
C  C36  1  0.38121259  0.33795421  0.44187381  1  -0.000595  -0.00904  3.708627  -0.008  -0.019142  -0.002719  3.956954  -0.003  -0.015723  -0.002883  3.975732  -0.003  -0.062278  -0.021411  -0.002632  3.944376  -0.002
C  C37  1  0.61880368  0.66203924  0.55812256  1  -0.000638  0.00904  3.708699  0.008  -0.01919  0.002721  3.957041  0.003  -0.015768  0.002884  3.975807  0.003  -0.062216  -0.021418  0.002634  3.944488  0.002
C  C38  1  0.31834204  0.21636773  0.51532972  1  -0.123984  0.007383  3.660653  0.007  -0.140871  0.002731  3.900956  0.003  -0.146998  0.002452  3.920639  0.003  -0.074081  -0.136796  0.002993  3.887863  0.003
C  C39  1  0.68167994  0.78362330  0.48466015  1  -0.123892  -0.007389  3.660379  -0.007  -0.140876  -0.002737  3.900657  -0.003  -0.147016  -0.002445  3.920364  -0.003  -0.07408  -0.13684  -0.002991  3.887477  -0.003
C  C40  1  0.28229406  0.09372802  0.46637164  1  0.16245  -0.003662  3.777712  -0.004  0.159477  0.000704  4.023599  0.0  0.166018  -0.000489  4.046358  -0.001  0.113548  0.155226  0.001563  4.008341  0.001
C  C41  1  0.71770262  0.90627267  0.53363616  1  0.161969  0.003669  3.777597  0.004  0.159173  -0.000695  4.0233  0.0  0.165734  0.000482  4.046024  0.001  0.113376  0.154933  -0.00156  4.008064  -0.001
C  C42  1  0.22050507  0.95632010  0.53378636  1  0.168399  -0.003228  3.776482  -0.004  0.163587  0.000903  4.02755  0.0  0.172107  -0.000283  4.048909  -0.001  0.115719  0.158094  0.001771  4.013434  0.001
C  C43  1  0.77948120  0.04366623  0.46622186  1  0.168622  0.003264  3.775765  0.004  0.163796  -0.000896  4.026853  0.0  0.172326  0.000278  4.048185  0.001  0.115755  0.158266  -0.001768  4.012788  -0.001
C  C44  1  0.19319128  0.92948976  0.65477080  1  -0.139507  0.007518  3.665967  0.007  -0.164688  0.003161  3.929137  0.003  -0.172213  0.002908  3.94744  0.003  -0.072456  -0.160333  0.003352  3.918006  0.003
C  C45  1  0.80679027  0.07051095  0.34522825  1  -0.139622  -0.007539  3.665529  -0.007  -0.164838  -0.003165  3.928747  -0.003  -0.172369  -0.002903  3.947042  -0.003  -0.072455  -0.160465  -0.003353  3.91761  -0.003
C  C46  1  0.13792283  0.79196707  0.70722430  1  0.02089  -0.008546  3.671172  -0.008  -0.002976  -0.002379  3.932115  -0.003  0.002  -0.00254  3.948226  -0.003  -0.05668  -0.006741  -0.002302  3.922444  -0.002
C  C47  1  0.86206264  0.20803842  0.29277033  1  0.021022  0.008537  3.670887  0.008  -0.002828  0.002382  3.931828  0.003  0.002149  0.002541  3.947944  0.003  -0.056642  -0.006589  0.002304  3.922137  0.002
C  C48  1  0.11024483  0.68498601  0.63898972  1  -0.105928  0.010971  3.68509  0.012  -0.121092  0.004604  3.938825  0.006  -0.128755  0.00393  3.959215  0.005  -0.076917  -0.116176  0.005164  3.925545  0.006
C  C49  1  0.88974471  0.31501828  0.36100864  1  -0.105827  -0.010955  3.684437  -0.012  -0.120939  -0.004602  3.938197  -0.006  -0.128603  -0.003935  3.958586  -0.005  -0.076861  -0.116019  -0.005165  3.924907  -0.006
C  C50  1  0.13750147  0.72003820  0.51921856  1  0.126157  -0.007128  3.692938  -0.008  0.09839  -0.000601  3.949928  -0.002  0.107382  -0.001765  3.968773  -0.003  0.049734  0.092712  0.000278  3.937446  -0.001
C  C51  1  0.86248383  0.27994693  0.48078908  1  0.126161  0.007137  3.692468  0.008  0.098407  0.000601  3.9495  0.002  0.10741  0.00177  3.968342  0.003  0.049794  0.092725  -0.000275  3.937026  0.001
C  C52  1  0.15989069  0.78320397  0.03174486  1  -0.788982  -0.001627  3.570756  -0.001  -0.780989  -0.000808  3.797913  0.0  -0.799928  -0.000739  3.794009  0.0  -0.177708  -0.768158  -0.000842  3.800744  0.0
C  C53  1  0.84012126  0.21681708  0.96826543  1  -0.788565  0.001597  3.570585  0.001  -0.780839  0.00081  3.797931  0.0  -0.799605  0.000738  3.793813  0.0  -0.177796  -0.768  0.000841  3.800778  0.0
N  N54  1  0.30530566  0.09311190  0.34940973  1  -0.338746  0.092649  3.316637  0.114  -0.299116  0.062908  3.611349  0.083  -0.330724  0.051536  3.634225  0.071  -0.341675  -0.279959  0.069581  3.59764  0.088
N  N55  1  0.69471469  0.90691632  0.65059524  1  -0.338382  -0.092639  3.316556  -0.113  -0.298756  -0.062894  3.61125  -0.083  -0.33039  -0.05153  3.634102  -0.071  -0.341639  -0.279618  -0.069564  3.597571  -0.088
N  N56  1  0.19142334  0.85208547  0.46876267  1  -0.336631  0.088208  3.33821  0.108  -0.29643  0.06069  3.635439  0.08  -0.326903  0.050174  3.656445  0.069  -0.348082  -0.278161  0.066629  3.62293  0.085
N  N57  1  0.80855779  0.14790088  0.53125558  1  -0.336779  -0.088225  3.338229  -0.108  -0.296629  -0.060696  3.635625  -0.08  -0.327137  -0.05018  3.656611  -0.07  -0.348279  -0.278363  -0.066632  3.623151  -0.085
O  O58  1  0.24703989  0.00279740  0.13830694  1  -0.857003  0.064723  2.09486  0.085  -0.799778  0.042132  2.389546  0.059  -0.838633  0.033012  2.36856  0.048  -0.382694  -0.773332  0.048276  2.403949  0.065
O  O59  1  0.75296672  0.99722004  0.86168847  1  -0.856878  -0.064739  2.094488  -0.085  -0.799632  -0.042137  2.389139  -0.059  -0.838538  -0.033013  2.368176  -0.048  -0.382553  -0.773187  -0.048288  2.403551  -0.065
O  O60  1  0.47418754  0.22209133  0.73534617  1  -0.736226  -0.001205  1.549346  -0.003  -0.754707  2e-06  1.841027  -0.001  -0.783016  -0.0001  1.829515  -0.002  -0.527334  -0.736775  0.000138  1.84941  -0.001
O  O61  1  0.52586007  0.77788767  0.26465633  1  -0.736107  0.001184  1.550035  0.003  -0.754587  -5e-06  1.8417  0.001  -0.782866  9.5e-05  1.830201  0.002  -0.52737  -0.736673  -0.000141  1.850103  0.001
O  O62  1  0.32562079  0.01255187  0.91993041  1  -0.858844  0.012216  1.936557  0.015  -0.805673  0.00615  2.204303  0.008  -0.836015  0.003841  2.187285  0.005  -0.386923  -0.783367  0.008569  2.214696  0.011
O  O63  1  0.67442457  0.98740074  0.08005227  1  -0.858956  -0.012197  1.937051  -0.015  -0.805759  -0.006145  2.204789  -0.008  -0.836097  -0.00384  2.187773  -0.005  -0.386961  -0.783478  -0.008563  2.215223  -0.011
O  O64  1  0.48731341  0.77729606  0.04032428  1  -0.844556  -6.6e-05  2.030254  0.0  -0.788906  -0.000257  2.300758  0.0  -0.820595  -0.000355  2.285052  0.0  -0.395294  -0.766871  -0.000101  2.311045  0.0
O  O65  1  0.51267672  0.22272141  0.95967184  1  -0.844513  6.6e-05  2.030271  0.0  -0.788841  0.000258  2.300749  0.0  -0.820547  0.000355  2.285078  0.0  -0.395247  -0.766794  0.000101  2.311037  0.0
O  O66  1  0.29601244  0.47720227  0.85569694  1  -0.651447  -0.000706  1.428243  -0.001  -0.643901  -0.00021  1.661965  0.0  -0.666703  -0.000183  1.654748  0.0  -0.49227  -0.629217  -0.000281  1.667029  0.0
O  O67  1  0.70396026  0.52279846  0.14430087  1  -0.651455  0.000678  1.428251  0.001  -0.643933  0.00021  1.661978  0.0  -0.666746  0.000185  1.654773  0.0  -0.492294  -0.629259  0.000282  1.66704  0.0
O  O68  1  0.87828609  0.74067174  0.19436999  1  -0.848057  0.000555  2.047834  0.001  -0.79725  0.000322  2.334767  0.001  -0.82985  0.000186  2.320141  0.0  -0.406024  -0.774606  0.000439  2.344113  0.001
O  O69  1  0.12171533  0.25930495  0.80562010  1  -0.848091  -0.000551  2.047486  -0.001  -0.79734  -0.00032  2.334429  -0.001  -0.829944  -0.000186  2.31981  0.0  -0.405985  -0.774685  -0.000438  2.343769  -0.001
O  O70  1  0.15262861  0.29092981  0.03509326  1  -0.873402  0.002801  1.914215  0.004  -0.835321  0.001488  2.11834  0.002  -0.86082  0.0009  2.089222  0.001  -0.592494  -0.817316  0.002097  2.138005  0.003
O  O71  1  0.84736642  0.70906729  0.96491430  1  -0.873576  -0.002803  1.914073  -0.004  -0.835416  -0.001488  2.11829  -0.002  -0.860911  -0.000901  2.089161  -0.001  -0.592542  -0.81742  -0.002098  2.137962  -0.003
O  O72  1  0.14637255  0.73366363  0.27005942  1  -0.836193  0.070483  2.027255  0.091  -0.793107  0.043772  2.335128  0.061  -0.832393  0.0338  2.313279  0.049  -0.389201  -0.765735  0.050878  2.349457  0.068
O  O73  1  0.85358748  0.26632636  0.72995228  1  -0.8363  -0.070423  2.027784  -0.091  -0.792945  -0.043745  2.335394  -0.061  -0.832261  -0.03378  2.313522  -0.049  -0.389157  -0.765585  -0.050846  2.34974  -0.068
O  O74  1  0.13765683  0.50095527  0.16599762  1  -0.829088  0.013243  1.919302  0.017  -0.760443  0.005874  2.158261  0.008  -0.790487  0.003441  2.140189  0.005  -0.360351  -0.737902  0.008647  2.169201  0.012
O  O75  1  0.86235203  0.49907895  0.83399325  1  -0.829112  -0.013252  1.91844  -0.017  -0.76044  -0.005877  2.157424  -0.008  -0.790497  -0.003444  2.139376  -0.005  -0.360333  -0.737886  -0.008654  2.16836  -0.012
