# generated using pymatgen
data_InH16C9NO
_symmetry_space_group_name_H-M   'P 1'
_cell_length_a   10.25203989
_cell_length_b   10.35436586
_cell_length_c   10.78309131
_cell_angle_alpha   109.32157476
_cell_angle_beta   108.36490647
_cell_angle_gamma   91.92096475
_symmetry_Int_Tables_number   1
_chemical_formula_structural   InH16C9NO
_chemical_formula_sum   'In4 H64 C36 N4 O4'
_cell_volume   1012.97367728
_cell_formula_units_Z   4
loop_
 _symmetry_equiv_pos_site_id
 _symmetry_equiv_pos_as_xyz
  1  'x, y, z'
loop_
 _atom_site_type_symbol
 _atom_site_label
 _atom_site_symmetry_multiplicity
 _atom_site_fract_x
 _atom_site_fract_y
 _atom_site_fract_z
 _atom_site_occupancy
 _atom_site_hle17_bader_spin_density
 _atom_site_hle17_ddec_charge
 _atom_site_hle17_ddec_spin_density
 _atom_site_hle17_ddec_sum_bond_order
 _atom_site_hle17_magmom
 _atom_site_hse06_10hf_bader_spin_density
 _atom_site_hse06_10hf_ddec_charge
 _atom_site_hse06_10hf_ddec_spin_density
 _atom_site_hse06_10hf_ddec_sum_bond_order
 _atom_site_hse06_10hf_magmom
 _atom_site_hse06_bader_spin_density
 _atom_site_hse06_ddec_charge
 _atom_site_hse06_ddec_spin_density
 _atom_site_hse06_ddec_sum_bond_order
 _atom_site_hse06_magmom
 _atom_site_pbe_bader_spin_density
 _atom_site_pbe_cm5_charge
 _atom_site_pbe_ddec_charge
 _atom_site_pbe_ddec_spin_density
 _atom_site_pbe_ddec_sum_bond_order
 _atom_site_pbe_magmom
In  In0  1  0.01439568  0.35182896  0.30452399  1  0  1.179526  0  2.296295  0  0  1.018496  0  2.750208  0  0  1.065261  0  2.719916  0  0  0.507225  0.983977  0  2.773358  0
In  In1  1  0.98560507  0.64817156  0.69547596  1  0  1.179554  0  2.2963  0  0  1.018515  0  2.750203  0  0  1.065281  0  2.719914  0  0  0.507238  0.983996  0  2.773353  0
In  In2  1  0.36669895  0.59292803  0.55405055  1  0  1.245855  0  2.34806  0  0  1.109158  0  2.780865  0  0  1.150882  0  2.756934  0  0  0.495411  1.078868  0  2.798381  0
In  In3  1  0.63329959  0.40707144  0.44595025  1  0  1.245802  0  2.348077  0  0  1.109098  0  2.780873  0  0  1.150825  0  2.75694  0  0  0.495409  1.078798  0  2.798402  0
H  H4  1  0.17084134  0.19624223  0.50979869  1  0  0.09708  0  0.945299  0  0  0.114874  0  1.007964  0  0  0.115395  0  1.009078  0  0  0.103853  0.114343  0  1.007518  0
H  H5  1  0.82915989  0.80376139  0.49020334  1  0  0.09708  0  0.945283  0  0  0.114851  0  1.00796  0  0  0.115375  0  1.009075  0  0  0.103862  0.11431  0  1.007518  0
H  H6  1  0.33196939  0.30504258  0.60859376  1  0  0.111584  0  0.952053  0  0  0.120342  0  1.021879  0  0  0.123641  0  1.019698  0  0  0.105594  0.117845  0  1.023452  0
H  H7  1  0.66802947  0.69495897  0.39140596  1  0  0.111561  0  0.952009  0  0  0.120309  0  1.021844  0  0  0.123613  0  1.019664  0  0  0.105601  0.117806  0  1.023419  0
H  H8  1  0.28590294  0.07940491  0.67812345  1  0  0.05295  0  0.926749  0  0  0.070757  0  0.975891  0  0  0.071401  0  0.976929  0  0  0.092881  0.07059  0  0.974644  0
H  H9  1  0.71409900  0.92059665  0.32187627  1  0  0.052942  0  0.926698  0  0  0.070727  0  0.975889  0  0  0.071371  0  0.976928  0  0  0.092879  0.07056  0  0.974642  0
H  H10  1  0.03057593  0.13762230  0.65392632  1  0  0.077081  0  0.937748  0  0  0.096527  0  0.994664  0  0  0.097502  0  0.994905  0  0  0.091409  0.095503  0  0.995183  0
H  H11  1  0.96942586  0.86237822  0.34607487  1  0  0.077081  0  0.937746  0  0  0.096523  0  0.994663  0  0  0.097498  0  0.994904  0  0  0.091391  0.095499  0  0.995184  0
H  H12  1  0.12012257  0.14993310  0.83042283  1  0  0.080063  0  0.943653  0  0  0.099898  0  1.001592  0  0  0.10082  0  1.002246  0  0  0.093268  0.099162  0  1.001474  0
H  H13  1  0.87988008  0.85006639  0.16957736  1  0  0.080098  0  0.943585  0  0  0.099926  0  1.00153  0  0  0.100842  0  1.002194  0  0  0.093299  0.099193  0  1.001411  0
H  H14  1  0.05235245  0.39682541  0.82992003  1  0  0.077105  0  0.958474  0  0  0.090724  0  1.01663  0  0  0.091844  0  1.017328  0  0  0.102383  0.09026  0  1.015302  0
H  H15  1  0.94764814  0.60317407  0.17008139  1  0  0.077103  0  0.958467  0  0  0.090706  0  1.016652  0  0  0.091825  0  1.017349  0  0  0.102386  0.090242  0  1.015322  0
H  H16  1  0.26764277  0.38816181  0.01396784  1  0  0.076863  0  0.946519  0  0  0.096179  0  1.004732  0  0  0.097127  0  1.005325  0  0  0.092357  0.095201  0  1.004869  0
H  H17  1  0.73235901  0.61183871  0.98603335  1  0  0.076881  0  0.946518  0  0  0.096189  0  1.004739  0  0  0.097137  0  1.005333  0  0  0.092358  0.09521  0  1.004878  0
H  H18  1  0.32827792  0.49709525  0.94022201  1  0  0.069426  0  0.948355  0  0  0.086651  0  1.009778  0  0  0.087622  0  1.01012  0  0  0.088421  0.085796  0  1.009849  0
H  H19  1  0.67172267  0.50290423  0.05977849  1  0  0.06944  0  0.948353  0  0  0.086679  0  1.009753  0  0  0.087657  0  1.010087  0  0  0.088429  0.085821  0  1.009827  0
H  H20  1  0.40057296  0.22159894  0.93249885  1  0  0.065857  0  0.965042  0  0  0.081886  0  1.031531  0  0  0.082714  0  1.032245  0  0  0.085509  0.08125  0  1.031072  0
H  H21  1  0.59942779  0.77840157  0.06750203  1  0  0.065867  0  0.964996  0  0  0.081899  0  1.031483  0  0  0.082728  0  1.032199  0  0  0.085506  0.081264  0  1.031024  0
H  H22  1  0.45837481  0.32211969  0.85034166  1  0  0.065109  0  0.943562  0  0  0.083622  0  1.004111  0  0  0.084701  0  1.00414  0  0  0.086879  0.082773  0  1.004255  0
H  H23  1  0.54162698  0.67788082  0.14966045  1  0  0.065116  0  0.943575  0  0  0.083629  0  1.004122  0  0  0.084707  0  1.004151  0  0  0.086877  0.082779  0  1.004265  0
H  H24  1  0.10505954  0.45417341  0.13492782  1  0  0.149112  0  1.020664  0  0  0.166845  0  1.07906  0  0  0.169659  0  1.080217  0  0  0.0775  0.164821  0  1.078133  0
H  H25  1  0.89494177  0.54582399  0.86507314  1  0  0.149095  0  1.020659  0  0  0.166838  0  1.079044  0  0  0.16965  0  1.080206  0  0  0.077514  0.164814  0  1.078118  0
H  H26  1  0.92958677  0.36813463  0.04093397  1  0  0.141694  0  1.009214  0  0  0.158723  0  1.069178  0  0  0.161382  0  1.070408  0  0  0.073352  0.156992  0  1.067832  0
H  H27  1  0.07041486  0.63186484  0.95906776  1  0  0.141705  0  1.009145  0  0  0.15872  0  1.069138  0  0  0.161379  0  1.070369  0  0  0.073342  0.156989  0  1.067792  0
H  H28  1  0.07015645  0.27006040  0.06195933  1  0  0.142162  0  1.014657  0  0  0.159615  0  1.075991  0  0  0.16183  0  1.078065  0  0  0.07488  0.157907  0  1.074671  0
H  H29  1  0.92984399  0.72993803  0.93804263  1  0  0.142174  0  1.014649  0  0  0.159637  0  1.075963  0  0  0.161852  0  1.078036  0  0  0.074888  0.157928  0  1.074644  0
H  H30  1  0.95653457  0.09741935  0.32674561  1  0  0.137842  0  1.03323  0  0  0.155657  0  1.095587  0  0  0.157654  0  1.09782  0  0  0.071365  0.153912  0  1.094417  0
H  H31  1  0.04346690  0.90257910  0.67325388  1  0  0.137846  0  1.033207  0  0  0.155659  0  1.095569  0  0  0.157658  0  1.097799  0  0  0.071376  0.153915  0  1.094398  0
H  H32  1  0.79865471  0.15930925  0.26246675  1  0  0.137498  0  1.018515  0  0  0.157773  0  1.075593  0  0  0.159832  0  1.077645  0  0  0.074217  0.156458  0  1.073725  0
H  H33  1  0.20134589  0.84069023  0.73753282  1  0  0.137488  0  1.018554  0  0  0.157762  0  1.075629  0  0  0.159821  0  1.077682  0  0  0.074208  0.156446  0  1.073763  0
H  H34  1  0.90022142  0.23039315  0.44439359  1  0  0.147107  0  1.025396  0  0  0.163488  0  1.08789  0  0  0.166062  0  1.0895  0  0  0.077178  0.161503  0  1.086783  0
H  H35  1  0.09977902  0.76960530  0.55560560  1  0  0.147117  0  1.025358  0  0  0.163486  0  1.087867  0  0  0.166062  0  1.089476  0  0  0.07717  0.161505  0  1.086756  0
H  H36  1  0.51955102  0.13184630  0.33647785  1  0  0.07268  0  0.972029  0  0  0.089558  0  1.039017  0  0  0.091127  0  1.037939  0  0  0.097537  0.088252  0  1.040013  0
H  H37  1  0.48044578  0.86815526  0.66351848  1  0  0.072644  0  0.972057  0  0  0.08952  0  1.039041  0  0  0.091094  0  1.037958  0  0  0.097509  0.088214  0  1.04004  0
H  H38  1  0.44647134  0.10857161  0.45735073  1  0  0.098343  0  0.921963  0  0  0.117429  0  0.979177  0  0  0.118904  0  0.978755  0  0  0.102531  0.11613  0  0.979891  0
H  H39  1  0.55352957  0.89142995  0.54264869  1  0  0.098374  0  0.922052  0  0  0.11746  0  0.979238  0  0  0.11893  0  0.978825  0  0  0.102559  0.116162  0  0.979953  0
H  H40  1  0.42313675  0.86538294  0.28618600  1  0  0.05276  0  0.937743  0  0  0.068155  0  0.992792  0  0  0.068972  0  0.993461  0  0  0.093576  0.067529  0  0.992478  0
H  H41  1  0.57686180  0.13461655  0.71381111  1  0  0.052756  0  0.937785  0  0  0.068161  0  0.992834  0  0  0.068977  0  0.993505  0  0  0.093574  0.067534  0  0.99252  0
H  H42  1  0.33659538  0.81879765  0.03008691  1  0  0.065049  0  0.95218  0  0  0.083483  0  1.012661  0  0  0.084523  0  1.013067  0  0  0.088251  0.0825  0  1.012743  0
H  H43  1  0.66340040  0.18120390  0.96991188  1  0  0.065126  0  0.952125  0  0  0.083574  0  1.012585  0  0  0.084612  0  1.012994  0  0  0.08829  0.082589  0  1.012672  0
H  H44  1  0.45498497  0.97416162  0.09812803  1  0  0.067334  0  0.937553  0  0  0.087071  0  0.99437  0  0  0.088085  0  0.994641  0  0  0.087719  0.086165  0  0.994377  0
H  H45  1  0.54501049  0.02583785  0.90187000  1  0  0.067365  0  0.9374  0  0  0.087082  0  0.994243  0  0  0.088095  0  0.994517  0  0  0.087727  0.086202  0  0.99422  0
H  H46  1  0.14781831  0.93357876  0.96247476  1  0  0.06331  0  0.964132  0  0  0.083918  0  1.026202  0  0  0.08408  0  1.027632  0  0  0.089186  0.083594  0  1.025617  0
H  H47  1  0.85217746  0.06642278  0.03752404  1  0  0.06331  0  0.964221  0  0  0.083901  0  1.026296  0  0  0.084061  0  1.027732  0  0  0.089165  0.083576  0  1.02571  0
H  H48  1  0.26210196  0.09125727  0.02472542  1  0  0.069164  0  0.950604  0  0  0.086466  0  1.012276  0  0  0.087737  0  1.012012  0  0  0.087787  0.085437  0  1.012665  0
H  H49  1  0.73789397  0.90874531  0.97527284  1  0  0.069184  0  0.950634  0  0  0.086474  0  1.012306  0  0  0.087761  0  1.012024  0  0  0.087806  0.085444  0  1.012695  0
H  H50  1  0.14816915  0.83390840  0.16019086  1  0  0.086244  0  0.941311  0  0  0.10756  0  0.996126  0  0  0.108484  0  0.997112  0  0  0.094266  0.107081  0  0.995053  0
H  H51  1  0.85182939  0.16609107  0.83980902  1  0  0.086233  0  0.941311  0  0  0.10754  0  0.996131  0  0  0.108464  0  0.997118  0  0  0.094263  0.107062  0  0.995057  0
H  H52  1  0.19706764  0.95275424  0.33681785  1  0  0.074885  0  0.940774  0  0  0.093899  0  0.999597  0  0  0.094969  0  0.999579  0  0  0.090473  0.092896  0  1.000044  0
H  H53  1  0.80293106  0.04724628  0.66318148  1  0  0.074901  0  0.940748  0  0  0.093909  0  0.999569  0  0  0.09498  0  0.999549  0  0  0.090483  0.092905  0  1.000016  0
H  H54  1  0.08288187  0.08319419  0.16180792  1  0  0.050409  0  0.974559  0  0  0.064789  0  1.036991  0  0  0.065575  0  1.037359  0  0  0.097006  0.064181  0  1.037105  0
H  H55  1  0.91711580  0.91680631  0.83819388  1  0  0.05045  0  0.974508  0  0  0.064786  0  1.036991  0  0  0.065569  0  1.037362  0  0  0.097018  0.064178  0  1.037106  0
H  H56  1  0.36394651  0.68595916  0.82328270  1  0  0.127924  0  1.039197  0  0  0.145494  0  1.103994  0  0  0.147017  0  1.106706  0  0  0.071163  0.144226  0  1.102466  0
H  H57  1  0.63605305  0.31404030  0.17671934  1  0  0.127953  0  1.039201  0  0  0.145527  0  1.103983  0  0  0.14705  0  1.106694  0  0  0.07119  0.144258  0  1.102456  0
H  H58  1  0.46973745  0.55269032  0.80232381  1  0  0.14596  0  1.004068  0  0  0.166825  0  1.060083  0  0  0.169132  0  1.061703  0  0  0.077464  0.165237  0  1.058798  0
H  H59  1  0.53026094  0.44730811  0.19767569  1  0  0.145969  0  1.004085  0  0  0.166839  0  1.06009  0  0  0.169146  0  1.06171  0  0  0.077473  0.165251  0  1.058804  0
H  H60  1  0.53706056  0.72333064  0.82683740  1  0  0.138152  0  1.027997  0  0  0.157231  0  1.087721  0  0  0.158932  0  1.090325  0  0  0.073257  0.155997  0  1.085862  0
H  H61  1  0.46293900  0.27666883  0.17316464  1  0  0.138146  0  1.027945  0  0  0.15721  0  1.087692  0  0  0.15891  0  1.090295  0  0  0.073237  0.155976  0  1.085833  0
H  H62  1  0.30751143  0.78015646  0.42190748  1  0  0.133664  0  1.035192  0  0  0.152097  0  1.096551  0  0  0.153842  0  1.098914  0  0  0.071393  0.150811  0  1.094837  0
H  H63  1  0.69249004  0.21984200  0.57809109  1  0  0.133643  0  1.035153  0  0  0.15209  0  1.096506  0  0  0.153836  0  1.098868  0  0  0.071413  0.150805  0  1.094792  0
H  H64  1  0.31397257  0.61742729  0.29933056  1  0  0.145814  0  0.998813  0  0  0.165606  0  1.054905  0  0  0.168529  0  1.055365  0  0  0.076991  0.163333  0  1.05483  0
H  H65  1  0.68603167  0.38256909  0.70067002  1  0  0.145792  0  0.998788  0  0  0.165576  0  1.054895  0  0  0.168498  0  1.055354  0  0  0.076975  0.163303  0  1.054819  0
H  H66  1  0.16273633  0.64574277  0.34793105  1  0  0.131413  0  1.04422  0  0  0.149391  0  1.107634  0  0  0.151044  0  1.110384  0  0  0.074444  0.148217  0  1.105553  0
H  H67  1  0.83726704  0.35425466  0.65206776  1  0  0.131402  0  1.04421  0  0  0.149381  0  1.107631  0  0  0.151029  0  1.110388  0  0  0.074446  0.148206  0  1.105549  0
C  C68  1  0.15891723  0.37336140  0.67636377  1  0  0.252386  0  3.620938  0  0  0.244174  0  3.882883  0  0  0.257041  0  3.897132  0  0  0.150776  0.235253  0  3.873403  0
C  C69  1  0.84108226  0.62664431  0.32363563  1  0  0.252226  0  3.620996  0  0  0.244024  0  3.88296  0  0  0.256898  0  3.897212  0  0  0.150697  0.235122  0  3.873439  0
C  C70  1  0.23693316  0.26201859  0.61685261  1  0  -0.23263  0  3.645134  0  0  -0.276643  0  3.888295  0  0  -0.280023  0  3.898197  0  0  -0.157365  -0.274381  0  3.881789  0
C  C71  1  0.76307218  0.73798507  0.38314695  1  0  -0.232556  0  3.645184  0  0  -0.276535  0  3.888364  0  0  -0.279934  0  3.898292  0  0  -0.157366  -0.274256  0  3.881833  0
C  C72  1  0.25987487  0.18330721  0.71884778  1  0  0.026379  0  3.606438  0  0  0.026392  0  3.851277  0  0  0.025693  0  3.867518  0  0  -0.092068  0.026886  0  3.839404  0
C  C73  1  0.74012707  0.81669435  0.28115287  1  0  0.026436  0  3.606393  0  0  0.026421  0  3.851279  0  0  0.025726  0  3.867523  0  0  -0.092091  0.02691  0  3.839406  0
C  C74  1  0.12207427  0.18962826  0.74829122  1  0  -0.166702  0  3.626713  0  0  -0.212883  0  3.879128  0  0  -0.214363  0  3.891826  0  0  -0.160735  -0.211483  0  3.870246  0
C  C75  1  0.87792649  0.81037225  0.25170966  1  0  -0.16677  0  3.626671  0  0  -0.21291  0  3.879093  0  0  -0.214382  0  3.89179  0  0  -0.160742  -0.211515  0  3.870222  0
C  C76  1  0.13615525  0.34937099  0.79883397  1  0  -0.069148  0  3.624717  0  0  -0.07422  0  3.8648  0  0  -0.077883  0  3.880234  0  0  -0.082575  -0.071049  0  3.853056  0
C  C77  1  0.86384622  0.65062744  0.20116830  1  0  -0.06909  0  3.62471  0  0  -0.074195  0  3.864869  0  0  -0.077858  0  3.880301  0  0  -0.082577  -0.071029  0  3.853119  0
C  C78  1  0.28058636  0.39162026  0.91776525  1  0  -0.127849  0  3.598718  0  0  -0.16936  0  3.852646  0  0  -0.170325  0  3.865392  0  0  -0.159085  -0.168552  0  3.843828  0
C  C79  1  0.71941321  0.60837923  0.08223401  1  0  -0.127886  0  3.598697  0  0  -0.169381  0  3.852605  0  0  -0.17035  0  3.865347  0  0  -0.159084  -0.168571  0  3.843789  0
C  C80  1  0.36530760  0.27844996  0.86145916  1  0  -0.144361  0  3.623903  0  0  -0.188902  0  3.885262  0  0  -0.190343  0  3.899008  0  0  -0.167378  -0.187557  0  3.87543  0
C  C81  1  0.63469403  0.72154952  0.13854165  1  0  -0.14438  0  3.623866  0  0  -0.188914  0  3.885228  0  0  -0.190355  0  3.898976  0  0  -0.167355  -0.187568  0  3.875399  0
C  C82  1  0.03126648  0.36339958  0.11231733  1  0  -0.763304  0  3.560157  0  0  -0.797829  0  3.807298  0  0  -0.815805  0  3.814995  0  0  -0.36559  -0.784989  0  3.801886  0
C  C83  1  0.96873499  0.63659887  0.88768309  1  0  -0.763329  0  3.560035  0  0  -0.797854  0  3.807214  0  0  -0.815833  0  3.81491  0  0  -0.365606  -0.785015  0  3.801803  0
C  C84  1  0.90518166  0.18961576  0.33858119  1  0  -0.776181  0  3.556317  0  0  -0.808826  0  3.798999  0  0  -0.826201  0  3.80657  0  0  -0.372021  -0.795855  0  3.793752  0
C  C85  1  0.09481862  0.81038165  0.66141854  1  0  -0.776173  0  3.556312  0  0  -0.808809  0  3.799021  0  0  -0.826186  0  3.806587  0  0  -0.372002  -0.795843  0  3.79377  0
C  C86  1  0.30144463  0.16504476  0.29757508  1  0  0.192379  0  3.66664  0  0  0.189645  0  3.933392  0  0  0.198811  0  3.950168  0  0  0.121919  0.183524  0  3.921523  0
C  C87  1  0.69855201  0.83495576  0.70242364  1  0  0.192431  0  3.666548  0  0  0.189686  0  3.93328  0  0  0.198855  0  3.950057  0  0  0.121925  0.183567  0  3.921417  0
C  C88  1  0.42344165  0.09284022  0.34588439  1  0  -0.21647  0  3.663168  0  0  -0.264573  0  3.911695  0  0  -0.266249  0  3.921228  0  0  -0.154541  -0.263095  0  3.905164  0
C  C89  1  0.57655689  0.90715927  0.65411364  1  0  -0.21654  0  3.663264  0  0  -0.264598  0  3.911784  0  0  -0.266277  0  3.921314  0  0  -0.154562  -0.263129  0  3.905267  0
C  C90  1  0.36654852  0.94079190  0.24873224  1  0  0.023408  0  3.600375  0  0  0.023342  0  3.846167  0  0  0.022516  0  3.862367  0  0  -0.090789  0.023731  0  3.835056  0
C  C91  1  0.63345152  0.05921069  0.75126817  1  0  0.023472  0  3.600389  0  0  0.023338  0  3.846264  0  0  0.022515  0  3.862459  0  0  -0.090794  0.023728  0  3.835158  0
C  C92  1  0.35744211  0.92797761  0.09927537  1  0  -0.137586  0  3.616204  0  0  -0.178306  0  3.871372  0  0  -0.179734  0  3.884894  0  0  -0.163194  -0.176996  0  3.861929  0
C  C93  1  0.64255572  0.07202396  0.90072220  1  0  -0.137736  0  3.616183  0  0  -0.178449  0  3.871398  0  0  -0.179878  0  3.884928  0  0  -0.163228  -0.177155  0  3.861948  0
C  C94  1  0.23332047  0.00464978  0.05311607  1  0  -0.129165  0  3.605214  0  0  -0.171576  0  3.858115  0  0  -0.172428  0  3.871107  0  0  -0.161101  -0.170786  0  3.849001  0
C  C95  1  0.76667632  0.99535175  0.94688489  1  0  -0.129176  0  3.605446  0  0  -0.171538  0  3.858282  0  0  -0.1724  0  3.871275  0  0  -0.161118  -0.170755  0  3.849185  0
C  C96  1  0.21216806  0.93238039  0.23596670  1  0  -0.169021  0  3.619389  0  0  -0.215032  0  3.870375  0  0  -0.216726  0  3.883368  0  0  -0.162187  -0.213457  0  3.861068  0
C  C97  1  0.78782962  0.06762012  0.76403325  1  0  -0.169018  0  3.619377  0  0  -0.214986  0  3.870325  0  0  -0.216679  0  3.883314  0  0  -0.162187  -0.213411  0  3.861017  0
C  C98  1  0.18708220  0.05409914  0.18280568  1  0  -0.056103  0  3.649332  0  0  -0.061302  0  3.887585  0  0  -0.06447  0  3.904191  0  0  -0.084883  -0.0589  0  3.875979  0
C  C99  1  0.81291682  0.94590343  0.81719720  1  0  -0.05617  0  3.649253  0  0  -0.061338  0  3.887469  0  0  -0.064511  0  3.904085  0  0  -0.084881  -0.058938  0  3.875865  0
C  C100  1  0.44310509  0.64566376  0.77857931  1  0  -0.761883  0  3.544889  0  0  -0.798191  0  3.783918  0  0  -0.815399  0  3.792859  0  0  -0.3689  -0.785661  0  3.777151  0
C  C101  1  0.55689463  0.35433673  0.22142403  1  0  -0.761915  0  3.544885  0  0  -0.798223  0  3.783938  0  0  -0.815428  0  3.792878  0  0  -0.368917  -0.785692  0  3.77717  0
C  C102  1  0.27648317  0.66802307  0.38562346  1  0  -0.768642  0  3.560747  0  0  -0.80434  0  3.801155  0  0  -0.821569  0  3.808984  0  0  -0.366887  -0.79173  0  3.795171  0
C  C103  1  0.72351814  0.33197435  0.61437473  1  0  -0.768564  0  3.560621  0  0  -0.804267  0  3.801042  0  0  -0.821495  0  3.808871  0  0  -0.366884  -0.791655  0  3.795055  0
N  N104  1  0.28664060  0.29293097  0.34589378  1  0  -0.203024  0  3.117518  0  0  -0.174395  0  3.398434  0  0  -0.181663  0  3.412163  0  0  -0.219514  -0.169368  0  3.38847  0
N  N105  1  0.71335604  0.70706952  0.65410772  1  0  -0.20298  0  3.117524  0  0  -0.174322  0  3.39843  0  0  -0.181594  0  3.412168  0  0  -0.219487  -0.169303  0  3.388469  0
N  N106  1  0.11796014  0.47201943  0.63341175  1  0  -0.203943  0  3.214869  0  0  -0.156078  0  3.492423  0  0  -0.168678  0  3.507702  0  0  -0.224063  -0.148141  0  3.482284  0
N  N107  1  0.88204116  0.52797797  0.36659014  1  0  -0.203959  0  3.214716  0  0  -0.156109  0  3.492267  0  0  -0.168711  0  3.507546  0  0  -0.224077  -0.148181  0  3.48212  0
O  O108  1  0.15199523  0.47846354  0.51994354  1  0  -0.573957  0  2.092263  0  0  -0.492828  0  2.367022  0  0  -0.514539  0  2.362831  0  0  -0.244551  -0.476244  0  2.368224  0
O  O109  1  0.84800450  0.52153697  0.48005703  1  0  -0.573863  0  2.092309  0  0  -0.492691  0  2.367037  0  0  -0.514406  0  2.362851  0  0  -0.244481  -0.476105  0  2.368235  0
O  O110  1  0.40285362  0.37876010  0.45405380  1  0  -0.57162  0  2.056493  0  0  -0.48846  0  2.325018  0  0  -0.513945  0  2.323365  0  0  -0.242008  -0.469899  0  2.324671  0
O  O111  1  0.59714247  0.62124351  0.54594761  1  0  -0.571637  0  2.056547  0  0  -0.488531  0  2.325133  0  0  -0.514012  0  2.323484  0  0  -0.242025  -0.469944  0  2.324774  0
