# generated using pymatgen
data_CuSiH4C8(N2F5)2
_symmetry_space_group_name_H-M   'P 1'
_cell_length_a   7.03831976
_cell_length_b   7.03910406
_cell_length_c   7.96560694
_cell_angle_alpha   79.61342047
_cell_angle_beta   79.61308913
_cell_angle_gamma   94.24865666
_symmetry_Int_Tables_number   1
_chemical_formula_structural   CuSiH4C8(N2F5)2
_chemical_formula_sum   'Cu1 Si1 H4 C8 N4 F10'
_cell_volume   379.49158999
_cell_formula_units_Z   1
loop_
 _symmetry_equiv_pos_site_id
 _symmetry_equiv_pos_as_xyz
  1  'x, y, z'
loop_
 _atom_site_type_symbol
 _atom_site_label
 _atom_site_symmetry_multiplicity
 _atom_site_fract_x
 _atom_site_fract_y
 _atom_site_fract_z
 _atom_site_occupancy
 _atom_site_pbe_bader_charge
 _atom_site_pbe_bader_spin_density
 _atom_site_pbe_cm5_charge
 _atom_site_pbe_ddec_charge
 _atom_site_pbe_ddec_spin_density
 _atom_site_pbe_ddec_sum_bond_order
 _atom_site_pbe_magmom
Cu  Cu0  1  0.49999995  0.50000358  0.50000535  1  1.119067  0.58684  0.759889  0.780291  0.733585  2.063474  0.587
Si  Si1  1  0.49998264  0.49999606  0.00001293  1  3.232594  -0.000179  0.245786  1.723508  -0.000347  3.919676  0.0
H  H2  1  0.74750793  0.36925414  0.75675711  1  0.287933  0.004512  0.13028  0.155907  0.00244  1.052452  0.004
H  H3  1  0.25249244  0.63075212  0.24326248  1  0.288027  0.004515  0.130293  0.155885  0.002442  1.052375  0.004
H  H4  1  0.36934163  0.74755832  0.75677387  1  0.288409  0.004517  0.130274  0.156097  0.002444  1.051883  0.004
H  H5  1  0.63067250  0.25243978  0.24320600  1  0.291  0.004491  0.130287  0.156197  0.002437  1.052279  0.004
C  C6  1  0.05321111  0.42646871  0.64723933  1  1.12966  0.007322  0.249665  0.396986  0.005351  4.024994  0.007
C  C7  1  0.94676186  0.57352386  0.35276346  1  1.130151  0.007321  0.249662  0.396856  0.00535  4.025412  0.007
C  C8  1  0.85691589  0.42725407  0.63925376  1  0.52977  0.004669  0.063447  -0.029639  0.002871  3.843989  0.003
C  C9  1  0.14308183  0.57274405  0.36077433  1  0.530212  0.004668  0.063561  -0.029574  0.00287  3.843978  0.003
C  C10  1  0.42654852  0.05324271  0.64724593  1  1.130312  0.007323  0.249719  0.396852  0.005351  4.025697  0.007
C  C11  1  0.57348809  0.94679567  0.35275398  1  1.12936  0.007323  0.24975  0.397136  0.005352  4.024639  0.007
C  C12  1  0.42731500  0.85694503  0.63922904  1  0.530028  0.004674  0.063472  -0.029751  0.002872  3.844072  0.003
C  C13  1  0.57271593  0.14306574  0.36071798  1  0.526203  0.004691  0.063227  -0.030149  0.002875  3.843905  0.003
N  N14  1  0.19679897  0.49653996  0.51003030  1  -1.197864  0.081613  -0.307413  -0.268466  0.053203  3.536569  0.071
N  N15  1  0.80318496  0.50346494  0.48998192  1  -1.197741  0.081646  -0.30739  -0.268522  0.053223  3.536428  0.071
N  N16  1  0.49655534  0.19680373  0.51002568  1  -1.197705  0.081655  -0.307192  -0.268385  0.053231  3.535953  0.071
N  N17  1  0.50344666  0.80321375  0.48998270  1  -1.198078  0.081609  -0.307223  -0.268359  0.053203  3.536489  0.071
F  F18  1  0.53144589  0.53143277  0.20817958  1  -0.830842  0.001287  -0.232173  -0.563304  0.000363  1.327643  0.002
F  F19  1  0.46853813  0.46857632  0.79183355  1  -0.831123  0.001289  -0.232178  -0.563304  0.000364  1.327565  0.002
F  F20  1  0.66630690  0.33364845  0.00001214  1  -0.823333  0.003503  -0.213039  -0.503873  0.002187  1.165805  0.003
F  F21  1  0.33366392  0.66633688  0.00001255  1  -0.823286  0.003505  -0.21308  -0.503775  0.002188  1.165592  0.003
F  F22  1  0.67994780  0.67989408  0.90294119  1  -0.83225  0.00018  -0.26152  -0.543941  0.000112  1.068371  0.0
F  F23  1  0.32003477  0.32009712  0.09707863  1  -0.832503  0.00018  -0.261512  -0.543985  0.000112  1.068479  0.0
F  F24  1  0.09876115  0.35280820  0.79762995  1  -0.597459  0.002712  -0.034199  -0.075284  0.001481  1.449853  0.002
F  F25  1  0.90122929  0.64714975  0.20238314  1  -0.597809  0.00271  -0.033983  -0.074945  0.00148  1.450427  0.002
F  F26  1  0.35299399  0.09876290  0.79763284  1  -0.591359  0.002712  -0.034085  -0.07505  0.001479  1.450583  0.002
F  F27  1  0.64707919  0.90124489  0.20234632  1  -0.591369  0.002714  -0.034323  -0.07541  0.001481  1.449662  0.002
