# generated using pymatgen
data_H7PbC16N2(OF)6
_symmetry_space_group_name_H-M   'P 1'
_cell_length_a   7.29881590
_cell_length_b   16.28745889
_cell_length_c   16.27058915
_cell_angle_alpha   94.20497611
_cell_angle_beta   90.00145471
_cell_angle_gamma   90.00123504
_symmetry_Int_Tables_number   1
_chemical_formula_structural   H7PbC16N2(OF)6
_chemical_formula_sum   'H28 Pb4 C64 N8 O24 F24'
_cell_volume   1929.02729352
_cell_formula_units_Z   4
loop_
 _symmetry_equiv_pos_site_id
 _symmetry_equiv_pos_as_xyz
  1  'x, y, z'
loop_
 _atom_site_type_symbol
 _atom_site_label
 _atom_site_symmetry_multiplicity
 _atom_site_fract_x
 _atom_site_fract_y
 _atom_site_fract_z
 _atom_site_occupancy
 _atom_site_pbe_bader_charge
 _atom_site_pbe_bader_spin_density
 _atom_site_pbe_cm5_charge
 _atom_site_pbe_ddec_charge
 _atom_site_pbe_ddec_spin_density
 _atom_site_pbe_ddec_sum_bond_order
 _atom_site_pbe_magmom
H  H0  1  0.22668362  0.22501308  0.64546386  1  0.664966  0  0.307797  0.343047  0  1.018273  0
H  H1  1  0.72671291  0.27500788  0.85453214  1  0.665673  0  0.307824  0.343204  0  1.017905  0
H  H2  1  0.77332089  0.77497508  0.35452870  1  0.664794  0  0.307771  0.343003  0  1.018304  0
H  H3  1  0.27332311  0.72502034  0.14547423  1  0.665049  0  0.307752  0.34305  0  1.018243  0
H  H4  1  0.27341230  0.43002497  0.25129062  1  0.507311  0  0.303896  0.281523  0  0.987749  0
H  H5  1  0.77340400  0.06997603  0.24870773  1  0.506378  0  0.303877  0.281511  0  0.98788  0
H  H6  1  0.72658262  0.56997367  0.74870819  1  0.507263  0  0.303915  0.281592  0  0.987685  0
H  H7  1  0.22657722  0.93002201  0.75129165  1  0.506356  0  0.303901  0.281587  0  0.98767  0
H  H8  1  0.30690509  0.26187110  0.04161830  1  0.081268  0  0.095684  0.103462  0  1.038777  0
H  H9  1  0.80690426  0.23812780  0.45838090  1  0.081283  0  0.095706  0.103461  0  1.039062  0
H  H10  1  0.69309531  0.73812627  0.95837244  1  0.081373  0  0.095648  0.103464  0  1.038988  0
H  H11  1  0.19308929  0.76187637  0.54161398  1  0.081473  0  0.095693  0.103488  0  1.03905  0
H  H12  1  0.08160532  0.48634539  0.13730791  1  0.098226  0  0.112342  0.066936  0  1.028215  0
H  H13  1  0.58159806  0.01364923  0.36268351  1  0.098116  0  0.112393  0.066952  0  1.028245  0
H  H14  1  0.91838960  0.51364711  0.86269233  1  0.098323  0  0.11237  0.066969  0  1.028205  0
H  H15  1  0.41840645  0.98634699  0.63732252  1  0.098159  0  0.112375  0.066922  0  1.028148  0
H  H16  1  0.58664488  0.31470096  0.23604701  1  0.046043  0  0.088042  0.129739  0  1.006921  0
H  H17  1  0.08664096  0.18529563  0.26395935  1  0.046079  0  0.088063  0.129765  0  1.006855  0
H  H18  1  0.41334867  0.68529464  0.76395713  1  0.045959  0  0.088027  0.129732  0  1.006938  0
H  H19  1  0.91333615  0.81470606  0.73603353  1  0.045947  0  0.088044  0.129723  0  1.006961  0
H  H20  1  0.51302642  0.22415051  0.17809377  1  0.059052  0  0.090093  0.135427  0  1.009633  0
H  H21  1  0.01303143  0.27585022  0.32191387  1  0.059569  0  0.090077  0.135432  0  1.009654  0
H  H22  1  0.48696850  0.77585062  0.82190951  1  0.059213  0  0.090072  0.135437  0  1.009688  0
H  H23  1  0.98694842  0.72415025  0.67808199  1  0.059443  0  0.090083  0.135428  0  1.009656  0
H  H24  1  0.39816463  0.25802232  0.27058206  1  0.061145  0  0.089742  0.133234  0  1.008331  0
H  H25  1  0.89816748  0.24197882  0.22942388  1  0.061172  0  0.089698  0.133166  0  1.008433  0
H  H26  1  0.60181385  0.74198003  0.72941824  1  0.061209  0  0.089726  0.133234  0  1.008365  0
H  H27  1  0.10180826  0.75802411  0.77057031  1  0.061428  0  0.089656  0.133087  0  1.008404  0
Pb  Pb28  1  0.90562277  0.33696791  0.70645980  1  1.469162  0  0.698595  1.177885  0  1.721997  0
Pb  Pb29  1  0.40562632  0.16303351  0.79355473  1  1.469129  0  0.698626  1.177949  0  1.721927  0
Pb  Pb30  1  0.09442010  0.66302772  0.29355109  1  1.469352  0  0.698561  1.177827  0  1.722182  0
Pb  Pb31  1  0.59441107  0.83696764  0.20645285  1  1.469215  0  0.698566  1.177743  0  1.722093  0
C  C32  1  0.41023744  0.33955826  0.67345262  1  1.641488  0  0.245147  0.666652  0  4.132913  0
C  C33  1  0.91023644  0.16044192  0.82655144  1  1.641523  0  0.245145  0.666785  0  4.132853  0
C  C34  1  0.58978900  0.66042620  0.32653969  1  1.64109  0  0.245235  0.666912  0  4.132477  0
C  C35  1  0.08977492  0.83955981  0.17344758  1  1.641822  0  0.245053  0.666793  0  4.132701  0
C  C36  1  0.37398308  0.39710996  0.60642922  1  0.063759  0  -0.02576  -0.223329  0  4.043306  0
C  C37  1  0.87397630  0.10289045  0.89357321  1  0.06409  0  -0.025838  -0.223218  0  4.042453  0
C  C38  1  0.62604062  0.60286770  0.39355525  1  0.063044  0  -0.025883  -0.223582  0  4.043997  0
C  C39  1  0.12601999  0.89711435  0.10642479  1  0.063762  0  -0.025854  -0.222996  0  4.042554  0
C  C40  1  0.32056722  0.47865716  0.62301814  1  0.576518  0  0.087493  0.146194  0  4.105447  0
C  C41  1  0.82054606  0.02134332  0.87698983  1  0.577009  0  0.087572  0.146306  0  4.105411  0
C  C42  1  0.67944825  0.52132177  0.37697441  1  0.576317  0  0.087513  0.146238  0  4.105309  0
C  C43  1  0.17943790  0.97865841  0.12301042  1  0.577021  0  0.087493  0.146104  0  4.105584  0
C  C44  1  0.25968410  0.52626059  0.56060944  1  0.567486  0  0.097984  0.16921  0  4.067879  0
C  C45  1  0.75965634  0.97373915  0.93939352  1  0.567345  0  0.09815  0.169288  0  4.067721  0
C  C46  1  0.74034233  0.47372574  0.43938853  1  0.567902  0  0.09793  0.168825  0  4.067917  0
C  C47  1  0.24033310  0.02626873  0.06060654  1  0.56753  0  0.09808  0.169307  0  4.067838  0
C  C48  1  0.24848878  0.49392981  0.47799709  1  0.108326  0  -0.029866  -0.226726  0  3.992401  0
C  C49  1  0.74847012  0.00607650  0.02200933  1  0.107312  0  -0.029963  -0.22691  0  3.992448  0
C  C50  1  0.75150341  0.50605900  0.52200412  1  0.108138  0  -0.029874  -0.226595  0  3.992931  0
C  C51  1  0.25151521  0.99393447  0.97799340  1  0.108228  0  -0.02997  -0.226987  0  3.99294  0
C  C52  1  0.30484895  0.41162588  0.46219900  1  0.513829  0  0.103194  0.180455  0  4.053857  0
C  C53  1  0.80484193  0.08837670  0.03780105  1  0.514304  0  0.103272  0.180862  0  4.052725  0
C  C54  1  0.69511994  0.58835427  0.53779363  1  0.513311  0  0.103155  0.18034  0  4.054026  0
C  C55  1  0.19513930  0.91163609  0.96219566  1  0.513792  0  0.10311  0.180688  0  4.053142  0
C  C56  1  0.36695421  0.36476319  0.52481270  1  0.53947  0  0.092784  0.153716  0  4.086314  0
C  C57  1  0.86694536  0.13524020  0.97518678  1  0.539597  0  0.09277  0.154835  0  4.08505  0
C  C58  1  0.63304345  0.63521631  0.47517128  1  0.540632  0  0.09279  0.153558  0  4.086862  0
C  C59  1  0.13302627  0.86476888  0.02480660  1  0.539586  0  0.092826  0.154627  0  4.08537  0
C  C60  1  0.18333500  0.54419009  0.40987740  1  1.559532  0  0.204476  0.586464  0  4.219607  0
C  C61  1  0.68331816  0.95581607  0.09012708  1  1.559383  0  0.204439  0.586373  0  4.219639  0
C  C62  1  0.81666540  0.45580548  0.59012059  1  1.559255  0  0.204495  0.586506  0  4.219866  0
C  C63  1  0.31667950  0.04419988  0.90988583  1  1.559805  0  0.204645  0.586822  0  4.219667  0
C  C64  1  0.03921452  0.15609985  0.59436839  1  1.575068  0  0.261915  0.652579  0  4.03852  0
C  C65  1  0.53923763  0.34390376  0.90563657  1  1.575628  0  0.261691  0.652414  0  4.038695  0
C  C66  1  0.96078314  0.84389261  0.40562509  1  1.574819  0  0.261677  0.652357  0  4.038676  0
C  C67  1  0.46079565  0.65611465  0.09437711  1  1.575306  0  0.261551  0.652183  0  4.038701  0
C  C68  1  0.01505390  0.07682360  0.54469256  1  0.099248  0  -0.015256  -0.214467  0  4.018738  0
C  C69  1  0.51507123  0.42318041  0.95531952  1  0.098919  0  -0.015378  -0.214355  0  4.018342  0
C  C70  1  0.98493554  0.92317255  0.45529993  1  0.099153  0  -0.015295  -0.214525  0  4.018444  0
C  C71  1  0.48494424  0.57683313  0.04470367  1  0.09902  0  -0.015295  -0.214681  0  4.018659  0
C  C72  1  0.12416782  0.05797969  0.47507798  1  0.643833  0  0.111479  0.187118  0  4.048626  0
C  C73  1  0.62419185  0.44203023  0.02493033  1  0.64407  0  0.111505  0.186911  0  4.048617  0
C  C74  1  0.87581752  0.94201707  0.52491271  1  0.643909  0  0.111409  0.187039  0  4.048327  0
C  C75  1  0.37582363  0.55798392  0.97509351  1  0.644011  0  0.111403  0.187239  0  4.048116  0
C  C76  1  0.88998415  0.01837158  0.56851878  1  0.547766  0  0.108559  0.185434  0  4.058593  0
C  C77  1  0.38998316  0.48162348  0.93148777  1  0.547935  0  0.108448  0.185107  0  4.058461  0
C  C78  1  0.11002173  0.98162213  0.43147785  1  0.547813  0  0.108577  0.185378  0  4.059028  0
C  C79  1  0.61004465  0.51839064  0.06852932  1  0.54776  0  0.108652  0.18562  0  4.058757  0
C  C80  1  0.34030459  0.32742810  0.16503815  1  0.362029  0  0.066663  0.203533  0  4.004949  0
C  C81  1  0.84030327  0.17257118  0.33496392  1  0.361923  0  0.066719  0.203643  0  4.004952  0
C  C82  1  0.65968896  0.67256808  0.83495803  1  0.362135  0  0.066691  0.203514  0  4.004812  0
C  C83  1  0.15967521  0.82743115  0.66503146  1  0.362385  0  0.066662  0.20349  0  4.004982  0
C  C84  1  0.27768911  0.31420239  0.08490287  1  0.373751  0  -0.037379  -0.143652  0  4.049496  0
C  C85  1  0.77768336  0.18579499  0.41510081  1  0.373962  0  -0.037505  -0.144109  0  4.050163  0
C  C86  1  0.72231540  0.68579505  0.91510078  1  0.373825  0  -0.037406  -0.143727  0  4.049452  0
C  C87  1  0.22230197  0.81420734  0.58489579  1  0.373456  0  -0.03744  -0.143975  0  4.04999  0
C  C88  1  0.15923145  0.42929817  0.13089214  1  0.950549  0  0.10464  0.1176  0  4.058243  0
C  C89  1  0.65922314  0.07070038  0.36910412  1  0.950384  0  0.104594  0.117598  0  4.058469  0
C  C90  1  0.84076895  0.57069679  0.86910642  1  0.95027  0  0.104578  0.117608  0  4.058416  0
C  C91  1  0.34077041  0.92929890  0.63089781  1  0.949918  0  0.10455  0.117601  0  4.058693  0
C  C92  1  0.46520183  0.27888787  0.21524814  1  -0.065484  0  -0.239212  -0.428938  0  3.996458  0
C  C93  1  0.96520545  0.22111276  0.28475914  1  -0.06599  0  -0.23914  -0.42889  0  3.996539  0
C  C94  1  0.53478898  0.72111264  0.78475510  1  -0.065658  0  -0.23912  -0.428895  0  3.996664  0
C  C95  1  0.03477029  0.77889017  0.71523443  1  -0.066053  0  -0.23908  -0.428715  0  3.996632  0
N  N96  1  0.26273429  0.40163177  0.19341630  1  -1.269755  0  -0.399059  -0.290318  0  3.65815  0
N  N97  1  0.76272923  0.09836790  0.30658430  1  -1.268735  0  -0.399057  -0.29036  0  3.658241  0
N  N98  1  0.73726201  0.59836442  0.80658357  1  -1.269767  0  -0.399022  -0.290355  0  3.658076  0
N  N99  1  0.23725884  0.90163260  0.69341526  1  -1.268535  0  -0.398961  -0.290263  0  3.658233  0
N  N100  1  0.16578284  0.37795070  0.06400728  1  -1.170771  0  -0.3764  -0.344814  0  3.351726  0
N  N101  1  0.66577388  0.12204483  0.43598762  1  -1.170792  0  -0.376385  -0.344814  0  3.352256  0
N  N102  1  0.83422031  0.62204363  0.93599001  1  -1.170779  0  -0.376395  -0.344841  0  3.351996  0
N  N103  1  0.33421830  0.87795690  0.56401202  1  -1.170619  0  -0.376405  -0.344977  0  3.352461  0
O  O104  1  0.56752486  0.32243656  0.69704067  1  -1.173179  0  -0.271315  -0.534201  0  2.256458  0
O  O105  1  0.06751319  0.17756488  0.80296139  1  -1.173127  0  -0.271239  -0.534062  0  2.256328  0
O  O106  1  0.43248651  0.67755164  0.30296049  1  -1.172689  0  -0.271309  -0.534315  0  2.256111  0
O  O107  1  0.93251325  0.82244114  0.19703547  1  -1.172924  0  -0.271098  -0.533956  0  2.256645  0
O  O108  1  0.26505223  0.30611478  0.70089095  1  -1.180002  0  -0.29378  -0.614794  0  2.315246  0
O  O109  1  0.76504852  0.19389250  0.79911870  1  -1.18027  0  -0.293843  -0.614806  0  2.315269  0
O  O110  1  0.73497146  0.69387095  0.29910883  1  -1.180133  0  -0.293862  -0.614857  0  2.315371  0
O  O111  1  0.23497517  0.80612158  0.20089039  1  -1.180519  0  -0.293803  -0.614808  0  2.314958  0
O  O112  1  0.10284194  0.61301913  0.42947402  1  -1.125574  0  -0.297517  -0.542725  0  2.177592  0
O  O113  1  0.60283991  0.88698556  0.07053067  1  -1.125461  0  -0.297467  -0.542612  0  2.177628  0
O  O114  1  0.89716943  0.38698199  0.57052620  1  -1.125523  0  -0.297529  -0.542779  0  2.177761  0
O  O115  1  0.39715775  0.11302854  0.92948334  1  -1.126027  0  -0.297545  -0.542851  0  2.177886  0
O  O116  1  0.21203969  0.51834122  0.33553751  1  -1.150786  0  -0.301694  -0.565762  0  2.203823  0
O  O117  1  0.71202279  0.98167264  0.16446783  1  -1.150753  0  -0.301708  -0.565735  0  2.203644  0
O  O118  1  0.78797442  0.48166051  0.66446213  1  -1.150623  0  -0.301695  -0.565796  0  2.203736  0
O  O119  1  0.28800090  0.01834082  0.83553937  1  -1.150808  0  -0.301776  -0.565931  0  2.203579  0
O  O120  1  0.21329295  0.16902039  0.61451251  1  -1.170636  0  -0.312042  -0.489588  0  2.369375  0
O  O121  1  0.71331431  0.33100224  0.88547669  1  -1.171712  0  -0.311885  -0.489305  0  2.368983  0
O  O122  1  0.78669786  0.83097206  0.38547789  1  -1.170233  0  -0.311828  -0.489399  0  2.369151  0
O  O123  1  0.28670665  0.66902719  0.11452361  1  -1.17092  0  -0.311832  -0.489132  0  2.368863  0
O  O124  1  0.91143030  0.20328097  0.61488740  1  -1.125918  0  -0.243181  -0.4677  0  2.197297  0
O  O125  1  0.41146041  0.29671742  0.88512515  1  -1.125656  0  -0.243133  -0.467732  0  2.197592  0
O  O126  1  0.08856463  0.79671830  0.38511330  1  -1.125895  0  -0.243127  -0.467605  0  2.197649  0
O  O127  1  0.58857561  0.70329299  0.11488676  1  -1.126079  0  -0.242978  -0.467397  0  2.197688  0
F  F128  1  0.32307749  0.51224053  0.70156942  1  -0.611733  0  -0.081022  -0.100225  0  1.394913  0
F  F129  1  0.82305476  0.98775561  0.79843955  1  -0.612085  0  -0.081121  -0.100308  0  1.395022  0
F  F130  1  0.67694483  0.48772057  0.29842805  1  -0.611641  0  -0.08111  -0.100248  0  1.394659  0
F  F131  1  0.17693606  0.01224613  0.20156193  1  -0.612116  0  -0.08111  -0.100283  0  1.395007  0
F  F132  1  0.21297354  0.60462129  0.58319945  1  -0.609657  0  -0.068103  -0.081382  0  1.423864  0
F  F133  1  0.71292847  0.89538227  0.91680631  1  -0.609673  0  -0.068126  -0.081309  0  1.42388  0
F  F134  1  0.78707071  0.39537185  0.41680636  1  -0.609951  0  -0.068017  -0.081149  0  1.424044  0
F  F135  1  0.28705550  0.10462440  0.08319797  1  -0.609801  0  -0.068081  -0.081293  0  1.423897  0
F  F136  1  0.29787216  0.37335380  0.38604441  1  -0.612436  0  -0.06125  -0.0824  0  1.436525  0
F  F137  1  0.79788221  0.12666161  0.11395213  1  -0.612323  0  -0.061324  -0.082267  0  1.435992  0
F  F138  1  0.70203645  0.62663252  0.61394987  1  -0.612179  0  -0.061291  -0.082293  0  1.436203  0
F  F139  1  0.20210449  0.87335732  0.88604131  1  -0.612447  0  -0.061326  -0.082244  0  1.436189  0
F  F140  1  0.41346210  0.28540916  0.50657926  1  -0.606008  0  -0.06784  -0.074225  0  1.404157  0
F  F141  1  0.91346762  0.21459411  0.99342013  1  -0.606089  0  -0.067824  -0.077161  0  1.406683  0
F  F142  1  0.58650816  0.71456784  0.49339963  1  -0.605981  0  -0.067734  -0.074031  0  1.404357  0
F  F143  1  0.08650401  0.78541741  0.00656850  1  -0.605964  0  -0.067762  -0.076968  0  1.406821  0
F  F144  1  0.23963916  0.11411386  0.44801765  1  -0.613547  0  -0.069408  -0.08444  0  1.425576  0
F  F145  1  0.73968947  0.38590283  0.05199122  1  -0.61363  0  -0.069314  -0.084215  0  1.425557  0
F  F146  1  0.76033110  0.88588533  0.55196768  1  -0.613595  0  -0.069297  -0.084379  0  1.425705  0
F  F147  1  0.26032052  0.61410704  0.94803724  1  -0.613466  0  -0.069268  -0.084243  0  1.425341  0
F  F148  1  0.78523521  0.03448490  0.63613144  1  -0.624314  0  -0.080415  -0.110012  0  1.406802  0
F  F149  1  0.28523374  0.46549921  0.86387869  1  -0.624139  0  -0.08034  -0.109873  0  1.407007  0
F  F150  1  0.21476520  0.96551189  0.36386663  1  -0.62441  0  -0.080403  -0.109983  0  1.407051  0
F  F151  1  0.71479407  0.53450568  0.13613837  1  -0.62461  0  -0.080455  -0.110017  0  1.40707  0
