# generated using pymatgen
data_CaH10C4(N4O3)2
_symmetry_space_group_name_H-M   'P 1'
_cell_length_a   7.52203899
_cell_length_b   7.62286298
_cell_length_c   11.05915427
_cell_angle_alpha   75.67005004
_cell_angle_beta   87.52262798
_cell_angle_gamma   61.97309916
_symmetry_Int_Tables_number   1
_chemical_formula_structural   CaH10C4(N4O3)2
_chemical_formula_sum   'Ca2 H20 C8 N16 O12'
_cell_volume   540.36091331
_cell_formula_units_Z   2
loop_
 _symmetry_equiv_pos_site_id
 _symmetry_equiv_pos_as_xyz
  1  'x, y, z'
loop_
 _atom_site_type_symbol
 _atom_site_label
 _atom_site_symmetry_multiplicity
 _atom_site_fract_x
 _atom_site_fract_y
 _atom_site_fract_z
 _atom_site_occupancy
 _atom_site_hle17_bader_spin_density
 _atom_site_hle17_ddec_charge
 _atom_site_hle17_ddec_spin_density
 _atom_site_hle17_ddec_sum_bond_order
 _atom_site_hle17_magmom
 _atom_site_hse06_10hf_bader_spin_density
 _atom_site_hse06_10hf_ddec_charge
 _atom_site_hse06_10hf_ddec_spin_density
 _atom_site_hse06_10hf_ddec_sum_bond_order
 _atom_site_hse06_10hf_magmom
 _atom_site_hse06_bader_spin_density
 _atom_site_hse06_ddec_charge
 _atom_site_hse06_ddec_spin_density
 _atom_site_hse06_ddec_sum_bond_order
 _atom_site_hse06_magmom
 _atom_site_pbe_bader_spin_density
 _atom_site_pbe_cm5_charge
 _atom_site_pbe_ddec_charge
 _atom_site_pbe_ddec_spin_density
 _atom_site_pbe_ddec_sum_bond_order
 _atom_site_pbe_magmom
Ca  Ca0  1  0.70247367  0.23738592  0.45475437  1  0  1.55342  0  1.014785  0  0  1.424289  0  1.343814  0  0  1.465081  0  1.302011  0  0  0.826856  1.393105  0  1.373943  0
Ca  Ca1  1  0.29752670  0.76261327  0.54524551  1  0  1.553411  0  1.014799  0  0  1.424271  0  1.343834  0  0  1.46507  0  1.302025  0  0  0.826861  1.393092  0  1.373961  0
H  H2  1  0.70591201  0.62955784  0.43533565  1  0  0.421198  0  0.889019  0  0  0.388184  0  0.956317  0  0  0.399132  0  0.940435  0  0  0.305877  0.38043  0  0.967549  0
H  H3  1  0.29408837  0.37044135  0.56466513  1  0  0.421187  0  0.88903  0  0  0.388179  0  0.956325  0  0  0.399121  0  0.940452  0  0  0.305869  0.380425  0  0.967557  0
H  H4  1  0.74854800  0.53966812  0.58124199  1  0  0.401927  0  0.90197  0  0  0.365982  0  0.983586  0  0  0.376134  0  0.969067  0  0  0.302253  0.358723  0  0.993954  0
H  H5  1  0.25145165  0.46033260  0.41875855  1  0  0.401917  0  0.901994  0  0  0.365972  0  0.983606  0  0  0.376123  0  0.969086  0  0  0.302254  0.358712  0  0.993974  0
H  H6  1  0.46767717  0.29102682  0.04377927  1  0  0.110965  0  0.963564  0  0  0.110378  0  1.04342  0  0  0.114068  0  1.039024  0  0  0.137706  0.107652  0  1.046591  0
H  H7  1  0.53232442  0.70897545  0.95622095  1  0  0.110979  0  0.963594  0  0  0.110392  0  1.04344  0  0  0.114083  0  1.039042  0  0  0.137704  0.107667  0  1.046611  0
H  H8  1  0.12691138  0.61620395  0.99030821  1  0  0.104504  0  0.980184  0  0  0.105095  0  1.059574  0  0  0.108601  0  1.055374  0  0  0.135386  0.102447  0  1.062788  0
H  H9  1  0.87308888  0.38379831  0.00969114  1  0  0.104514  0  0.980171  0  0  0.105112  0  1.059549  0  0  0.108619  0  1.055345  0  0  0.135375  0.102463  0  1.06276  0
H  H10  1  0.11095039  0.19001694  0.55842038  1  0  0.418144  0  0.889782  0  0  0.388344  0  0.950937  0  0  0.398809  0  0.935883  0  0  0.307543  0.380968  0  0.961529  0
H  H11  1  0.88904926  0.80998378  0.44157926  1  0  0.418137  0  0.889785  0  0  0.388326  0  0.950958  0  0  0.398797  0  0.935897  0  0  0.307542  0.38095  0  0.961551  0
H  H12  1  0.09509976  0.24670700  0.41200653  1  0  0.408411  0  0.886036  0  0  0.370582  0  0.971187  0  0  0.38153  0  0.955119  0  0  0.304965  0.362706  0  0.982754  0
H  H13  1  0.90490061  0.75329219  0.58799335  1  0  0.408444  0  0.885989  0  0  0.370616  0  0.971139  0  0  0.381565  0  0.955069  0  0  0.304979  0.36274  0  0.982705  0
H  H14  1  0.60229105  0.00983602  0.31771701  1  0  0.422108  0  0.88305  0  0  0.388244  0  0.95224  0  0  0.398916  0  0.936435  0  0  0.297641  0.38068  0  0.963437  0
H  H15  1  0.39770871  0.99016162  0.68228405  1  0  0.422151  0  0.882993  0  0  0.388249  0  0.952259  0  0  0.398922  0  0.936451  0  0  0.297627  0.380686  0  0.963457  0
H  H16  1  0.41316078  0.22979756  0.27594348  1  0  0.397915  0  0.918261  0  0  0.358827  0  0.998076  0  0  0.369603  0  0.982038  0  0  0.293131  0.351154  0  1.009486  0
H  H17  1  0.58683959  0.77020163  0.72405730  1  0  0.3979  0  0.91828  0  0  0.358819  0  0.998083  0  0  0.369595  0  0.982046  0  0  0.293122  0.351148  0  1.009491  0
H  H18  1  0.03281957  0.05367741  0.27003048  1  0  0.422307  0  0.880241  0  0  0.386386  0  0.953196  0  0  0.397585  0  0.936703  0  0  0.294552  0.378489  0  0.96478  0
H  H19  1  0.96718213  0.94632177  0.72996845  1  0  0.422318  0  0.880225  0  0  0.38639  0  0.953195  0  0  0.39759  0  0.936699  0  0  0.294559  0.378494  0  0.964776  0
H  H20  1  0.82671552  0.25940341  0.20371705  1  0  0.38818  0  0.932637  0  0  0.347154  0  1.016224  0  0  0.358007  0  1.000064  0  0  0.287872  0.339526  0  1.027533  0
H  H21  1  0.17328690  0.74059424  0.79628303  1  0  0.388129  0  0.932715  0  0  0.347098  0  1.016311  0  0  0.357953  0  1.000149  0  0  0.287839  0.339471  0  1.027619  0
C  C22  1  0.61077289  0.25584139  0.76038529  1  0  0.596974  0  3.863376  0  0  0.531777  0  4.169758  0  0  0.561832  0  4.172763  0  0  0.321379  0.511369  0  4.167001  0
C  C23  1  0.38922809  0.74415934  0.23961521  1  0  0.59698  0  3.863414  0  0  0.53178  0  4.169801  0  0  0.561834  0  4.172804  0  0  0.32136  0.51137  0  4.16704  0
C  C24  1  0.48701324  0.31296630  0.94447258  1  0  0.101199  0  3.716635  0  0  0.031048  0  4.012058  0  0  0.042189  0  4.026486  0  0  0.129766  0.024063  0  4.001811  0
C  C25  1  0.51298774  0.68703442  0.05552701  1  0  0.101168  0  3.716658  0  0  0.031027  0  4.012077  0  0  0.042167  0  4.026505  0  0  0.129771  0.024038  0  4.001831  0
C  C26  1  0.92228488  0.66755039  0.25661246  1  0  0.599672  0  3.857285  0  0  0.522344  0  4.171274  0  0  0.55197  0  4.172771  0  0  0.326433  0.50252  0  4.169597  0
C  C27  1  0.07771683  0.33244880  0.74338738  1  0  0.599678  0  3.857384  0  0  0.522364  0  4.171377  0  0  0.551974  0  4.172879  0  0  0.326422  0.50254  0  4.169703  0
C  C28  1  0.08692246  0.60014066  0.08625583  1  0  0.110808  0  3.69231  0  0  0.04203  0  3.985533  0  0  0.05305  0  4.00019  0  0  0.134822  0.034838  0  3.975865  0
C  C29  1  0.91307719  0.39986006  0.91374381  1  0  0.110799  0  3.692309  0  0  0.04202  0  3.985544  0  0  0.053042  0  4.000199  0  0  0.134811  0.034831  0  3.975874  0
N  N30  1  0.45296530  0.44678639  0.74036856  1  0  -0.460004  0  2.958809  0  0  -0.418997  0  3.245519  0  0  -0.438495  0  3.259486  0  0  -0.292105  -0.405317  0  3.235636  0
N  N31  1  0.54703508  0.55321279  0.25963132  1  0  -0.460027  0  2.958825  0  0  -0.419021  0  3.245539  0  0  -0.438519  0  3.259507  0  0  -0.292106  -0.405342  0  3.235655  0
N  N32  1  0.37916619  0.47730227  0.85493724  1  0  -0.22945  0  3.136359  0  0  -0.186965  0  3.419438  0  0  -0.197337  0  3.43753  0  0  -0.223709  -0.179717  0  3.40673  0
N  N33  1  0.62083479  0.52269846  0.14506236  1  0  -0.229425  0  3.136359  0  0  -0.186941  0  3.419428  0  0  -0.197312  0  3.437521  0  0  -0.2237  -0.179691  0  3.406719  0
N  N34  1  0.63564456  0.16784456  0.89244035  1  0  -0.127445  0  3.537288  0  0  -0.046821  0  3.782763  0  0  -0.067752  0  3.804127  0  0  -0.125495  -0.032775  0  3.768062  0
N  N35  1  0.36435642  0.83215617  0.10755924  1  0  -0.127442  0  3.537333  0  0  -0.046818  0  3.782804  0  0  -0.067748  0  3.804169  0  0  -0.125504  -0.03277  0  3.7681  0
N  N36  1  0.78592838  0.97750092  0.94902429  1  0  -0.023973  0  2.94242  0  0  -0.028685  0  3.241358  0  0  -0.018816  0  3.243286  0  0  -0.035733  -0.035768  0  3.240706  0
N  N37  1  0.21407260  0.02249981  0.05097530  1  0  -0.024021  0  2.94248  0  0  -0.028735  0  3.241448  0  0  -0.018868  0  3.243377  0  0  -0.035748  -0.035817  0  3.240794  0
N  N38  1  0.76800498  0.93302422  0.06535720  1  0  -0.016438  0  2.960181  0  0  -0.024308  0  3.266241  0  0  -0.014233  0  3.267859  0  0  -0.036272  -0.031569  0  3.265924  0
N  N39  1  0.23199467  0.06697650  0.93464334  1  0  -0.016363  0  2.960194  0  0  -0.02425  0  3.266268  0  0  -0.014175  0  3.267889  0  0  -0.036263  -0.031511  0  3.265952  0
N  N40  1  0.91835983  0.74604259  0.12639589  1  0  -0.117616  0  3.540602  0  0  -0.036291  0  3.787746  0  0  -0.057114  0  3.810177  0  0  -0.121758  -0.022429  0  3.772471  0
N  N41  1  0.08164116  0.25395814  0.87360461  1  0  -0.117664  0  3.540595  0  0  -0.036322  0  3.787743  0  0  -0.057148  0  3.810183  0  0  -0.121747  -0.022459  0  3.77247  0
N  N42  1  0.08818222  0.48338179  0.28945826  1  0  -0.435561  0  2.988468  0  0  -0.377363  0  3.252533  0  0  -0.394154  0  3.260332  0  0  -0.246972  -0.365921  0  3.247361  0
N  N43  1  0.91181876  0.51661894  0.71054223  1  0  -0.435577  0  2.988503  0  0  -0.377379  0  3.252569  0  0  -0.394176  0  3.260381  0  0  -0.246984  -0.365935  0  3.247398  0
N  N44  1  0.18820263  0.44474063  0.18232370  1  0  -0.215335  0  3.068659  0  0  -0.181682  0  3.348552  0  0  -0.190742  0  3.363439  0  0  -0.222523  -0.17565  0  3.338766  0
N  N45  1  0.81179631  0.55526163  0.81767569  1  0  -0.215328  0  3.0687  0  0  -0.181677  0  3.348597  0  0  -0.190736  0  3.363481  0  0  -0.222479  -0.175646  0  3.338812  0
O  O46  1  0.72017193  0.16221292  0.68369191  1  0  -0.655281  0  1.999278  0  0  -0.587488  0  2.233858  0  0  -0.615338  0  2.226022  0  0  -0.331248  -0.56735  0  2.238537  0
O  O47  1  0.27982845  0.83778627  0.31630797  1  0  -0.655285  0  1.999306  0  0  -0.587489  0  2.233882  0  0  -0.615336  0  2.226041  0  0  -0.33124  -0.567352  0  2.238558  0
O  O48  1  0.79053414  0.76007890  0.32540401  1  0  -0.639203  0  2.135851  0  0  -0.566187  0  2.361203  0  0  -0.592204  0  2.352346  0  0  -0.288023  -0.547998  0  2.366956  0
O  O49  1  0.20946818  0.23992184  0.67459735  1  0  -0.639209  0  2.135925  0  0  -0.566225  0  2.361325  0  0  -0.592193  0  2.352432  0  0  -0.288024  -0.548036  0  2.367081  0
O  O50  1  0.66509870  0.55365907  0.50838596  1  0  -0.908832  0  1.934089  0  0  -0.850714  0  2.147894  0  0  -0.873434  0  2.117943  0  0  -0.621029  -0.834037  0  2.168655  0
O  O51  1  0.33490168  0.44634012  0.49161392  1  0  -0.908821  0  1.934132  0  0  -0.85069  0  2.147892  0  0  -0.873423  0  2.117972  0  0  -0.621028  -0.834014  0  2.168655  0
O  O52  1  0.07365663  0.15556127  0.48566352  1  0  -0.8751  0  1.87471  0  0  -0.808563  0  2.07436  0  0  -0.831227  0  2.043817  0  0  -0.605145  -0.792121  0  2.095684  0
O  O53  1  0.92634435  0.84443945  0.51433517  1  0  -0.875112  0  1.874661  0  0  -0.808571  0  2.074308  0  0  -0.831235  0  2.043756  0  0  -0.605161  -0.792129  0  2.095632  0
O  O54  1  0.50965738  0.12997657  0.34838609  1  0  -0.871344  0  1.841379  0  0  -0.817659  0  2.030788  0  0  -0.836547  0  1.999046  0  0  -0.627556  -0.803779  0  2.052898  0
O  O55  1  0.49034371  0.87002108  0.65161494  1  0  -0.871356  0  1.841314  0  0  -0.817649  0  2.030704  0  0  -0.836541  0  1.998968  0  0  -0.627523  -0.803776  0  2.052831  0
O  O56  1  0.88682316  0.13775033  0.27599728  1  0  -0.882132  0  1.901436  0  0  -0.828919  0  2.104439  0  0  -0.849101  0  2.0725  0  0  -0.628615  -0.814218  0  2.126494  0
O  O57  1  0.11317876  0.86224269  0.72400090  1  0  -0.882099  0  1.901478  0  0  -0.828872  0  2.104479  0  0  -0.849057  0  2.072539  0  0  -0.628587  -0.814169  0  2.126527  0
