# generated using pymatgen
data_Cu2MoH40C32(N2O)4
_symmetry_space_group_name_H-M   'P 1'
_cell_length_a   9.85526007
_cell_length_b   13.58648793
_cell_length_c   15.06888654
_cell_angle_alpha   101.97007544
_cell_angle_beta   103.54834612
_cell_angle_gamma   104.63190465
_symmetry_Int_Tables_number   1
_chemical_formula_structural   Cu2MoH40C32(N2O)4
_chemical_formula_sum   'Cu4 Mo2 H80 C64 N16 O8'
_cell_volume   1820.12439898
_cell_formula_units_Z   2
loop_
 _symmetry_equiv_pos_site_id
 _symmetry_equiv_pos_as_xyz
  1  'x, y, z'
loop_
 _atom_site_type_symbol
 _atom_site_label
 _atom_site_symmetry_multiplicity
 _atom_site_fract_x
 _atom_site_fract_y
 _atom_site_fract_z
 _atom_site_occupancy
 _atom_site_pbe_bader_charge
 _atom_site_pbe_bader_spin_density
 _atom_site_pbe_cm5_charge
 _atom_site_pbe_ddec_charge
 _atom_site_pbe_ddec_spin_density
 _atom_site_pbe_ddec_sum_bond_order
 _atom_site_pbe_magmom
Cu  Cu0  1  0.07819947  0.82760983  0.02009497  1  0.658821  0  0.511091  0.359307  0  2.247663  0
Cu  Cu1  1  0.92180078  0.17238098  0.97990864  1  0.658817  0  0.511082  0.359326  0  2.247816  0
Cu  Cu2  1  0.59678086  0.48059054  0.94047391  1  0.74628  0  0.540695  0.447096  0  2.378978  0
Cu  Cu3  1  0.40322754  0.51942065  0.05952069  1  0.74601  0  0.54065  0.447125  0  2.378911  0
Mo  Mo4  1  0.74822366  0.74242529  0.08888380  1  2.48175  0  1.397976  1.964393  0  4.995965  0
Mo  Mo5  1  0.25178343  0.25757850  0.91111634  1  2.4822  0  1.39812  1.964852  0  4.995989  0
H  H6  1  0.69274524  0.66275948  0.87163955  1  0.131711  0  0.111749  0.079183  0  1.049419  0
H  H7  1  0.30725343  0.33724662  0.12836036  1  0.131707  0  0.111768  0.079179  0  1.049408  0
H  H8  1  0.58202455  0.73334771  0.74256020  1  0.070961  0  0.099668  0.102633  0  1.041954  0
H  H9  1  0.41797849  0.26665857  0.25743647  1  0.070878  0  0.099683  0.102651  0  1.041984  0
H  H10  1  0.33088872  0.39020209  0.77984575  1  0.151098  0  0.112439  0.08845  0  1.049319  0
H  H11  1  0.66912274  0.60979470  0.22015099  1  0.151117  0  0.112475  0.088508  0  1.049346  0
H  H12  1  0.21500327  0.44436801  0.64039091  1  0.088862  0  0.109003  0.116994  0  1.015277  0
H  H13  1  0.78498801  0.55563561  0.35960924  1  0.088884  0  0.108978  0.116957  0  1.015393  0
H  H14  1  0.24379479  0.67632666  0.62560340  1  0.032203  0  0.107805  0.087783  0  0.980531  0
H  H15  1  0.75620009  0.32367786  0.37439489  1  0.032305  0  0.107837  0.087812  0  0.980578  0
H  H16  1  0.40185480  0.69489693  0.58681574  1  0.035837  0  0.093843  0.067335  0  1.012662  0
H  H17  1  0.59813771  0.30510444  0.41318082  1  0.035959  0  0.093812  0.067311  0  1.012743  0
H  H18  1  0.38103458  0.46960451  0.51838481  1  0.051701  0  0.10067  0.074666  0  1.024117  0
H  H19  1  0.61896766  0.53040436  0.48160629  1  0.051446  0  0.100662  0.074599  0  1.024064  0
H  H20  1  0.39039619  0.55637921  0.44417544  1  0.004284  0  0.089117  0.053224  0  1.014929  0
H  H21  1  0.60958530  0.44363260  0.55581619  1  0.004416  0  0.089077  0.053169  0  1.01481  0
H  H22  1  0.28654212  0.37199621  0.34586443  1  0.034162  0  0.098122  0.074604  0  1.014604  0
H  H23  1  0.71345985  0.62801672  0.65412483  1  0.036989  0  0.098113  0.074554  0  1.014668  0
H  H24  1  0.14933224  0.34507272  0.40487884  1  0.011324  0  0.087681  0.050945  0  0.995198  0
H  H25  1  0.85067141  0.65492740  0.59511200  1  0.01115  0  0.087703  0.050955  0  0.995225  0
H  H26  1  0.20402949  0.65125697  0.42464931  1  0.009565  0  0.089691  0.05782  0  0.994077  0
H  H27  1  0.79594560  0.34874802  0.57535179  1  0.009358  0  0.089752  0.05776  0  0.994357  0
H  H28  1  0.06404682  0.62261830  0.48125485  1  0.028209  0  0.10226  0.077177  0  0.993646  0
H  H29  1  0.93592403  0.37736459  0.51873894  1  0.028483  0  0.102232  0.077155  0  0.993519  0
H  H30  1  0.95861964  0.44102231  0.38212912  1  0.030351  0  0.090176  0.055219  0  1.032494  0
H  H31  1  0.04137857  0.55896375  0.61787315  1  0.030342  0  0.090178  0.055202  0  1.032365  0
H  H32  1  0.97314798  0.52744984  0.30828931  1  0.036871  0  0.104255  0.086554  0  0.996658  0
H  H33  1  0.02682375  0.47253770  0.69170826  1  0.037155  0  0.104271  0.08659  0  0.996591  0
H  H34  1  0.96338509  0.28926181  0.25642489  1  0.005999  0  0.085675  0.048377  0  1.004029  0
H  H35  1  0.03660232  0.71073727  0.74356771  1  0.005989  0  0.085694  0.048392  0  1.004071  0
H  H36  1  0.10164950  0.31640858  0.19963786  1  0.046451  0  0.106885  0.094646  0  0.986831  0
H  H37  1  0.89833898  0.68358813  0.80035442  1  0.046424  0  0.106891  0.094696  0  0.986829  0
H  H38  1  0.73243346  0.25204993  0.14439474  1  0.050069  0  0.103974  0.111283  0  1.001111  0
H  H39  1  0.26754075  0.74795999  0.85560260  1  0.050274  0  0.103968  0.111268  0  1.000997  0
H  H40  1  0.56767322  0.30127040  0.02094345  1  0.139191  0  0.110853  0.088084  0  1.049236  0
H  H41  1  0.43232095  0.69874925  0.97905523  1  0.139327  0  0.110787  0.088087  0  1.049271  0
H  H42  1  0.09067099  0.51543752  0.15070700  1  0.079578  0  0.105903  0.110865  0  1.024313  0
H  H43  1  0.90933365  0.48456067  0.84929290  1  0.07953  0  0.105885  0.110832  0  1.024442  0
H  H44  1  0.90989733  0.55854955  0.03049749  1  0.123707  0  0.110294  0.084173  0  1.049096  0
H  H45  1  0.09010957  0.44146126  0.96950674  1  0.123807  0  0.110314  0.084184  0  1.048952  0
H  H46  1  0.05790698  0.72209389  0.16316049  1  0.137745  0  0.114591  0.086476  0  1.03847  0
H  H47  1  0.94208476  0.27789916  0.83684484  1  0.13785  0  0.114561  0.086528  0  1.038298  0
H  H48  1  0.23260417  0.68327234  0.29100098  1  0.077673  0  0.106234  0.112844  0  1.020504  0
H  H49  1  0.76738030  0.31671593  0.70900215  1  0.078016  0  0.10631  0.112947  0  1.020222  0
H  H50  1  0.40142003  0.88342837  0.07982498  1  0.097016  0  0.11709  0.089962  0  0.988266  0
H  H51  1  0.59858109  0.11656230  0.92018272  1  0.097213  0  0.117095  0.089788  0  0.988424  0
H  H52  1  0.58728317  0.85160737  0.20252432  1  0.116643  0  0.108402  0.121443  0  1.02822  0
H  H53  1  0.41270409  0.14839069  0.79749460  1  0.116226  0  0.108386  0.121455  0  1.02816  0
H  H54  1  0.48437828  0.66019312  0.33519380  1  0.025666  0  0.102818  0.085057  0  0.996529  0
H  H55  1  0.51561641  0.33979499  0.66481630  1  0.025457  0  0.102798  0.085007  0  0.996583  0
H  H56  1  0.63423011  0.74368720  0.31052565  1  0.064269  0  0.098742  0.083283  0  1.006677  0
H  H57  1  0.36575769  0.25629886  0.68947358  1  0.064192  0  0.098716  0.083315  0  1.006651  0
H  H58  1  0.60715153  0.95291316  0.38727508  1  0.037335  0  0.098261  0.075382  0  0.992152  0
H  H59  1  0.39284268  0.04708261  0.61272259  1  0.037331  0  0.098255  0.075381  0  0.992143  0
H  H60  1  0.76783580  0.91413264  0.41957736  1  0.03386  0  0.094749  0.070234  0  0.969778  0
H  H61  1  0.23216186  0.08586391  0.58042170  1  0.033922  0  0.094719  0.070227  0  0.969794  0
H  H62  1  0.74926300  0.75939090  0.48690141  1  -0.001783  0  0.090338  0.05911  0  0.981671  0
H  H63  1  0.25074190  0.24060801  0.51310067  1  -0.002026  0  0.0903  0.05903  0  0.981581  0
H  H64  1  0.57250752  0.68989190  0.49178556  1  0.044115  0  0.094538  0.06392  0  1.029565  0
H  H65  1  0.42749889  0.31010842  0.50822171  1  0.044074  0  0.094539  0.063872  0  1.029741  0
H  H66  1  0.57480407  0.84377285  0.61246029  1  -0.019502  0  0.081189  0.037795  0  1.012773  0
H  H67  1  0.42521254  0.15623397  0.38754670  1  -0.019654  0  0.081168  0.037767  0  1.012881  0
H  H68  1  0.73510865  0.80589820  0.65054340  1  0.031647  0  0.097022  0.072259  0  1.018898  0
H  H69  1  0.26490853  0.19410722  0.34945874  1  0.031935  0  0.097041  0.072292  0  1.018815  0
H  H70  1  0.78395009  0.06834336  0.54477581  1  0.061294  0  0.107078  0.090437  0  0.956225  0
H  H71  1  0.21604417  0.93165723  0.45522088  1  0.061058  0  0.107061  0.090427  0  0.95619  0
H  H72  1  0.60622476  0.00535907  0.55173307  1  0.019759  0  0.087654  0.052593  0  1.01611  0
H  H73  1  0.39377773  0.99463906  0.44826779  1  0.019715  0  0.087623  0.052544  0  1.016097  0
H  H74  1  0.70888002  0.03120523  0.71683820  1  0.006868  0  0.086348  0.053946  0  1.018403  0
H  H75  1  0.29115790  0.96880970  0.28317134  1  0.006615  0  0.086367  0.05398  0  1.018432  0
H  H76  1  0.88774081  0.09312279  0.70932885  1  0.099029  0  0.110583  0.108485  0  0.980061  0
H  H77  1  0.11230110  0.90687664  0.29067014  1  0.099002  0  0.110636  0.108557  0  0.979894  0
H  H78  1  0.68519891  0.93204044  0.82920344  1  0.042292  0  0.105436  0.113012  0  0.999865  0
H  H79  1  0.31480702  0.06794740  0.17077591  1  0.04206  0  0.105483  0.113025  0  0.99996  0
H  H80  1  0.09378581  0.01074465  0.76200631  1  0.120483  0  0.113887  0.133197  0  0.992303  0
H  H81  1  0.90624780  0.98925102  0.23800513  1  0.120206  0  0.113833  0.133149  0  0.992183  0
H  H82  1  0.19821220  0.93745091  0.89102584  1  0.100883  0  0.115875  0.086932  0  0.991076  0
H  H83  1  0.80180032  0.06254691  0.10898590  1  0.100996  0  0.115957  0.086993  0  0.990914  0
H  H84  1  0.80129036  0.85742709  0.95258440  1  0.162217  0  0.108743  0.086736  0  1.068651  0
H  H85  1  0.19870804  0.14257110  0.04741380  1  0.16246  0  0.108757  0.086796  0  1.068683  0
C  C86  1  0.38752893  0.59433377  0.67956672  1  -0.024268  0  0.001998  0.128522  0  3.95457  0
C  C87  1  0.61246716  0.40567139  0.32043588  1  -0.024394  0  0.002046  0.128496  0  3.95472  0
C  C88  1  0.58577190  0.61744498  0.81944412  1  0.445325  0  0.0386  0.0868  0  3.936744  0
C  C89  1  0.41422831  0.38256204  0.18055290  1  0.44586  0  0.038555  0.086856  0  3.936758  0
C  C90  1  0.52313446  0.65572885  0.74683189  1  -0.094268  0  -0.095145  -0.188498  0  3.964696  0
C  C91  1  0.47686738  0.34427489  0.25316804  1  -0.094565  0  -0.095149  -0.188483  0  3.964696  0
C  C92  1  0.38540138  0.46435404  0.76748582  1  0.470807  0  0.04181  0.098722  0  3.911369  0
C  C93  1  0.61460379  0.53564989  0.23251005  1  0.470789  0  0.041742  0.09852  0  3.911545  0
C  C94  1  0.31955080  0.49623314  0.69128021  1  -0.040771  0  -0.088634  -0.182006  0  3.951676  0
C  C95  1  0.68045152  0.50376963  0.30872424  1  -0.040825  0  -0.08863  -0.181837  0  3.951639  0
C  C96  1  0.31617368  0.63431690  0.60048569  1  0.300526  0  -0.061221  -0.110633  0  3.970753  0
C  C97  1  0.68381984  0.36568445  0.39951171  1  0.300769  0  -0.061198  -0.110687  0  3.971015  0
C  C98  1  0.31417586  0.49888283  0.46741615  1  0.278885  0  -0.070963  -0.078122  0  3.94819  0
C  C99  1  0.68581690  0.50112883  0.53258262  1  0.2788  0  -0.070939  -0.078036  0  3.947709  0
C  C100  1  0.21719899  0.40728467  0.38110216  1  0.316346  0  -0.070829  -0.072792  0  3.958192  0
C  C101  1  0.78280553  0.59272248  0.61889295  1  0.313634  0  -0.070864  -0.072819  0  3.958213  0
C  C102  1  0.13473088  0.58814116  0.44658149  1  0.315525  0  -0.06573  -0.072384  0  3.948871  0
C  C103  1  0.86524079  0.41185063  0.55340965  1  0.315193  0  -0.065764  -0.072334  0  3.948772  0
C  C104  1  0.03750264  0.49700434  0.35948784  1  0.287831  0  -0.073325  -0.084999  0  3.947678  0
C  C105  1  0.96247993  0.50298887  0.64051070  1  0.287173  0  -0.073325  -0.085146  0  3.947553  0
C  C106  1  0.02954508  0.35182598  0.23222201  1  0.321298  0  -0.061925  -0.101541  0  3.959325  0
C  C107  1  0.97043928  0.64817076  0.76776827  1  0.321179  0  -0.061972  -0.101717  0  3.959386  0
C  C108  1  0.92661373  0.37952930  0.15786961  1  -0.001253  0  0.003524  0.126474  0  3.970011  0
C  C109  1  0.07336153  0.62046817  0.84211998  1  -0.000665  0  0.003503  0.126496  0  3.970138  0
C  C110  1  0.77746463  0.31980147  0.11999672  1  -0.030826  0  -0.094685  -0.202928  0  3.994869  0
C  C111  1  0.22250642  0.68019835  0.87999268  1  -0.031375  0  -0.094667  -0.202995  0  3.994952  0
C  C112  1  0.68427215  0.34677709  0.05126272  1  0.441212  0  0.0364  0.098709  0  3.909323  0
C  C113  1  0.31571317  0.65323872  0.94872971  1  0.441082  0  0.036474  0.098742  0  3.909006  0
C  C114  1  0.97545836  0.46629954  0.12407794  1  -0.02129  0  -0.083846  -0.162014  0  3.928849  0
C  C115  1  0.02453777  0.53369560  0.87591593  1  -0.021606  0  -0.083807  -0.161994  0  3.928837  0
C  C116  1  0.87631341  0.48979457  0.05627266  1  0.440805  0  0.035551  0.073557  0  3.93769  0
C  C117  1  0.12369784  0.51021402  0.94372851  1  0.440966  0  0.035528  0.073596  0  3.937675  0
C  C118  1  0.17637958  0.74900450  0.17502008  1  0.397023  0  0.042046  0.098269  0  3.902926  0
C  C119  1  0.82361266  0.25098758  0.82498978  1  0.39744  0  0.04206  0.098144  0  3.902626  0
C  C120  1  0.27444765  0.72898760  0.24614517  1  -0.033218  0  -0.082558  -0.176428  0  3.943082  0
C  C121  1  0.72554110  0.27100127  0.75386411  1  -0.033977  0  -0.082567  -0.176349  0  3.942867  0
C  C122  1  0.36765790  0.84063742  0.12868919  1  0.444868  0  0.040468  0.078912  0  3.969115  0
C  C123  1  0.63234013  0.15935617  0.87132460  1  0.44443  0  0.040498  0.079335  0  3.968893  0
C  C124  1  0.47157109  0.82310751  0.19829357  1  -0.039648  0  -0.082908  -0.182094  0  3.951809  0
C  C125  1  0.52841707  0.17688754  0.80172089  1  -0.039307  0  -0.082959  -0.182242  0  3.951365  0
C  C126  1  0.42562969  0.76552562  0.25863681  1  0.029214  0  0.014515  0.145133  0  3.954997  0
C  C127  1  0.57435792  0.23446317  0.74137425  1  0.029644  0  0.014527  0.145194  0  3.954654  0
C  C128  1  0.53402824  0.74136975  0.33259265  1  0.30783  0  -0.066822  -0.120617  0  3.946392  0
C  C129  1  0.46596836  0.25862010  0.66741414  1  0.30804  0  -0.066764  -0.120609  0  3.946421  0
C  C130  1  0.66622872  0.91874509  0.43782167  1  0.277193  0  -0.070096  -0.075113  0  3.938327  0
C  C131  1  0.33376811  0.08125455  0.56217989  1  0.277132  0  -0.070057  -0.075072  0  3.93826  0
C  C132  1  0.64541247  0.76898755  0.49878799  1  0.302697  0  -0.072522  -0.078643  0  3.978469  0
C  C133  1  0.35459664  0.23101380  0.50121397  1  0.303305  0  -0.072517  -0.078524  0  3.978396  0
C  C134  1  0.68000386  0.84011939  0.59844451  1  0.306496  0  -0.07505  -0.080229  0  3.981158  0
C  C135  1  0.32000956  0.15988448  0.40155536  1  0.306356  0  -0.075011  -0.080135  0  3.981007  0
C  C136  1  0.70682409  0.99099754  0.53822674  1  0.268472  0  -0.067831  -0.073839  0  3.951657  0
C  C137  1  0.29317732  0.00900056  0.46177460  1  0.268699  0  -0.067797  -0.073742  0  3.951476  0
C  C138  1  0.81013835  0.01667958  0.70476068  1  0.303481  0  -0.066615  -0.115857  0  3.945417  0
C  C139  1  0.18989615  0.98331974  0.29523905  1  0.303471  0  -0.066723  -0.115826  0  3.945212  0
C  C140  1  0.87830750  0.97376821  0.78204161  1  -0.076282  0  0.010627  0.139276  0  3.960978  0
C  C141  1  0.12172246  0.02623268  0.21795770  1  -0.076035  0  0.010659  0.139378  0  3.960945  0
C  C142  1  0.79840304  0.93213228  0.83869088  1  0.060085  0  -0.091317  -0.201267  0  4.004003  0
C  C143  1  0.20161140  0.06786628  0.16130207  1  0.02435  0  -0.09138  -0.201413  0  4.004388  0
C  C144  1  0.02455385  0.97462714  0.80083800  1  -0.027099  0  -0.078957  -0.172561  0  3.934459  0
C  C145  1  0.97547586  0.02537114  0.19916670  1  -0.026628  0  -0.078914  -0.172596  0  3.93417  0
C  C146  1  0.08304819  0.93349587  0.87240924  1  0.454761  0  0.041652  0.086807  0  3.954723  0
C  C147  1  0.91697157  0.06650619  0.12759793  1  0.454921  0  0.041581  0.08676  0  3.954535  0
C  C148  1  0.86216531  0.88994719  0.90773871  1  0.38016  0  0.034388  0.091811  0  3.912933  0
C  C149  1  0.13784957  0.11005275  0.09225992  1  0.415175  0  0.034312  0.091667  0  3.912823  0
N  N150  1  0.73230467  0.43079100  0.01896178  1  -1.223882  0  -0.373567  -0.216111  0  3.682121  0
N  N151  1  0.26770115  0.56921927  0.98103552  1  -1.223458  0  -0.373605  -0.216153  0  3.681977  0
N  N152  1  0.22148274  0.80418020  0.11618070  1  -1.21889  0  -0.380364  -0.220037  0  3.728069  0
N  N153  1  0.77850575  0.19580556  0.88382656  1  -1.219043  0  -0.380424  -0.220318  0  3.728037  0
N  N154  1  0.22570108  0.55002361  0.51412746  1  -1.020396  0  -0.345027  -0.142811  0  3.495727  0
N  N155  1  0.77429016  0.44997706  0.48586610  1  -1.020168  0  -0.345005  -0.142695  0  3.495527  0
N  N156  1  0.12393574  0.44304924  0.31281954  1  -1.027144  0  -0.345241  -0.148093  0  3.459964  0
N  N157  1  0.87605674  0.55694923  0.68716977  1  -1.026794  0  -0.34525  -0.147824  0  3.459913  0
N  N158  1  0.51887286  0.52261317  0.83053453  1  -1.220643  0  -0.37437  -0.222392  0  3.691233  0
N  N159  1  0.48113697  0.47738979  0.16946722  1  -1.220775  0  -0.374279  -0.222419  0  3.691336  0
N  N160  1  0.57096487  0.81262463  0.42847001  1  -1.006004  0  -0.347866  -0.154659  0  3.460667  0
N  N161  1  0.42903915  0.18737731  0.57153588  1  -1.006348  0  -0.347786  -0.154668  0  3.460667  0
N  N162  1  0.77632509  0.94564104  0.60940960  1  -0.99968  0  -0.344867  -0.142664  0  3.454504  0
N  N163  1  0.22368016  0.05435817  0.39058463  1  -0.999532  0  -0.344879  -0.142847  0  3.454282  0
N  N164  1  0.00320528  0.88948085  0.92442207  1  -1.225777  0  -0.380535  -0.220169  0  3.720607  0
N  N165  1  0.99680363  0.11052272  0.07558430  1  -1.225466  0  -0.380534  -0.220057  0  3.720385  0
O  O166  1  0.60672018  0.61509232  0.05131064  1  -1.061694  0  -0.608644  -0.841638  0  2.230584  0
O  O167  1  0.39327201  0.38491546  0.94868523  1  -1.061729  0  -0.608654  -0.841789  0  2.230544  0
O  O168  1  0.82810687  0.77917332  0.21360025  1  -1.003041  0  -0.613489  -0.822083  0  1.627492  0
O  O169  1  0.17191815  0.22082111  0.78639956  1  -1.003051  0  -0.613518  -0.822223  0  1.627526  0
O  O170  1  0.66857571  0.83718263  0.05490090  1  -0.998853  0  -0.606933  -0.814049  0  1.657498  0
O  O171  1  0.33144454  0.16283521  0.94511098  1  -0.998995  0  -0.607012  -0.814169  0  1.657563  0
O  O172  1  0.88400665  0.73030942  0.02870690  1  -1.062507  0  -0.609092  -0.839627  0  2.035673  0
O  O173  1  0.11598762  0.26968111  0.97128171  1  -1.06279  0  -0.609079  -0.83972  0  2.035609  0
