# generated using pymatgen
data_AgH40C31SN2O11F3
_symmetry_space_group_name_H-M   'P 1'
_cell_length_a   8.56001431
_cell_length_b   14.78552818
_cell_length_c   14.96418169
_cell_angle_alpha   98.01450744
_cell_angle_beta   97.07243794
_cell_angle_gamma   91.95701880
_symmetry_Int_Tables_number   1
_chemical_formula_structural   AgH40C31SN2O11F3
_chemical_formula_sum   'Ag2 H80 C62 S2 N4 O22 F6'
_cell_volume   1858.62428008
_cell_formula_units_Z   2
loop_
 _symmetry_equiv_pos_site_id
 _symmetry_equiv_pos_as_xyz
  1  'x, y, z'
loop_
 _atom_site_type_symbol
 _atom_site_label
 _atom_site_symmetry_multiplicity
 _atom_site_fract_x
 _atom_site_fract_y
 _atom_site_fract_z
 _atom_site_occupancy
 _atom_site_pbe_bader_charge
 _atom_site_pbe_bader_spin_density
 _atom_site_pbe_cm5_charge
 _atom_site_pbe_ddec_charge
 _atom_site_pbe_ddec_spin_density
 _atom_site_pbe_ddec_sum_bond_order
 _atom_site_pbe_magmom
Ag  Ag0  1  0.16603017  0.03189250  0.89790916  1  0.718538  0  0.565363  0.57175  0  2.003863  0
Ag  Ag1  1  0.83396868  0.96811073  0.10209105  1  0.718567  0  0.56538  0.571799  0  2.003875  0
H  H2  1  0.60182936  0.93039474  0.46649247  1  0.112718  0  0.106885  0.114859  0  1.037542  0
H  H3  1  0.39816805  0.06960575  0.53350794  1  0.112728  0  0.106874  0.11483  0  1.037648  0
H  H4  1  0.87484072  0.17373854  0.43745045  1  0.109474  0  0.113171  0.120942  0  1.039522  0
H  H5  1  0.12515439  0.82626265  0.56255121  1  0.10948  0  0.113176  0.120903  0  1.03956  0
H  H6  1  0.66520609  0.19942241  0.35339904  1  0.126424  0  0.1089  0.109992  0  1.053727  0
H  H7  1  0.33479253  0.80057808  0.64659811  1  0.126423  0  0.108893  0.110019  0  1.053689  0
H  H8  1  0.59521667  0.90485972  0.32177624  1  0.121305  0  0.106825  0.111713  0  1.060407  0
H  H9  1  0.40478434  0.09514145  0.67822386  1  0.121277  0  0.106837  0.111702  0  1.060426  0
H  H10  1  0.74240004  0.93394542  0.70350146  1  0.031737  0  0.093584  0.059607  0  1.016284  0
H  H11  1  0.25760084  0.06605439  0.29649977  1  0.031739  0  0.093582  0.059637  0  1.016288  0
H  H12  1  0.63154073  0.87072026  0.60464240  1  0.066225  0  0.095491  0.063766  0  1.0256  0
H  H13  1  0.36845896  0.12927956  0.39535942  1  0.066219  0  0.095505  0.063776  0  1.025623  0
H  H14  1  0.73587217  0.73259944  0.65433031  1  0.036221  0  0.096523  0.062562  0  0.997398  0
H  H15  1  0.26412761  0.26740105  0.34566960  1  0.036325  0  0.096522  0.062561  0  0.997405  0
H  H16  1  0.85035382  0.79945083  0.75129767  1  0.075275  0  0.098624  0.078901  0  1.015251  0
H  H17  1  0.14964490  0.20055103  0.24870235  1  0.075289  0  0.098623  0.078916  0  1.015232  0
H  H18  1  0.09806685  0.74765293  0.69642282  1  0.074535  0  0.097811  0.073284  0  1.004408  0
H  H19  1  0.90193409  0.25234756  0.30357784  1  0.074468  0  0.097822  0.073304  0  1.004417  0
H  H20  1  0.97325896  0.65481327  0.71351884  1  0.048142  0  0.096416  0.063578  0  0.994415  0
H  H21  1  0.02674087  0.34518791  0.28648250  1  0.048125  0  0.096437  0.063652  0  0.994472  0
H  H22  1  0.09278434  0.58584761  0.48987687  1  0.060969  0  0.100858  0.111194  0  1.008243  0
H  H23  1  0.90721536  0.41415220  0.51012361  1  0.060946  0  0.10084  0.111174  0  1.008256  0
H  H24  1  0.09290493  0.55070797  0.60025948  1  0.059362  0  0.090641  0.090378  0  1.036058  0
H  H25  1  0.90709359  0.44929184  0.39974092  1  0.059368  0  0.090651  0.090397  0  1.036058  0
H  H26  1  0.22173810  0.64431800  0.58608298  1  0.030353  0  0.088962  0.085621  0  1.03527  0
H  H27  1  0.77826036  0.35568113  0.41391799  1  0.030333  0  0.088962  0.085619  0  1.035244  0
H  H28  1  0.17714617  0.16275722  0.60319530  1  0.056204  0  0.098336  0.070017  0  1.011445  0
H  H29  1  0.82285119  0.83724259  0.39680367  1  0.056169  0  0.098368  0.07007  0  1.01153  0
H  H30  1  0.06111234  0.24370343  0.55094742  1  0.081406  0  0.103604  0.079856  0  1.02311  0
H  H31  1  0.93888502  0.75629638  0.44905155  1  0.081343  0  0.103645  0.079902  0  1.023144  0
H  H32  1  0.12785265  0.29660688  0.80824724  1  0.055905  0  0.10689  0.085205  0  0.973134  0
H  H33  1  0.87214706  0.70339293  0.19175257  1  0.055905  0  0.106886  0.085193  0  0.97314  0
H  H34  1  0.26764803  0.25298044  0.73673498  1  0.072528  0  0.100549  0.075184  0  1.012379  0
H  H35  1  0.73235286  0.74701937  0.26326492  1  0.072545  0  0.10053  0.075149  0  1.012364  0
H  H36  1  0.20697439  0.37066424  0.63496113  1  0.070152  0  0.107717  0.083136  0  0.99019  0
H  H37  1  0.79302773  0.62933625  0.36503962  1  0.0701  0  0.107723  0.083138  0  0.990172  0
H  H38  1  0.27474659  0.41896140  0.74978298  1  0.016936  0  0.093901  0.053756  0  0.995954  0
H  H39  1  0.72525429  0.58103841  0.25021758  1  0.016943  0  0.093913  0.053749  0  0.995958  0
H  H40  1  0.89733285  0.50702796  0.77844233  1  0.042791  0  0.095685  0.096228  0  1.02239  0
H  H41  1  0.10266803  0.49297185  0.22155824  1  0.042781  0  0.095683  0.096209  0  1.022388  0
H  H42  1  0.08065885  0.48338711  0.83943117  1  0.02964  0  0.085968  0.084516  0  1.015047  0
H  H43  1  0.91934085  0.51661270  0.16056997  1  0.029664  0  0.085972  0.084517  0  1.015062  0
H  H44  1  0.92622483  0.39540431  0.80889587  1  0.042206  0  0.087352  0.087866  0  1.01914  0
H  H45  1  0.07377605  0.60459550  0.19110403  1  0.042194  0  0.087357  0.087877  0  1.019119  0
H  H46  1  0.31445687  0.88405283  0.12199385  1  0.107082  0  0.100967  0.091511  0  1.006606  0
H  H47  1  0.68554270  0.11594561  0.87800644  1  0.107063  0  0.100954  0.091499  0  1.006563  0
H  H48  1  0.50772221  0.86429688  0.09563489  1  0.104064  0  0.104916  0.087223  0  0.992893  0
H  H49  1  0.49227618  0.13570157  0.90436531  1  0.104125  0  0.104899  0.087188  0  0.992915  0
H  H50  1  0.21625124  0.77251536  0.21429385  1  0.069095  0  0.100005  0.075003  0  0.987543  0
H  H51  1  0.78374838  0.22748377  0.78570853  1  0.069017  0  0.09999  0.075023  0  0.987584  0
H  H52  1  0.31006315  0.86438036  0.29481556  1  0.046001  0  0.093127  0.057444  0  1.027366  0
H  H53  1  0.68993767  0.13561876  0.70518490  1  0.045998  0  0.093109  0.057425  0  1.027309  0
H  H54  1  0.26558774  0.71651240  0.35641745  1  0.065847  0  0.099706  0.069757  0  0.996725  0
H  H55  1  0.73441559  0.28348878  0.64358616  1  0.06581  0  0.099699  0.069746  0  0.99673  0
H  H56  1  0.40639721  0.66638230  0.28774939  1  0.030923  0  0.095015  0.057498  0  0.988174  0
H  H57  1  0.59360247  0.33361752  0.71225310  1  0.030899  0  0.094998  0.057454  0  0.988263  0
H  H58  1  0.64689137  0.74283131  0.49932617  1  0.074805  0  0.101749  0.108268  0  1.022564  0
H  H59  1  0.35310944  0.25716781  0.50067430  1  0.074814  0  0.101757  0.108285  0  1.022528  0
H  H60  1  0.56226853  0.64353324  0.42477743  1  0.045449  0  0.093629  0.089305  0  1.021171  0
H  H61  1  0.43773353  0.35646657  0.57522322  1  0.045401  0  0.093642  0.089297  0  1.021196  0
H  H62  1  0.44454621  0.70617980  0.50014669  1  0.037443  0  0.09042  0.088131  0  1.011724  0
H  H63  1  0.55545592  0.29382069  0.49985339  1  0.037424  0  0.090418  0.088112  0  1.01171  0
H  H64  1  0.56820985  0.22239360  0.12547342  1  0.075184  0  0.098386  0.079809  0  0.998722  0
H  H65  1  0.43178623  0.77760484  0.87452260  1  0.075222  0  0.098402  0.079829  0  0.998717  0
H  H66  1  0.39054157  0.23514100  0.17536569  1  0.102067  0  0.104277  0.091397  0  1.001464  0
H  H67  1  0.60945808  0.76485812  0.82463336  1  0.102082  0  0.104284  0.091416  0  1.001434  0
H  H68  1  0.67666326  0.42867169  0.26246641  1  0.063299  0  0.108296  0.084174  0  0.991208  0
H  H69  1  0.32333993  0.57132743  0.73753156  1  0.063293  0  0.108308  0.084178  0  0.99132  0
H  H70  1  0.55672056  0.38544078  0.15803477  1  0.026786  0  0.101066  0.069165  0  0.979729  0
H  H71  1  0.44327805  0.61455971  0.84196371  1  0.026676  0  0.101069  0.069174  0  0.979718  0
H  H72  1  0.40414638  0.49269487  0.24018024  1  0.026183  0  0.092552  0.050147  0  0.996621  0
H  H73  1  0.59585673  0.50730356  0.75982030  1  0.026168  0  0.092551  0.050154  0  0.996681  0
H  H74  1  0.32149848  0.38250412  0.24972924  1  0.045928  0  0.097508  0.06371  0  0.99487  0
H  H75  1  0.67850352  0.61749500  0.75027131  1  0.045879  0  0.097499  0.063688  0  0.994895  0
H  H76  1  0.36635723  0.50336440  0.47986659  1  0.108792  0  0.101781  0.112051  0  1.016451  0
H  H77  1  0.63364600  0.49663540  0.52013348  1  0.108813  0  0.101794  0.112093  0  1.016425  0
H  H78  1  0.22828036  0.43434841  0.39636145  1  0.078611  0  0.090334  0.089098  0  1.049823  0
H  H79  1  0.77172287  0.56565139  0.60363929  1  0.078582  0  0.090341  0.089121  0  1.049766  0
H  H80  1  0.28911057  0.54701352  0.37847944  1  0.027908  0  0.087161  0.076019  0  1.044514  0
H  H81  1  0.71089378  0.45298560  0.62152062  1  0.027878  0  0.087176  0.076065  0  1.044513  0
C  C82  1  0.13352247  0.71320945  0.96640184  1  1.634902  0  0.284644  0.510008  0  4.041403  0
C  C83  1  0.86647965  0.28679104  0.03359891  1  1.6349  0  0.284671  0.510064  0  4.041408  0
C  C84  1  0.98942482  0.04402594  0.69639420  1  0.888633  0  0.22886  0.322265  0  3.979622  0
C  C85  1  0.01057381  0.95597524  0.30360773  1  0.888658  0  0.228844  0.322263  0  3.979602  0
C  C86  1  0.90091282  0.04836823  0.61077199  1  0.050836  0  0.008429  -0.058192  0  4.028081  0
C  C87  1  0.09908564  0.95163090  0.38922898  1  0.050768  0  0.00845  -0.058096  0  4.028075  0
C  C88  1  0.78006277  0.98027581  0.57714216  1  0.070218  0  0.003456  0.08082  0  3.957029  0
C  C89  1  0.21993235  0.01972537  0.42285750  1  0.070196  0  0.003446  0.080763  0  3.956977  0
C  C90  1  0.69531463  0.98295517  0.49227425  1  -0.057638  0  -0.081018  -0.177684  0  3.917958  0
C  C91  1  0.30468415  0.01704738  0.50772654  1  -0.057695  0  -0.080999  -0.177633  0  3.917969  0
C  C92  1  0.72745236  0.05206416  0.44035952  1  -0.001245  0  0.005465  0.095821  0  3.968286  0
C  C93  1  0.27254399  0.94793771  0.55964166  1  -0.001243  0  0.005468  0.09588  0  3.9682  0
C  C94  1  0.84519555  0.12032876  0.47656917  1  0.001486  0  -0.075619  -0.162943  0  3.896728  0
C  C95  1  0.15480079  0.87967311  0.52343335  1  0.001478  0  -0.075644  -0.162896  0  3.896744  0
C  C96  1  0.93355198  0.11937963  0.56070870  1  -0.011473  0  0.011053  0.091773  0  3.934113  0
C  C97  1  0.06644419  0.88062018  0.43929152  1  -0.011467  0  0.011038  0.091687  0  3.934245  0
C  C98  1  0.39677166  0.05145153  0.08730102  1  0.88068  0  0.228241  0.329518  0  3.966645  0
C  C99  1  0.60322575  0.94854897  0.91269938  1  0.880838  0  0.22821  0.329521  0  3.966706  0
C  C100  1  0.47998039  0.05245688  0.17511751  1  0.021344  0  -0.005745  -0.092398  0  4.070708  0
C  C101  1  0.52001939  0.94754361  0.82488107  1  0.021321  0  -0.005718  -0.092348  0  4.070645  0
C  C102  1  0.54158766  0.13634367  0.22698097  1  0.023029  0  0.013062  0.103921  0  3.930923  0
C  C103  1  0.45841080  0.86365546  0.77301932  1  0.022933  0  0.013016  0.103808  0  3.930963  0
C  C104  1  0.62201619  0.13453518  0.31306610  1  -0.083831  0  -0.082797  -0.180161  0  3.92716  0
C  C105  1  0.37798359  0.86546532  0.68693248  1  -0.083837  0  -0.082783  -0.180185  0  3.927115  0
C  C106  1  0.64153863  0.05222851  0.34890877  1  0.054216  0  0.004576  0.098688  0  3.987119  0
C  C107  1  0.35846004  0.94777266  0.65109049  1  0.054231  0  0.004625  0.098666  0  3.987017  0
C  C108  1  0.57922596  0.96993856  0.29643496  1  -0.028331  0  -0.090347  -0.190307  0  3.950362  0
C  C109  1  0.42077388  0.03006262  0.70356437  1  -0.028257  0  -0.090309  -0.190146  0  3.950193  0
C  C110  1  0.49931743  0.96848103  0.20961111  1  -0.02527  0  0.001132  0.060766  0  3.98778  0
C  C111  1  0.50068229  0.03151878  0.79038737  1  -0.025345  0  0.001096  0.060643  0  3.987855  0
C  C112  1  0.74699094  0.90556568  0.63148037  1  0.44197  0  -0.072394  -0.031798  0  3.969786  0
C  C113  1  0.25300771  0.09443550  0.36852022  1  0.44212  0  -0.072414  -0.03189  0  3.969857  0
C  C114  1  0.84974999  0.77112300  0.67902864  1  0.416086  0  -0.078192  -0.015655  0  3.930425  0
C  C115  1  0.15024978  0.22887750  0.32097127  1  0.415965  0  -0.078193  -0.015675  0  3.93044  0
C  C116  1  0.98498868  0.70923662  0.67059130  1  0.412776  0  -0.077278  -0.00959  0  3.936305  0
C  C117  1  0.01501115  0.29076456  0.32940937  1  0.412833  0  -0.077307  -0.00971  0  3.936431  0
C  C118  1  0.10442171  0.60970234  0.56324682  1  0.392275  0  -0.152897  -0.188011  0  3.927826  0
C  C119  1  0.89557688  0.39029815  0.43675434  1  0.392436  0  -0.152903  -0.188013  0  3.927767  0
C  C120  1  0.05994805  0.19248213  0.59772964  1  0.425133  0  -0.068968  -0.034214  0  3.925471  0
C  C121  1  0.94004813  0.80751769  0.40227058  1  0.424693  0  -0.069022  -0.034307  0  3.925739  0
C  C122  1  0.15526329  0.28764730  0.73779318  1  0.426644  0  -0.078167  -0.025782  0  3.932882  0
C  C123  1  0.84473765  0.71235319  0.26220681  1  0.426622  0  -0.078165  -0.025766  0  3.932851  0
C  C124  1  0.17567406  0.37966054  0.70454609  1  0.430833  0  -0.078086  -0.021093  0  3.953024  0
C  C125  1  0.82432571  0.62033995  0.29545382  1  0.430865  0  -0.078094  -0.021052  0  3.952984  0
C  C126  1  0.98360152  0.45471210  0.78655135  1  0.420113  0  -0.152694  -0.182343  0  3.960917  0
C  C127  1  0.01639819  0.54528771  0.21344846  1  0.420114  0  -0.152675  -0.182288  0  3.960847  0
C  C128  1  0.43761651  0.87879124  0.15247117  1  0.405689  0  -0.071913  -0.044336  0  3.956494  0
C  C129  1  0.56238294  0.12120584  0.84752892  1  0.405542  0  -0.071916  -0.044272  0  3.956536  0
C  C130  1  0.32814759  0.79675710  0.25708927  1  0.431876  0  -0.076819  -0.008612  0  3.935087  0
C  C131  1  0.67185093  0.20324271  0.74291179  1  0.431947  0  -0.07683  -0.008678  0  3.93524  0
C  C132  1  0.37084959  0.73146783  0.32393648  1  0.423919  0  -0.074358  -0.003199  0  3.938333  0
C  C133  1  0.62915259  0.26853335  0.67606504  1  0.423966  0  -0.074347  -0.003132  0  3.938388  0
C  C134  1  0.53896840  0.71274006  0.45698208  1  0.391618  0  -0.149768  -0.180952  0  3.93584  0
C  C135  1  0.46103249  0.28725974  0.54301715  1  0.391316  0  -0.149758  -0.180882  0  3.935744  0
C  C136  1  0.51807175  0.22522013  0.19043967  1  0.443257  0  -0.065395  -0.035031  0  3.9311  0
C  C137  1  0.48192667  0.77477831  0.80955786  1  0.443014  0  -0.065386  -0.034957  0  3.930912  0
C  C138  1  0.56959374  0.38666075  0.23250577  1  0.46736  0  -0.073058  -0.015196  0  3.948697  0
C  C139  1  0.43040597  0.61333906  0.76749337  1  0.467485  0  -0.073121  -0.01528  0  3.948848  0
C  C140  1  0.42792435  0.42909823  0.27000129  1  0.458301  0  -0.078288  -0.015466  0  3.970615  0
C  C141  1  0.57207764  0.57090089  0.72999926  1  0.458351  0  -0.078275  -0.015476  0  3.970696  0
C  C142  1  0.32837014  0.48522867  0.40663044  1  0.325732  0  -0.153247  -0.192311  0  3.938145  0
C  C143  1  0.67163533  0.51476976  0.59336961  1  0.325704  0  -0.153302  -0.19248  0  3.938106  0
S  S144  1  0.02947249  0.81894115  0.94584566  1  3.276446  0  0.474449  0.993769  0  6.40047  0
S  S145  1  0.97053078  0.18105865  0.05415107  1  3.276624  0  0.474333  0.993584  0  6.400258  0
N  N146  1  0.06080611  0.03676678  0.76619024  1  -1.185684  0  -0.349277  -0.349066  0  3.293123  0
N  N147  1  0.93919013  0.96323372  0.23380941  1  -1.185657  0  -0.349298  -0.349138  0  3.293226  0
N  N148  1  0.32891252  0.04874876  0.01445884  1  -1.201779  0  -0.354083  -0.371023  0  3.331395  0
N  N149  1  0.67108267  0.95125311  0.98554025  1  -1.201939  0  -0.354075  -0.371054  0  3.331474  0
O  O150  1  0.86925330  0.84286846  0.62554089  1  -1.034126  0  -0.225906  -0.218479  0  2.509227  0
O  O151  1  0.13074765  0.15713203  0.37445910  1  -1.034135  0  -0.225875  -0.218396  0  2.509211  0
O  O152  1  0.98127649  0.67081133  0.57723312  1  -1.060145  0  -0.244267  -0.201974  0  2.538102  0
O  O153  1  0.01872209  0.32918917  0.42276871  1  -1.060252  0  -0.244256  -0.201958  0  2.53803  0
O  O154  1  0.02777414  0.23081916  0.68638101  1  -1.049297  0  -0.227369  -0.226051  0  2.516233  0
O  O155  1  0.97222562  0.76918134  0.31361957  1  -1.048802  0  -0.227374  -0.226041  0  2.516198  0
O  O156  1  0.03834806  0.43169763  0.70049073  1  -1.05645  0  -0.243562  -0.198666  0  2.532541  0
O  O157  1  0.96165294  0.56830355  0.29951003  1  -1.05643  0  -0.243585  -0.198744  0  2.532491  0
O  O158  1  0.45202202  0.80331647  0.20154842  1  -1.041031  0  -0.23492  -0.219254  0  2.486609  0
O  O159  1  0.54797408  0.19668266  0.79845237  1  -1.040981  0  -0.234863  -0.219239  0  2.48681  0
O  O160  1  0.49778882  0.77115032  0.39056645  1  -1.081804  0  -0.245093  -0.203861  0  2.534211  0
O  O161  1  0.50221559  0.22884948  0.60943438  1  -1.081427  0  -0.245103  -0.203929  0  2.534166  0
O  O162  1  0.59536483  0.29727586  0.25541561  1  -1.057241  0  -0.226584  -0.217222  0  2.537288  0
O  O163  1  0.40463596  0.70272257  0.74458009  1  -1.056914  0  -0.226544  -0.2172  0  2.537187  0
O  O164  1  0.46048873  0.44926428  0.36645615  1  -1.090132  0  -0.248493  -0.203883  0  2.528258  0
O  O165  1  0.53951438  0.55073416  0.63354373  1  -1.090051  0  -0.248485  -0.203788  0  2.528173  0
O  O166  1  0.11473684  0.85429973  0.87788965  1  -1.310863  0  -0.343144  -0.565564  0  2.293661  0
O  O167  1  0.88527595  0.14570143  0.12211064  1  -1.310931  0  -0.343143  -0.565499  0  2.293618  0
O  O168  1  0.86830797  0.78432170  0.91385779  1  -1.321075  0  -0.346908  -0.565638  0  2.225083  0
O  O169  1  0.13169662  0.21567947  0.08613789  1  -1.321127  0  -0.34685  -0.565522  0  2.224817  0
O  O170  1  0.05439504  0.87499104  0.03585088  1  -1.323297  0  -0.349095  -0.591806  0  2.343749  0
O  O171  1  0.94560089  0.12500603  0.96414762  1  -1.323411  0  -0.349056  -0.591796  0  2.343807  0
F  F172  1  0.28967812  0.73169312  0.99625771  1  -0.628359  0  -0.092677  -0.182723  0  1.369116  0
F  F173  1  0.71032377  0.26830463  0.00374065  1  -0.628315  0  -0.092681  -0.182725  0  1.36907  0
F  F174  1  0.12246835  0.65241001  0.88842577  1  -0.619946  0  -0.091935  -0.187781  0  1.382784  0
F  F175  1  0.87753863  0.34759184  0.11157351  1  -0.619933  0  -0.091904  -0.187752  0  1.382821  0
F  F176  1  0.07030468  0.67110953  0.02990716  1  -0.620846  0  -0.103965  -0.192705  0  1.337675  0
F  F177  1  0.92969703  0.32888616  0.97008956  1  -0.620866  0  -0.104009  -0.192779  0  1.337712  0
