# generated using pymatgen
data_ZnH16C20(NO2)2
_symmetry_space_group_name_H-M   'P 1'
_cell_length_a   9.82677274
_cell_length_b   13.51437607
_cell_length_c   15.49029374
_cell_angle_alpha   90.00018320
_cell_angle_beta   90.00010524
_cell_angle_gamma   90.00027093
_symmetry_Int_Tables_number   1
_chemical_formula_structural   ZnH16C20(NO2)2
_chemical_formula_sum   'Zn4 H64 C80 N8 O16'
_cell_volume   2057.15286741
_cell_formula_units_Z   4
loop_
 _symmetry_equiv_pos_site_id
 _symmetry_equiv_pos_as_xyz
  1  'x, y, z'
loop_
 _atom_site_type_symbol
 _atom_site_label
 _atom_site_symmetry_multiplicity
 _atom_site_fract_x
 _atom_site_fract_y
 _atom_site_fract_z
 _atom_site_occupancy
 _atom_site_pbe_bader_charge
 _atom_site_pbe_bader_spin_density
 _atom_site_pbe_cm5_charge
 _atom_site_pbe_ddec_charge
 _atom_site_pbe_ddec_spin_density
 _atom_site_pbe_ddec_sum_bond_order
 _atom_site_pbe_magmom
Zn  Zn0  1  0.92394511  0.24999971  0.75000087  1  1.254664  0  0.683757  0.746323  0  2.403088  0
Zn  Zn1  1  0.57605499  0.24999967  0.24999788  1  1.254665  0  0.683767  0.746379  0  2.403044  0
Zn  Zn2  1  0.07605420  0.75000044  0.25000023  1  1.254649  0  0.683734  0.746311  0  2.403114  0
Zn  Zn3  1  0.42394534  0.75000195  0.75000322  1  1.25464  0  0.683726  0.746258  0  2.403134  0
H  H4  1  0.40026849  0.50567572  0.10230759  1  0.094875  0  0.10319  0.103969  0  1.007126  0
H  H5  1  0.09972743  0.50567295  0.89769840  1  0.094978  0  0.103131  0.103893  0  1.00715  0
H  H6  1  0.40026338  0.99433367  0.39769067  1  0.094908  0  0.103177  0.103908  0  1.007284  0
H  H7  1  0.09973876  0.99433204  0.60230766  1  0.095125  0  0.103133  0.103865  0  1.007201  0
H  H8  1  0.59973591  0.49432442  0.89769157  1  0.094893  0  0.1032  0.104012  0  1.007191  0
H  H9  1  0.90027290  0.49432645  0.10230270  1  0.094942  0  0.103142  0.103901  0  1.007163  0
H  H10  1  0.59973492  0.00567091  0.60230721  1  0.095059  0  0.103157  0.103919  0  1.007266  0
H  H11  1  0.90026157  0.00567180  0.39769086  1  0.094969  0  0.10317  0.10392  0  1.007232  0
H  H12  1  0.24999143  0.59831440  0.00000615  1  -0.004482  0  0.094512  0.087077  0  1.029784  0
H  H13  1  0.25000230  0.90169151  0.49999968  1  -0.004657  0  0.094462  0.087106  0  1.029501  0
H  H14  1  0.75000890  0.40168500  0.99999366  1  -0.004482  0  0.094516  0.087071  0  1.029754  0
H  H15  1  0.75000109  0.09831159  0.50000142  1  -0.004569  0  0.094529  0.087143  0  1.029638  0
H  H16  1  0.25000449  0.23124159  0.00000112  1  0.13003  0  0.103477  0.108014  0  1.03069  0
H  H17  1  0.24999618  0.26876551  0.49999685  1  0.129857  0  0.103499  0.108063  0  1.030743  0
H  H18  1  0.74999991  0.76875781  0.99999805  1  0.130016  0  0.103492  0.108012  0  1.030742  0
H  H19  1  0.74999601  0.73123907  0.49999715  1  0.129958  0  0.10352  0.108057  0  1.03077  0
H  H20  1  0.73217139  0.28949165  0.89040099  1  0.068713  0  0.114796  0.079749  0  1.007527  0
H  H21  1  0.76783100  0.28949103  0.10959400  1  0.068705  0  0.114773  0.079737  0  1.007564  0
H  H22  1  0.73217378  0.21050784  0.60959407  1  0.068768  0  0.114807  0.079772  0  1.00757  0
H  H23  1  0.76782708  0.21050898  0.39040264  1  0.06871  0  0.11481  0.079783  0  1.007527  0
H  H24  1  0.26783097  0.71050405  0.10959817  1  0.068734  0  0.114853  0.079832  0  1.007547  0
H  H25  1  0.23217136  0.71050467  0.89040258  1  0.068731  0  0.114845  0.079827  0  1.007615  0
H  H26  1  0.26782858  0.78949378  0.39040380  1  0.068743  0  0.114828  0.079789  0  1.007554  0
H  H27  1  0.23217630  0.78949634  0.60959846  1  0.068689  0  0.114857  0.079874  0  1.007515  0
H  H28  1  0.54709215  0.20204386  0.97258061  1  0.114043  0  0.10949  0.125796  0  1.013945  0
H  H29  1  0.95291171  0.20204136  0.02741736  1  0.114074  0  0.109484  0.125777  0  1.013959  0
H  H30  1  0.54709487  0.29795647  0.52741553  1  0.114026  0  0.10945  0.125715  0  1.014002  0
H  H31  1  0.95290554  0.29795855  0.47258207  1  0.114078  0  0.10948  0.125784  0  1.013943  0
H  H32  1  0.45291021  0.79795406  0.02741984  1  0.114003  0  0.109509  0.125779  0  1.014018  0
H  H33  1  0.04709167  0.79795138  0.97258180  1  0.113786  0  0.109496  0.12577  0  1.014007  0
H  H34  1  0.45290749  0.70204589  0.47258170  1  0.114009  0  0.109486  0.12575  0  1.013987  0
H  H35  1  0.04709784  0.70204751  0.52741903  1  0.11387  0  0.109452  0.125745  0  1.013931  0
H  H36  1  0.62991806  0.94304871  0.81799263  1  0.181612  0  0.112289  0.140264  0  1.015278  0
H  H37  1  0.87008144  0.94305166  0.18201064  1  0.181651  0  0.112299  0.1403  0  1.015239  0
H  H38  1  0.62991966  0.55694776  0.68200952  1  0.181672  0  0.112302  0.14031  0  1.015185  0
H  H39  1  0.87008242  0.55695048  0.31799074  1  0.181616  0  0.112296  0.140291  0  1.015268  0
H  H40  1  0.37008634  0.05694626  0.18201234  1  0.181495  0  0.112299  0.14032  0  1.015169  0
H  H41  1  0.12990668  0.05694404  0.81798981  1  0.181511  0  0.112316  0.140296  0  1.015236  0
H  H42  1  0.37008067  0.44305238  0.31799158  1  0.181668  0  0.1123  0.14031  0  1.015194  0
H  H43  1  0.12991994  0.44305411  0.68200713  1  0.181712  0  0.112336  0.140346  0  1.015195  0
H  H44  1  0.81214984  0.04127510  0.74238155  1  0.115975  0  0.121551  0.096115  0  0.983578  0
H  H45  1  0.68784586  0.04127918  0.25761662  1  0.116241  0  0.121525  0.096103  0  0.983577  0
H  H46  1  0.81215324  0.45872097  0.75761877  1  0.116176  0  0.121516  0.096091  0  0.983577  0
H  H47  1  0.68784821  0.45872277  0.24237928  1  0.11595  0  0.121521  0.096078  0  0.983579  0
H  H48  1  0.18785049  0.95871912  0.25761955  1  0.116154  0  0.121539  0.096108  0  0.983608  0
H  H49  1  0.31214429  0.95872022  0.74238061  1  0.116069  0  0.121511  0.096068  0  0.983618  0
H  H50  1  0.18784505  0.54127844  0.24238362  1  0.116178  0  0.121555  0.096131  0  0.983569  0
H  H51  1  0.31215721  0.54128107  0.75761666  1  0.116206  0  0.121503  0.096073  0  0.983611  0
H  H52  1  0.54986039  0.06189888  0.07699959  1  0.059128  0  0.096498  0.10673  0  1.022911  0
H  H53  1  0.95014155  0.06189815  0.92300250  1  0.059205  0  0.096502  0.106707  0  1.022904  0
H  H54  1  0.54985702  0.43810186  0.42300066  1  0.059151  0  0.096523  0.106732  0  1.022893  0
H  H55  1  0.95014634  0.43810283  0.57700056  1  0.059165  0  0.096485  0.106653  0  1.022911  0
H  H56  1  0.45014096  0.93809756  0.92300344  1  0.059118  0  0.096539  0.106758  0  1.022824  0
H  H57  1  0.04985776  0.93809681  0.07699989  1  0.059064  0  0.096525  0.106728  0  1.022872  0
H  H58  1  0.45014535  0.56189976  0.57699915  1  0.059122  0  0.096519  0.106712  0  1.022889  0
H  H59  1  0.04985806  0.56190249  0.42300248  1  0.0591  0  0.09653  0.106732  0  1.022868  0
H  H60  1  0.62264091  0.94798424  0.04131208  1  0.02704  0  0.099559  0.10803  0  0.976304  0
H  H61  1  0.87735760  0.94798414  0.95868992  1  0.026923  0  0.099573  0.108079  0  0.976293  0
H  H62  1  0.62263820  0.55201630  0.45868773  1  0.026983  0  0.09957  0.108029  0  0.976305  0
H  H63  1  0.87736386  0.55201615  0.54131446  1  0.027121  0  0.099578  0.108035  0  0.976308  0
H  H64  1  0.37736349  0.05201368  0.95869096  1  0.027091  0  0.099554  0.108027  0  0.976229  0
H  H65  1  0.12263968  0.05201083  0.04131247  1  0.027041  0  0.099523  0.10798  0  0.976244  0
H  H66  1  0.37736315  0.44798532  0.54131208  1  0.027003  0  0.099532  0.108  0  0.976168  0
H  H67  1  0.12263647  0.44798769  0.45868793  1  0.027109  0  0.099541  0.108029  0  0.97623  0
C  C68  1  0.41861468  0.30362502  0.11951938  1  1.505867  0  0.194017  0.556276  0  4.229136  0
C  C69  1  0.08138808  0.30362286  0.88048216  1  1.505541  0  0.194104  0.556317  0  4.228961  0
C  C70  1  0.41860759  0.19638192  0.38047813  1  1.505527  0  0.194128  0.556462  0  4.229128  0
C  C71  1  0.08139041  0.19638251  0.61952118  1  1.505553  0  0.194138  0.556549  0  4.229164  0
C  C72  1  0.58138463  0.69637586  0.88048107  1  1.505582  0  0.194053  0.556275  0  4.228966  0
C  C73  1  0.91861123  0.69637876  0.11952023  1  1.505525  0  0.194053  0.556286  0  4.229293  0
C  C74  1  0.58138765  0.80361896  0.61952038  1  1.505881  0  0.194106  0.556438  0  4.229084  0
C  C75  1  0.91860585  0.80362207  0.38047799  1  1.505505  0  0.194108  0.556369  0  4.22924  0
C  C76  1  0.33344542  0.36266781  0.05796474  1  -0.059971  0  -0.022872  -0.039657  0  3.98903  0
C  C77  1  0.16655976  0.36266692  0.94203762  1  -0.059663  0  -0.022838  -0.039601  0  3.989002  0
C  C78  1  0.33343710  0.13733810  0.44203268  1  -0.059673  0  -0.022895  -0.039694  0  3.989121  0
C  C79  1  0.16655848  0.13733876  0.55796389  1  -0.059749  0  -0.022848  -0.039668  0  3.989214  0
C  C80  1  0.66655898  0.63733085  0.94203571  1  -0.059627  0  -0.022873  -0.039631  0  3.989018  0
C  C81  1  0.83344362  0.63733249  0.05796348  1  -0.059618  0  -0.022815  -0.039572  0  3.988946  0
C  C82  1  0.66655508  0.86266501  0.55796455  1  -0.059935  0  -0.022841  -0.039515  0  3.989064  0
C  C83  1  0.83343473  0.86266656  0.44203399  1  -0.059677  0  -0.022842  -0.039498  0  3.989136  0
C  C84  1  0.33385586  0.46645803  0.05749040  1  -0.080495  0  -0.080791  -0.083395  0  3.963986  0
C  C85  1  0.16614592  0.46645639  0.94251483  1  -0.080483  0  -0.080738  -0.083291  0  3.964175  0
C  C86  1  0.33385094  0.03354936  0.44250960  1  -0.080325  0  -0.080806  -0.083369  0  3.964396  0
C  C87  1  0.16615109  0.03354854  0.55748860  1  -0.080461  0  -0.080768  -0.083343  0  3.964241  0
C  C88  1  0.66614753  0.53354137  0.94250812  1  -0.080513  0  -0.080783  -0.083461  0  3.96423  0
C  C89  1  0.83385746  0.53354449  0.05748626  1  -0.08047  0  -0.080746  -0.083276  0  3.964083  0
C  C90  1  0.66614633  0.96645300  0.55748891  1  -0.080487  0  -0.080803  -0.083461  0  3.964281  0
C  C91  1  0.83384822  0.96645456  0.44250862  1  -0.080498  0  -0.080768  -0.083398  0  3.96442  0
C  C92  1  0.24999524  0.51762181  0.00000281  1  0.026245  0  -0.09608  -0.09494  0  4.034766  0
C  C93  1  0.25000256  0.98238484  0.49999979  1  0.026473  0  -0.096066  -0.09493  0  4.034673  0
C  C94  1  0.75000407  0.48237833  0.99999571  1  0.026248  0  -0.096065  -0.094876  0  4.034668  0
C  C95  1  0.75000184  0.01761826  0.49999808  1  0.026345  0  -0.096106  -0.094939  0  4.03462  0
C  C96  1  0.25000315  0.31177395  0.99999841  1  0.019644  0  -0.077509  -0.104652  0  3.941782  0
C  C97  1  0.24999694  0.18823497  0.49999674  1  0.019709  0  -0.077479  -0.104659  0  3.941909  0
C  C98  1  0.74999965  0.68822801  0.99999858  1  0.019665  0  -0.077577  -0.104742  0  3.941769  0
C  C99  1  0.74999627  0.81176961  0.49999597  1  0.019592  0  -0.077602  -0.104869  0  3.941895  0
C  C100  1  0.70557541  0.21263343  0.87673166  1  0.475747  0  0.041762  0.084706  0  3.982401  0
C  C101  1  0.79442750  0.21263443  0.12326505  1  0.476366  0  0.041818  0.084713  0  3.982474  0
C  C102  1  0.70557732  0.28736449  0.62326659  1  0.475623  0  0.041745  0.084596  0  3.982615  0
C  C103  1  0.79442506  0.28736568  0.37673097  1  0.475736  0  0.041759  0.084655  0  3.982567  0
C  C104  1  0.29442695  0.78736228  0.12326944  1  0.475894  0  0.041706  0.084572  0  3.982596  0
C  C105  1  0.20557079  0.78736128  0.87673218  1  0.475833  0  0.041686  0.084526  0  3.982671  0
C  C106  1  0.29442504  0.71263713  0.37673257  1  0.475878  0  0.041765  0.084687  0  3.982613  0
C  C107  1  0.20557934  0.71263890  0.62326884  1  0.475506  0  0.041682  0.084491  0  3.98254  0
C  C108  1  0.60340444  0.16428260  0.92156413  1  -0.061934  0  -0.083416  -0.183697  0  3.933795  0
C  C109  1  0.89659714  0.16428231  0.07843697  1  -0.061783  0  -0.083398  -0.18363  0  3.934013  0
C  C110  1  0.60340654  0.33571645  0.57843401  1  -0.062264  0  -0.083361  -0.183515  0  3.9339  0
C  C111  1  0.89659412  0.33571815  0.42156369  1  -0.062126  0  -0.083425  -0.18368  0  3.933829  0
C  C112  1  0.39659792  0.83571385  0.07843633  1  -0.061332  0  -0.083389  -0.183561  0  3.933872  0
C  C113  1  0.10340115  0.83571265  0.92156413  1  -0.061355  0  -0.083419  -0.183563  0  3.933936  0
C  C114  1  0.39659481  0.66428517  0.42156515  1  -0.061348  0  -0.083404  -0.183631  0  3.93404  0
C  C115  1  0.10341130  0.66428643  0.57843547  1  -0.062061  0  -0.083323  -0.183559  0  3.933881  0
C  C116  1  0.57464389  0.06516954  0.90177222  1  0.061202  0  0.02207  0.185205  0  3.920979  0
C  C117  1  0.92535705  0.06517164  0.09822795  1  0.061234  0  0.022066  0.185206  0  3.920995  0
C  C118  1  0.57464464  0.43482793  0.59822846  1  0.06161  0  0.022012  0.185073  0  3.921266  0
C  C119  1  0.92535665  0.43483040  0.40177145  1  0.061593  0  0.02207  0.185221  0  3.920979  0
C  C120  1  0.42535949  0.93482543  0.09823146  1  0.061151  0  0.022032  0.185193  0  3.921022  0
C  C121  1  0.07463717  0.93482332  0.90176992  1  0.061089  0  0.022033  0.185111  0  3.921051  0
C  C122  1  0.42535670  0.56517443  0.40177134  1  0.061187  0  0.022053  0.185177  0  3.921109  0
C  C123  1  0.07464673  0.56517566  0.59822965  1  0.061663  0  0.022038  0.1851  0  3.921185  0
C  C124  1  0.64913606  0.01993253  0.83554363  1  -0.124241  0  -0.077336  -0.178491  0  3.89696  0
C  C125  1  0.85086459  0.01993462  0.16445899  1  -0.124295  0  -0.077327  -0.178542  0  3.896801  0
C  C126  1  0.64913628  0.48006445  0.66445779  1  -0.124295  0  -0.077311  -0.178509  0  3.896984  0
C  C127  1  0.85086429  0.48006642  0.33554161  1  -0.124203  0  -0.077339  -0.178544  0  3.896985  0
C  C128  1  0.35087038  0.98006243  0.16445940  1  -0.124124  0  -0.077317  -0.178611  0  3.896875  0
C  C129  1  0.14912353  0.98006108  0.83554081  1  -0.124049  0  -0.077274  -0.178474  0  3.896773  0
C  C130  1  0.35086405  0.51993569  0.33554202  1  -0.124215  0  -0.077304  -0.17851  0  3.896849  0
C  C131  1  0.14914011  0.51993742  0.66445691  1  -0.124318  0  -0.07734  -0.178538  0  3.897097  0
C  C132  1  0.75008691  0.07367170  0.79355877  1  0.445158  0  0.050634  0.09632  0  3.944067  0
C  C133  1  0.74991205  0.07367507  0.20644014  1  0.444989  0  0.050628  0.096317  0  3.943935  0
C  C134  1  0.75008793  0.42632489  0.70644277  1  0.444958  0  0.050633  0.096289  0  3.943951  0
C  C135  1  0.74991331  0.42632710  0.29355712  1  0.44515  0  0.050653  0.096376  0  3.943926  0
C  C136  1  0.24991647  0.92632326  0.20644362  1  0.445131  0  0.050644  0.096411  0  3.943999  0
C  C137  1  0.25007810  0.92632507  0.79355773  1  0.445197  0  0.050688  0.096439  0  3.943689  0
C  C138  1  0.24991240  0.57367525  0.29355897  1  0.44499  0  0.050576  0.096249  0  3.94396  0
C  C139  1  0.25009007  0.57367378  0.70644204  1  0.444883  0  0.050618  0.096288  0  3.944011  0
C  C140  1  0.47230805  0.00916391  0.95398026  1  0.019729  0  -0.155822  -0.202119  0  3.914637  0
C  C141  1  0.02769179  0.00916223  0.04602111  1  0.019692  0  -0.155782  -0.202035  0  3.91472  0
C  C142  1  0.47231003  0.49083542  0.54602224  1  0.01971  0  -0.155748  -0.202012  0  3.914667  0
C  C143  1  0.02769190  0.49083745  0.45397854  1  0.019702  0  -0.155824  -0.202151  0  3.914749  0
C  C144  1  0.52769635  0.99083327  0.04602342  1  0.041333  0  -0.155745  -0.202092  0  3.914722  0
C  C145  1  0.97230447  0.99082978  0.95397935  1  0.041321  0  -0.155746  -0.202102  0  3.914815  0
C  C146  1  0.52769437  0.50916620  0.45397821  1  0.041339  0  -0.155772  -0.202045  0  3.914693  0
C  C147  1  0.97230741  0.50916788  0.54602256  1  0.041336  0  -0.155718  -0.201892  0  3.914636  0
N  N148  1  0.77884338  0.16809716  0.81431837  1  -1.264438  0  -0.33889  -0.249399  0  3.620922  0
N  N149  1  0.72115822  0.16809962  0.18567951  1  -1.26514  0  -0.338936  -0.249439  0  3.62086  0
N  N150  1  0.77884373  0.33189953  0.68568127  1  -1.264458  0  -0.338864  -0.249284  0  3.62086  0
N  N151  1  0.72115792  0.33190024  0.31431707  1  -1.26445  0  -0.338875  -0.249405  0  3.620858  0
N  N152  1  0.22115898  0.83189780  0.18568209  1  -1.265088  0  -0.338922  -0.249457  0  3.621051  0
N  N153  1  0.27884007  0.83189757  0.81431836  1  -1.265002  0  -0.338909  -0.249397  0  3.620733  0
N  N154  1  0.22115660  0.66810135  0.31431854  1  -1.265074  0  -0.338909  -0.249389  0  3.620906  0
N  N155  1  0.27884750  0.66810213  0.68568209  1  -1.264379  0  -0.338861  -0.24925  0  3.620662  0
O  O156  1  0.48953546  0.35258422  0.17612139  1  -1.163958  0  -0.338862  -0.558678  0  2.288462  0
O  O157  1  0.01046355  0.35258161  0.82388159  1  -1.163845  0  -0.338883  -0.55869  0  2.288445  0
O  O158  1  0.48952585  0.14742001  0.32387621  1  -1.163814  0  -0.338905  -0.558768  0  2.288443  0
O  O159  1  0.01047081  0.14741760  0.67612296  1  -1.163846  0  -0.338909  -0.558811  0  2.28835  0
O  O160  1  0.51046182  0.64741370  0.82387906  1  -1.163976  0  -0.338893  -0.558712  0  2.288323  0
O  O161  1  0.98953373  0.64741631  0.17612145  1  -1.16391  0  -0.338915  -0.558738  0  2.288408  0
O  O162  1  0.51047041  0.85258162  0.67612231  1  -1.163854  0  -0.338881  -0.558745  0  2.288402  0
O  O163  1  0.98952748  0.85258180  0.32387684  1  -1.163846  0  -0.338908  -0.558741  0  2.288465  0
O  O164  1  0.41874361  0.21081718  0.11514748  1  -1.138052  0  -0.322018  -0.558715  0  2.166943  0
O  O165  1  0.08125753  0.21081504  0.88485380  1  -1.13812  0  -0.32208  -0.558758  0  2.166918  0
O  O166  1  0.41873510  0.28918607  0.38484939  1  -1.138245  0  -0.322075  -0.558791  0  2.167113  0
O  O167  1  0.08126045  0.28918516  0.61514954  1  -1.138244  0  -0.32205  -0.558786  0  2.167206  0
O  O168  1  0.58125366  0.78918222  0.88485297  1  -1.138073  0  -0.322023  -0.558682  0  2.167004  0
O  O169  1  0.91874178  0.78917993  0.11514988  1  -1.138088  0  -0.321996  -0.55867  0  2.167283  0
O  O170  1  0.58125709  0.71081630  0.61514784  1  -1.138196  0  -0.322037  -0.558752  0  2.167076  0
O  O171  1  0.91873581  0.71081794  0.38484833  1  -1.138115  0  -0.322042  -0.558746  0  2.167103  0
