# generated using pymatgen
data_UZnH10(C2O3)6
_symmetry_space_group_name_H-M   'P 1'
_cell_length_a   6.44287216
_cell_length_b   8.39307937
_cell_length_c   8.60219501
_cell_angle_alpha   95.36168530
_cell_angle_beta   93.35582919
_cell_angle_gamma   104.02995144
_symmetry_Int_Tables_number   1
_chemical_formula_structural   UZnH10(C2O3)6
_chemical_formula_sum   'U1 Zn1 H10 C12 O18'
_cell_volume   447.72734151
_cell_formula_units_Z   1
loop_
 _symmetry_equiv_pos_site_id
 _symmetry_equiv_pos_as_xyz
  1  'x, y, z'
loop_
 _atom_site_type_symbol
 _atom_site_label
 _atom_site_symmetry_multiplicity
 _atom_site_fract_x
 _atom_site_fract_y
 _atom_site_fract_z
 _atom_site_occupancy
 _atom_site_hle17_bader_spin_density
 _atom_site_hle17_ddec_charge
 _atom_site_hle17_ddec_spin_density
 _atom_site_hle17_ddec_sum_bond_order
 _atom_site_hle17_magmom
 _atom_site_hse06_10hf_bader_spin_density
 _atom_site_hse06_10hf_ddec_charge
 _atom_site_hse06_10hf_ddec_spin_density
 _atom_site_hse06_10hf_ddec_sum_bond_order
 _atom_site_hse06_10hf_magmom
 _atom_site_hse06_bader_spin_density
 _atom_site_hse06_ddec_charge
 _atom_site_hse06_ddec_spin_density
 _atom_site_hse06_ddec_sum_bond_order
 _atom_site_hse06_magmom
 _atom_site_pbe_bader_spin_density
 _atom_site_pbe_cm5_charge
 _atom_site_pbe_ddec_charge
 _atom_site_pbe_ddec_spin_density
 _atom_site_pbe_ddec_sum_bond_order
 _atom_site_pbe_magmom
U  U0  1  0.49998295  0.49998623  0.99998212  1  0  2.452772  0  4.012396  0  0  2.503562  0  4.658616  0  0  2.617038  0  4.625406  0  0  2.135609  2.423439  0  4.683296  0
Zn  Zn1  1  0.00001988  0.50003168  0.49995839  1  0  1.229421  0  1.686573  0  0  1.081883  0  2.132634  0  0  1.124889  0  2.072481  0  0  0.680888  1.051635  0  2.174087  0
H  H2  1  0.39621376  0.54718262  0.42744453  1  0  0.43612  0  0.831434  0  0  0.407247  0  0.904044  0  0  0.417642  0  0.891486  0  0  0.316425  0.399827  0  0.913002  0
H  H3  1  0.60418608  0.45276144  0.57288994  1  0  0.436598  0  0.830408  0  0  0.407289  0  0.903697  0  0  0.417703  0  0.891175  0  0  0.316513  0.399848  0  0.91266  0
H  H4  1  0.41692322  0.68885967  0.56774278  1  0  0.44873  0  0.826345  0  0  0.420256  0  0.888172  0  0  0.430001  0  0.873833  0  0  0.313952  0.413342  0  0.898369  0
H  H5  1  0.58306564  0.31121780  0.43238760  1  0  0.448703  0  0.826285  0  0  0.420308  0  0.887978  0  0  0.430051  0  0.873645  0  0  0.314181  0.413392  0  0.898176  0
H  H6  1  0.08952277  0.65195398  0.24507008  1  0  0.424476  0  0.882026  0  0  0.395208  0  0.943697  0  0  0.406323  0  0.927616  0  0  0.295975  0.387351  0  0.955049  0
H  H7  1  0.91048900  0.34807576  0.75490331  1  0  0.42447  0  0.882056  0  0  0.395148  0  0.943776  0  0  0.406263  0  0.927697  0  0  0.295981  0.38729  0  0.955131  0
H  H8  1  0.87512096  0.67999402  0.29693028  1  0  0.432656  0  0.860365  0  0  0.413068  0  0.904496  0  0  0.422857  0  0.889997  0  0  0.302348  0.406169  0  0.914781  0
H  H9  1  0.12485048  0.32003178  0.70297289  1  0  0.432746  0  0.860244  0  0  0.413095  0  0.904505  0  0  0.42289  0  0.889993  0  0  0.302334  0.40619  0  0.914806  0
H  H10  1  0.42083053  0.05295523  0.68850712  1  0  0.4301  0  0.760281  0  0  0.410831  0  0.814529  0  0  0.42087  0  0.803943  0  0  0.358416  0.403649  0  0.822269  0
H  H11  1  0.57913011  0.94699839  0.31149000  1  0  0.430189  0  0.760188  0  0  0.410941  0  0.814396  0  0  0.420974  0  0.803815  0  0  0.35843  0.403762  0  0.82213  0
C  C12  1  0.87375725  0.71120712  0.77027006  1  0  0.69681  0  3.85845  0  0  0.650139  0  4.159872  0  0  0.687707  0  4.148394  0  0  0.235157  0.624318  0  4.166839  0
C  C13  1  0.12623618  0.28879416  0.22969845  1  0  0.696883  0  3.858284  0  0  0.650054  0  4.159966  0  0  0.687632  0  4.14849  0  0  0.235193  0.624216  0  4.166958  0
C  C14  1  0.94227433  0.86468372  0.88584714  1  0  -0.047065  0  3.640553  0  0  -0.054209  0  3.892836  0  0  -0.056441  0  3.908987  0  0  0.017597  -0.052809  0  3.882142  0
C  C15  1  0.05769825  0.13529846  0.11414654  1  0  -0.047045  0  3.640333  0  0  -0.053987  0  3.892738  0  0  -0.056253  0  3.908839  0  0  0.017623  -0.052587  0  3.882052  0
C  C16  1  0.23753799  0.74176001  0.98614263  1  0  0.663261  0  3.861579  0  0  0.614774  0  4.177039  0  0  0.650865  0  4.168893  0  0  0.218334  0.590252  0  4.181572  0
C  C17  1  0.76244277  0.25822007  0.01383245  1  0  0.663028  0  3.861713  0  0  0.614691  0  4.177161  0  0  0.65075  0  4.169004  0  0  0.218271  0.590168  0  4.181695  0
C  C18  1  0.65698848  0.97155953  0.75504922  1  0  0.685446  0  3.774497  0  0  0.629357  0  4.085182  0  0  0.664141  0  4.072404  0  0  0.249155  0.605544  0  4.093652  0
C  C19  1  0.34299712  0.02842874  0.24495366  1  0  0.685323  0  3.774653  0  0  0.629093  0  4.085591  0  0  0.663863  0  4.072824  0  0  0.249101  0.605256  0  4.094098  0
C  C20  1  0.82643120  0.98732637  0.88695922  1  0  -0.05596  0  3.636071  0  0  -0.055899  0  3.88184  0  0  -0.059951  0  3.89946  0  0  0.01391  -0.053251  0  3.870157  0
C  C21  1  0.17354408  0.01265461  0.11303325  1  0  -0.055782  0  3.63588  0  0  -0.055855  0  3.881553  0  0  -0.05987  0  3.899219  0  0  0.014043  -0.053198  0  3.86988  0
C  C22  1  0.11817647  0.87744232  0.99530626  1  0  -0.026846  0  3.59733  0  0  -0.024998  0  3.83918  0  0  -0.025512  0  3.854117  0  0  0.018747  -0.025028  0  3.829558  0
C  C23  1  0.88179799  0.12254116  0.00468414  1  0  -0.026492  0  3.597057  0  0  -0.025168  0  3.839507  0  0  -0.025554  0  3.854267  0  0  0.018726  -0.025199  0  3.829889  0
O  O24  1  0.64536246  0.88146656  0.63182153  1  0  -0.543885  0  1.945055  0  0  -0.503209  0  2.157723  0  0  -0.522092  0  2.145271  0  0  -0.272102  -0.490262  0  2.166176  0
O  O25  1  0.35463128  0.11852459  0.36816098  1  0  -0.5437  0  1.945124  0  0  -0.503009  0  2.157844  0  0  -0.521888  0  2.145412  0  0  -0.272091  -0.490065  0  2.166324  0
O  O26  1  0.33919650  0.57532740  0.52691245  1  0  -0.825882  0  1.918671  0  0  -0.763706  0  2.130188  0  0  -0.78374  0  2.09776  0  0  -0.558564  -0.749534  0  2.152764  0
O  O27  1  0.66073699  0.42477521  0.47317609  1  0  -0.826237  0  1.917395  0  0  -0.763621  0  2.129533  0  0  -0.783725  0  2.097023  0  0  -0.558673  -0.7494  0  2.152177  0
O  O28  1  0.99980597  0.69555156  0.66772583  1  0  -0.58211  0  2.0466  0  0  -0.52437  0  2.295034  0  0  -0.552531  0  2.282265  0  0  -0.284487  -0.504216  0  2.302977  0
O  O29  1  0.00019010  0.30448315  0.33224068  1  0  -0.582463  0  2.046779  0  0  -0.524552  0  2.295184  0  0  -0.55272  0  2.282403  0  0  -0.284674  -0.504385  0  2.303122  0
O  O30  1  0.52320159  0.06896807  0.78119827  1  0  -0.517635  0  2.122957  0  0  -0.465481  0  2.338948  0  0  -0.486234  0  2.324079  0  0  -0.298089  -0.45099  0  2.348876  0
O  O31  1  0.47676780  0.93100428  0.21879074  1  0  -0.517758  0  2.122848  0  0  -0.465591  0  2.338902  0  0  -0.48633  0  2.324023  0  0  -0.298116  -0.451091  0  2.348848  0
O  O32  1  0.69991052  0.60424370  0.78952197  1  0  -0.669714  0  2.103177  0  0  -0.651608  0  2.382656  0  0  -0.687599  0  2.37789  0  0  -0.366262  -0.625362  0  2.384671  0
O  O33  1  0.30008974  0.39572727  0.21041662  1  0  -0.669463  0  2.103178  0  0  -0.651405  0  2.382732  0  0  -0.687409  0  2.377941  0  0  -0.366211  -0.625141  0  2.384763  0
O  O34  1  0.38260491  0.74061304  0.89349293  1  0  -0.600458  0  2.019986  0  0  -0.58467  0  2.285755  0  0  -0.618222  0  2.286136  0  0  -0.31503  -0.560938  0  2.284508  0
O  O35  1  0.61738493  0.25938055  0.10648974  1  0  -0.600493  0  2.019817  0  0  -0.58467  0  2.285465  0  0  -0.618218  0  2.285855  0  0  -0.315043  -0.560939  0  2.284214  0
O  O36  1  0.18878461  0.62406471  0.07185521  1  0  -0.633503  0  2.089691  0  0  -0.604199  0  2.346522  0  0  -0.636822  0  2.343963  0  0  -0.318671  -0.581079  0  2.347319  0
O  O37  1  0.81119242  0.37590444  0.92810808  1  0  -0.633433  0  2.089679  0  0  -0.604145  0  2.346533  0  0  -0.636785  0  2.344021  0  0  -0.3187  -0.581028  0  2.347321  0
O  O38  1  0.01875383  0.67779087  0.34105388  1  0  -0.833741  0  1.885189  0  0  -0.781412  0  2.070775  0  0  -0.80183  0  2.036594  0  0  -0.580662  -0.767  0  2.094399  0
O  O39  1  0.98120711  0.32225269  0.65888934  1  0  -0.833836  0  1.884994  0  0  -0.781488  0  2.070727  0  0  -0.801899  0  2.036541  0  0  -0.580725  -0.767047  0  2.094268  0
O  O40  1  0.32780932  0.34532568  0.85567882  1  0  -0.72222  0  1.641534  0  0  -0.719925  0  1.936913  0  0  -0.740498  0  1.922749  0  0  -0.754374  -0.707608  0  1.947517  0
O  O41  1  0.67214436  0.65463504  0.14426425  1  0  -0.722015  0  1.6419  0  0  -0.719769  0  1.937397  0  0  -0.740334  0  1.923212  0  0  -0.754437  -0.707493  0  1.948092  0
