# generated using pymatgen
data_Zn8H37C70Br5O33
_symmetry_space_group_name_H-M   'P 1'
_cell_length_a   18.44963307
_cell_length_b   18.46885707
_cell_length_c   18.46073317
_cell_angle_alpha   59.53361425
_cell_angle_beta   60.22637348
_cell_angle_gamma   59.64498226
_symmetry_Int_Tables_number   1
_chemical_formula_structural   Zn8H37C70Br5O33
_chemical_formula_sum   'Zn8 H37 C70 Br5 O33'
_cell_volume   4427.56436678
_cell_formula_units_Z   1
loop_
 _symmetry_equiv_pos_site_id
 _symmetry_equiv_pos_as_xyz
  1  'x, y, z'
loop_
 _atom_site_type_symbol
 _atom_site_label
 _atom_site_symmetry_multiplicity
 _atom_site_fract_x
 _atom_site_fract_y
 _atom_site_fract_z
 _atom_site_occupancy
 _atom_site_pbe_bader_charge
 _atom_site_pbe_bader_spin_density
 _atom_site_pbe_cm5_charge
 _atom_site_pbe_ddec_charge
 _atom_site_pbe_ddec_spin_density
 _atom_site_pbe_ddec_sum_bond_order
 _atom_site_pbe_magmom
Zn  Zn0  1  0.95809788  0.45303939  0.46046946  1  1.318271  0  0.675105  0.959497  0  2.371228  0
Zn  Zn1  1  0.13266798  0.45333424  0.45622495  1  1.323146  0  0.679297  0.972807  0  2.340088  0
Zn  Zn2  1  0.95513132  0.45785559  0.63074396  1  1.302339  0  0.670779  0.957194  0  2.397437  0
Zn  Zn3  1  0.95708794  0.62967378  0.45842093  1  1.303161  0  0.669234  0.956475  0  2.379923  0
Zn  Zn4  1  0.54149639  0.04504732  0.04592159  1  1.327525  0  0.675342  0.973048  0  2.363921  0
Zn  Zn5  1  0.54550756  0.04087046  0.87334115  1  1.315139  0  0.682206  0.968835  0  2.367932  0
Zn  Zn6  1  0.37055282  0.03819832  0.04877236  1  1.302865  0  0.672237  0.960712  0  2.353179  0
Zn  Zn7  1  0.54542359  0.86720366  0.04623918  1  1.314172  0  0.671258  0.965236  0  2.374649  0
H  H8  1  0.66852437  0.36057308  0.54306703  1  0.075728  0  0.103027  0.099196  0  0.996833  0
H  H9  1  0.80219563  0.58573751  0.81767388  1  0.092785  0  0.109008  0.115451  0  0.991912  0
H  H10  1  0.71787154  0.39402133  0.38013390  1  0.073034  0  0.103137  0.098697  0  0.992595  0
H  H11  1  0.70924375  0.67865242  0.91467444  1  0.1092  0  0.108784  0.11647  0  0.990981  0
H  H12  1  0.64568214  0.96345662  0.63205126  1  0.091096  0  0.101658  0.061801  0  0.980887  0
H  H13  1  0.75063602  0.87349081  0.53048927  1  0.068312  0  0.098863  0.121899  0  0.978446  0
H  H14  1  0.84231247  0.87915101  0.53445146  1  0.052958  0  0.09852  0.117982  0  0.986632  0
H  H15  1  0.31851648  0.58305381  0.29803126  1  0.084641  0  0.111299  0.119772  0  0.988408  0
H  H16  1  0.41459077  0.67725627  0.19960213  1  0.110384  0  0.10996  0.116894  0  0.989716  0
H  H17  1  0.12503014  0.96259128  0.15613862  1  0.094159  0  0.116018  0.073008  0  0.934125  0
H  H18  1  0.04163655  0.87218618  0.35576159  1  0.038285  0  0.099742  0.116905  0  0.984748  0
H  H19  1  0.75035674  0.09976064  0.17553354  1  0.075003  0  0.106865  0.121475  0  0.9854  0
H  H20  1  0.75368334  0.53260659  0.27321733  1  0.028857  0  0.103322  0.104132  0  0.993943  0
H  H21  1  0.02495584  0.87194471  0.26862388  1  0.039222  0  0.099744  0.12304  0  0.97968  0
H  H22  1  0.09290881  0.34379474  0.80845184  1  0.132587  0  0.120783  0.146044  0  0.973325  0
H  H23  1  0.33819236  0.17098775  0.58235793  1  0.10844  0  0.106277  0.122766  0  0.97024  0
H  H24  1  0.69350335  0.60360704  0.49090537  1  0.059915  0  0.099476  0.0988  0  0.997093  0
H  H25  1  0.43026883  0.29652735  0.09305906  1  0.083866  0  0.105322  0.109517  0  0.962851  0
H  H26  1  0.33187624  0.40078843  0.18099926  1  0.092695  0  0.112603  0.074861  0  0.93364  0
H  H27  1  0.65783275  0.46504062  0.59796605  1  0.064541  0  0.100657  0.096758  0  0.9957  0
H  H28  1  0.64782398  0.70046369  0.25244551  1  0.109774  0  0.11004  0.1206  0  0.99519  0
H  H29  1  0.85082797  0.79744618  0.25558261  1  0.089356  0  0.1078  0.116417  0  0.997233  0
H  H30  1  0.72401842  0.95474470  0.25826803  1  0.085364  0  0.109548  0.113904  0  0.978887  0
H  H31  1  0.83832703  0.06167555  0.92875541  1  0.12456  0  0.107666  0.133287  0  0.989905  0
H  H32  1  0.79354083  0.96773320  0.63777693  1  0.572657  0  0.316429  0.338021  0  0.917111  0
H  H33  1  0.13714700  0.96252151  0.30318215  1  0.583296  0  0.320618  0.345382  0  0.903678  0
H  H34  1  0.21785245  0.21191421  0.95518242  1  0.642308  0  0.312098  0.36167  0  0.949302  0
H  H35  1  0.51501979  0.18825099  0.56376172  1  0.60957  0  0.310004  0.345205  0  0.922969  0
H  H36  1  0.05071068  0.28031658  0.39797109  1  0.662357  0  0.310725  0.359391  0  0.954916  0
H  H37  1  0.21830035  0.10137955  0.22742961  1  0.630617  0  0.309885  0.355867  0  0.956646  0
H  H38  1  0.41778596  0.26514934  0.30736282  1  0.594683  0  0.290844  0.319585  0  0.96929  0
H  H39  1  0.75247076  0.34135518  0.81178826  1  0.095042  0  0.101084  0.109422  0  1.006046  0
H  H40  1  0.65781920  0.24616738  0.90683572  1  0.071516  0  0.103455  0.111786  0  1.003193  0
H  H41  1  0.81800706  0.08426734  0.66989044  1  0.059837  0  0.0953  0.102128  0  0.984514  0
H  H42  1  0.73130734  0.17090884  0.62585046  1  0.067375  0  0.100829  0.118324  0  0.979022  0
H  H43  1  0.91453599  0.17981949  0.57356795  1  0.048301  0  0.097875  0.110696  0  0.977992  0
H  H44  1  0.82826455  0.26833327  0.52938814  1  0.094542  0  0.095504  0.107813  0  1.009867  0
C  C45  1  0.13873628  0.63643714  0.36584736  1  1.55878  0  0.22946  0.612696  0  4.172783  0
C  C46  1  0.74290008  0.66228351  0.31147453  1  0.019175  0  0.008017  0.065848  0  3.95938  0
C  C47  1  0.79728810  0.95752940  0.04902108  1  -0.127693  0  -0.009748  0.090092  0  3.911571  0
C  C48  1  0.86188864  0.36040212  0.64138707  1  1.579076  0  0.228893  0.611978  0  4.17104  0
C  C49  1  0.81295729  0.03862261  0.00096756  1  0.076838  0  -0.102426  -0.189958  0  3.983378  0
C  C50  1  0.79632985  0.08875404  0.04745798  1  -0.166043  0  -0.014505  0.129711  0  3.985242  0
C  C51  1  0.76380217  0.05968443  0.13998958  1  0.074073  0  -0.101666  -0.147542  0  4.023939  0
C  C52  1  0.74932560  0.97826387  0.18588515  1  -0.067448  0  -0.082678  -0.094396  0  3.95986  0
C  C53  1  0.76554215  0.92486572  0.14230251  1  0.091889  0  -0.011303  0.02273  0  3.984225  0
C  C54  1  0.80323443  0.24916971  0.66744157  1  0.031466  0  -0.003624  0.061876  0  3.882523  0
C  C55  1  0.80561643  0.30314680  0.69781393  1  -0.101792  0  -0.014809  -0.0796  0  3.984487  0
C  C56  1  0.69970295  0.55704174  0.46669657  1  0.054785  0  -0.093689  -0.132483  0  3.983412  0
C  C57  1  0.75164487  0.30061740  0.78565175  1  -0.002247  0  -0.088251  -0.107209  0  4.001373  0
C  C58  1  0.69831361  0.24729204  0.83897919  1  0.017307  0  -0.086607  -0.101968  0  3.985763  0
C  C59  1  0.69545206  0.19364269  0.80743645  1  -0.035362  0  -0.014586  -0.076682  0  3.979474  0
C  C60  1  0.14041715  0.35264697  0.36906355  1  1.502551  0  0.226377  0.616753  0  4.156259  0
C  C61  1  0.74943211  0.19604611  0.72072655  1  -0.031095  0  -0.003994  0.059208  0  3.881632  0
C  C62  1  0.78183169  0.15657733  0.65082357  1  -0.010366  0  -0.150457  -0.198237  0  3.870599  0
C  C63  1  0.84279600  0.21676740  0.59049249  1  -0.07019  0  -0.15203  -0.201496  0  3.870559  0
C  C64  1  0.77679092  0.79020436  0.65989793  1  -0.081274  0  -0.001974  0.081909  0  3.914635  0
C  C65  1  0.80572842  0.69710870  0.69484420  1  -0.071182  0  -0.013931  -0.080357  0  3.971568  0
C  C66  1  0.78012402  0.65829919  0.78829667  1  0.037988  0  -0.078179  -0.086883  0  3.968017  0
C  C67  1  0.67904435  0.47962563  0.52677966  1  -0.091894  0  -0.092974  -0.076307  0  4.034798  0
C  C68  1  0.72811164  0.71033532  0.84268846  1  -0.013614  0  -0.081182  -0.098732  0  3.970941  0
C  C69  1  0.69803576  0.80439901  0.80693345  1  -0.134094  0  -0.010146  -0.052192  0  3.975953  0
C  C70  1  0.72379692  0.84244691  0.71437826  1  0.107328  0  -0.013836  -0.041611  0  3.875184  0
C  C71  1  0.71357487  0.92977220  0.63526040  1  0.528377  0  0.007721  0.200154  0  3.863719  0
C  C72  1  0.86164075  0.64035293  0.63806732  1  1.583539  0  0.226508  0.607725  0  4.180358  0
C  C73  1  0.77765179  0.86936404  0.57429215  1  -0.056397  0  -0.160599  -0.291219  0  3.875375  0
C  C74  1  0.16018815  0.78664224  0.28152921  1  -0.051447  0  -0.002759  0.079544  0  3.911759  0
C  C75  1  0.19544108  0.69358104  0.30822324  1  0.011757  0  -0.012409  -0.079261  0  3.967896  0
C  C76  1  0.28879275  0.65557282  0.27756680  1  -0.064546  0  -0.075797  -0.085252  0  3.957362  0
C  C77  1  0.34269857  0.70837614  0.22228592  1  0.073877  0  -0.079308  -0.096023  0  3.963906  0
C  C78  1  0.68514240  0.42089610  0.49594559  1  -0.119383  0  -0.092355  -0.089007  0  4.026267  0
C  C79  1  0.30645720  0.80239762  0.19363298  1  -0.050624  0  -0.010159  -0.053338  0  3.975391  0
C  C80  1  0.21416496  0.83944024  0.22500017  1  0.002393  0  -0.015019  -0.042988  0  3.885347  0
C  C81  1  0.13483549  0.92655516  0.22134660  1  0.519545  0  0.010134  0.195565  0  3.883224  0
C  C82  1  0.07468427  0.86548628  0.28976383  1  -0.021249  0  -0.157407  -0.289008  0  3.873541  0
C  C83  1  0.28385910  0.24974263  0.66865368  1  0.026435  0  -0.016472  0.019014  0  3.93173  0
C  C84  1  0.13757710  0.35844852  0.63931345  1  1.567703  0  0.231643  0.611822  0  4.160543  0
C  C85  1  0.19520394  0.30359922  0.69687000  1  -0.035992  0  -0.001204  -0.024675  0  3.956976  0
C  C86  1  0.16149829  0.30338654  0.78339626  1  0.090578  0  -0.079172  -0.19726  0  3.873678  0
C  C87  1  0.21299826  0.25133234  0.84089319  1  0.525039  0  0.10741  0.325105  0  4.032421  0
C  C88  1  0.30302833  0.19703743  0.81193919  1  -0.011777  0  -0.026419  -0.1959  0  3.958378  0
C  C89  1  0.69388854  0.72058424  0.25274599  1  -0.008659  0  -0.076718  -0.132197  0  3.927151  0
C  C90  1  0.33479576  0.19916764  0.72488092  1  0.004933  0  -0.003975  0.00597  0  3.916397  0
C  C91  1  0.41412565  0.15803682  0.65785744  1  0.674692  0  0.097423  0.314588  0  3.829877  0
C  C92  1  0.35329426  0.21176178  0.59645666  1  -0.022137  0  -0.074403  -0.102428  0  3.786689  0
C  C93  1  0.28442550  0.28552642  0.26392139  1  -0.036297  0  -0.025098  -0.025975  0  3.933295  0
C  C94  1  0.19605101  0.29122641  0.31820719  1  0.007701  0  -0.033458  -0.19857  0  4.003951  0
C  C95  1  0.16209416  0.23612486  0.32019000  1  0.607428  0  0.097915  0.218138  0  3.993242  0
C  C96  1  0.86173758  0.63370436  0.36516358  1  1.598568  0  0.230324  0.613789  0  4.159963  0
C  C97  1  0.21494878  0.18010436  0.26629773  1  0.585273  0  0.097599  0.221291  0  3.997856  0
C  C98  1  0.30210051  0.17899043  0.20966536  1  0.040353  0  -0.034451  -0.204827  0  4.010734  0
C  C99  1  0.33467379  0.23194246  0.21208032  1  0.01676  0  -0.02843  0.018899  0  4.02229  0
C  C100  1  0.69818962  0.80609364  0.19702995  1  -0.035984  0  -0.010968  -0.063207  0  3.943371  0
C  C101  1  0.41066926  0.26566719  0.16552608  1  0.022681  0  -0.071684  -0.0575  0  3.742687  0
C  C102  1  0.35334638  0.33035065  0.22292628  1  0.533778  0  0.007464  0.167778  0  3.899743  0
C  C103  1  0.64087461  0.85928125  0.86561477  1  1.550203  0  0.226496  0.602189  0  4.186364  0
C  C104  1  0.35575405  0.12729395  0.14946426  1  1.487816  0  0.223936  0.62031  0  4.155047  0
C  C105  1  0.63775990  0.13772603  0.86493160  1  1.511125  0  0.226529  0.606865  0  4.18136  0
C  C106  1  0.36437476  0.85821107  0.13359734  1  1.533097  0  0.229053  0.609161  0  4.169513  0
C  C107  1  0.35925683  0.14222449  0.86931616  1  1.579576  0  0.228966  0.620546  0  4.158936  0
C  C108  1  0.71224002  0.43996675  0.40468052  1  -0.046164  0  -0.093308  -0.0857  0  4.044057  0
C  C109  1  0.63722638  0.86387360  0.14252169  1  1.556282  0  0.223179  0.603323  0  4.188129  0
C  C110  1  0.73225695  0.51786659  0.34449520  1  0.016022  0  -0.09072  -0.132476  0  3.979892  0
C  C111  1  0.75484635  0.83592235  0.19749805  1  -0.032  0  -0.000867  0.061183  0  3.974855  0
C  C112  1  0.72651237  0.57711614  0.37482768  1  -0.035198  0  -0.01016  0.070274  0  4.010225  0
C  C113  1  0.80510050  0.77708499  0.25499143  1  0.010765  0  -0.079343  -0.137754  0  3.942256  0
C  C114  1  0.80062938  0.69159112  0.31081336  1  -0.029128  0  -0.009277  -0.06448  0  3.931228  0
Br  Br115  1  0.82042719  0.19775044  0.98355946  1  -0.069922  0  0.019627  -0.076394  0  1.347313  0
Br  Br116  1  0.43860878  0.02441730  0.69841756  1  -0.202528  0  -0.087331  -0.217382  0  1.125046  0
Br  Br117  1  0.40411891  0.29113254  0.47854883  1  -0.122083  0  -0.00707  -0.089591  0  1.319789  0
Br  Br118  1  0.52367631  0.17774680  0.18889838  1  -0.156922  0  -0.040959  -0.13948  0  1.326075  0
Br  Br119  1  0.82432696  0.89002907  0.98208562  1  -0.075235  0  0.019453  -0.073417  0  1.374962  0
O  O120  1  0.00197368  0.49854514  0.50060169  1  -1.215728  0  -0.573568  -1.032152  0  2.541664  0
O  O121  1  0.32532075  0.94147484  0.09868535  1  -1.168305  0  -0.313464  -0.542467  0  2.336346  0
O  O122  1  0.44074895  0.10494921  0.83385555  1  -1.173463  0  -0.294771  -0.50679  0  2.37011  0
O  O123  1  0.05512172  0.67710005  0.38086580  1  -1.171126  0  -0.312313  -0.541003  0  2.326836  0
O  O124  1  0.61865454  0.82324814  0.11853580  1  -1.173103  0  -0.314202  -0.544349  0  2.356664  0
O  O125  1  0.32076841  0.13623842  0.95232039  1  -1.171291  0  -0.310907  -0.561046  0  2.326422  0
O  O126  1  0.60736592  0.94773548  0.12703310  1  -1.177691  0  -0.310253  -0.545141  0  2.377768  0
O  O127  1  0.61311082  0.11870333  0.94859189  1  -1.152464  0  -0.312232  -0.543298  0  2.357878  0
O  O128  1  0.44738297  0.81895207  0.12221451  1  -1.164582  0  -0.312486  -0.542506  0  2.327291  0
O  O129  1  0.61882214  0.94348979  0.82613135  1  -1.167378  0  -0.30356  -0.528246  0  2.376622  0
O  O130  1  0.31930159  0.08447427  0.14681493  1  -1.170798  0  -0.310691  -0.559086  0  2.332274  0
O  O131  1  0.05730460  0.35968382  0.40918920  1  -1.181698  0  -0.3101  -0.559015  0  2.363153  0
O  O132  1  0.88616785  0.37955939  0.55770360  1  -1.158805  0  -0.309269  -0.537429  0  2.350099  0
O  O133  1  0.17608861  0.39525968  0.37041950  1  -1.152617  0  -0.301056  -0.514495  0  2.319642  0
O  O134  1  0.87995187  0.55617398  0.67777403  1  -1.179087  0  -0.314591  -0.544588  0  2.348668  0
O  O135  1  0.17629619  0.36492739  0.55768456  1  -1.170972  0  -0.309207  -0.538884  0  2.337454  0
O  O136  1  0.87616404  0.67367098  0.39380044  1  -1.181724  0  -0.31627  -0.550127  0  2.336635  0
O  O137  1  0.05526529  0.39353884  0.67684894  1  -1.176139  0  -0.310365  -0.538222  0  2.337171  0
O  O138  1  0.89594267  0.55053362  0.37627060  1  -1.169385  0  -0.309946  -0.541199  0  2.349366  0
O  O139  1  0.73957103  0.99681239  0.62227722  1  -1.095613  0  -0.405511  -0.491072  0  2.206483  0
O  O140  1  0.12888695  0.99149771  0.24533858  1  -1.104648  0  -0.404024  -0.488954  0  2.195568  0
O  O141  1  0.17349354  0.25567300  0.92310419  1  -1.131679  0  -0.343719  -0.426809  0  2.241218  0
O  O142  1  0.88688130  0.68062319  0.55412943  1  -1.172327  0  -0.311019  -0.538314  0  2.321935  0
O  O143  1  0.49023754  0.17401339  0.62850439  1  -1.112734  0  -0.352498  -0.425261  0  2.291515  0
O  O144  1  0.07972214  0.23341230  0.37031331  1  -1.148873  0  -0.339285  -0.405967  0  2.279866  0
O  O145  1  0.17580843  0.13164398  0.27245099  1  -1.111309  0  -0.33716  -0.401895  0  2.292578  0
O  O146  1  0.38959570  0.32764480  0.27569202  1  -1.123741  0  -0.410807  -0.489351  0  2.283675  0
O  O147  1  0.17798583  0.55231003  0.39499856  1  -1.180229  0  -0.312102  -0.544476  0  2.338854  0
O  O148  1  0.88114013  0.38573614  0.68054739  1  -1.17071  0  -0.31616  -0.546194  0  2.333371  0
O  O149  1  0.49981836  0.99828784  0.00403029  1  -1.215478  0  -0.573916  -1.032985  0  2.536486  0
O  O150  1  0.61887444  0.81808215  0.94949313  1  -1.163335  0  -0.315203  -0.546511  0  2.331156  0
O  O151  1  0.43400664  0.12882900  0.10259151  1  -1.181946  0  -0.306223  -0.531495  0  2.367485  0
O  O152  1  0.61779370  0.11377794  0.82515350  1  -1.164092  0  -0.307587  -0.534516  0  2.332393  0
