# generated using pymatgen
data_Cd3H36C60(N4O9)2
_symmetry_space_group_name_H-M   'P 1'
_cell_length_a   9.96757275
_cell_length_b   15.32222476
_cell_length_c   20.57032584
_cell_angle_alpha   78.10763961
_cell_angle_beta   82.99452418
_cell_angle_gamma   88.89426287
_symmetry_Int_Tables_number   1
_chemical_formula_structural   Cd3H36C60(N4O9)2
_chemical_formula_sum   'Cd6 H72 C120 N16 O36'
_cell_volume   3051.17559244
_cell_formula_units_Z   2
loop_
 _symmetry_equiv_pos_site_id
 _symmetry_equiv_pos_as_xyz
  1  'x, y, z'
loop_
 _atom_site_type_symbol
 _atom_site_label
 _atom_site_symmetry_multiplicity
 _atom_site_fract_x
 _atom_site_fract_y
 _atom_site_fract_z
 _atom_site_occupancy
 _atom_site_pbe_bader_charge
 _atom_site_pbe_bader_spin_density
 _atom_site_pbe_cm5_charge
 _atom_site_pbe_ddec_charge
 _atom_site_pbe_ddec_spin_density
 _atom_site_pbe_ddec_sum_bond_order
 _atom_site_pbe_magmom
Cd  Cd0  1  0.79359020  0.25757124  0.74841693  1  1.400762  0  0.800287  1.118739  0  2.179175  0
Cd  Cd1  1  0.20640996  0.74243025  0.25158226  1  1.400703  0  0.800273  1.118687  0  2.179224  0
Cd  Cd2  1  0.78304912  0.37615881  0.87845818  1  1.268293  0  0.771923  0.854448  0  2.28876  0
Cd  Cd3  1  0.21696015  0.62384404  0.12153832  1  1.268269  0  0.771965  0.854598  0  2.288629  0
Cd  Cd4  1  0.79998046  0.13954679  0.61589380  1  1.26499  0  0.773295  0.861414  0  2.263902  0
Cd  Cd5  1  0.20002072  0.86045471  0.38410581  1  1.265136  0  0.773256  0.861376  0  2.263945  0
H  H6  1  0.81219006  0.49821103  0.73177664  1  0.171834  0  0.124732  0.109795  0  0.988124  0
H  H7  1  0.18781213  0.50179046  0.26822146  1  0.171847  0  0.12472  0.109776  0  0.988074  0
H  H8  1  0.81600301  0.65676950  0.67040772  1  0.104262  0  0.114071  0.127498  0  1.015905  0
H  H9  1  0.18399210  0.34323263  0.32959166  1  0.104303  0  0.114052  0.127534  0  1.015839  0
H  H10  1  0.74699164  0.73292002  0.86351479  1  0.089886  0  0.115263  0.126954  0  0.999438  0
H  H11  1  0.25301257  0.26708150  0.13648465  1  0.089878  0  0.115256  0.126904  0  0.9995  0
H  H12  1  0.75039439  0.57196193  0.91577201  1  0.122615  0  0.120109  0.08951  0  0.991502  0
H  H13  1  0.24961387  0.42803894  0.08422778  1  0.12261  0  0.120078  0.08946  0  0.991458  0
H  H14  1  0.73245540  0.78461875  0.63233442  1  0.13777  0  0.108501  0.123231  0  1.051935  0
H  H15  1  0.26754072  0.21538208  0.36766754  1  0.13775  0  0.108483  0.123206  0  1.051951  0
H  H16  1  0.74389115  0.94581540  0.58109050  1  0.105183  0  0.11875  0.086392  0  0.994346  0
H  H17  1  0.25611005  0.05418276  0.41890916  1  0.105168  0  0.118764  0.086408  0  0.994309  0
H  H18  1  0.83974324  0.01333135  0.75474456  1  0.122245  0  0.123905  0.106933  0  0.989728  0
H  H19  1  0.16025390  0.98666944  0.24525395  1  0.122242  0  0.123913  0.106938  0  0.989718  0
H  H20  1  0.84134292  0.85439854  0.81356934  1  0.117508  0  0.109158  0.124105  0  1.044953  0
H  H21  1  0.15865320  0.14560361  0.18643143  1  0.117514  0  0.109148  0.124126  0  1.044888  0
H  H22  1  0.56314558  0.43249339  0.98929988  1  0.118155  0  0.118502  0.092795  0  1.008599  0
H  H23  1  0.43685458  0.56750876  0.01069872  1  0.118224  0  0.1185  0.092748  0  1.008509  0
H  H24  1  0.53431974  0.43087773  0.11243484  1  0.118361  0  0.106634  0.115851  0  1.028984  0
H  H25  1  0.46568446  0.56912578  0.88756379  1  0.118347  0  0.106624  0.115787  0  1.029034  0
H  H26  1  0.95537634  0.35691805  0.11256948  1  0.108725  0  0.105875  0.107173  0  1.026567  0
H  H27  1  0.04462687  0.64308209  0.88742781  1  0.107916  0  0.105876  0.107171  0  1.026569  0
H  H28  1  0.96928318  0.37032792  0.98935570  1  0.158712  0  0.120992  0.101939  0  1.005087  0
H  H29  1  0.03071498  0.62967287  0.01064226  1  0.158749  0  0.121016  0.101969  0  1.005035  0
H  H30  1  0.51899556  0.33376413  0.21242565  1  0.087019  0  0.101617  0.104267  0  1.026319  0
H  H31  1  0.48100158  0.66623865  0.78757156  1  0.08708  0  0.101631  0.1043  0  1.026289  0
H  H32  1  0.50706482  0.30423186  0.33673154  1  0.094295  0  0.104089  0.073  0  1.0284  0
H  H33  1  0.49293637  0.69576827  0.66326586  1  0.094218  0  0.10409  0.072957  0  1.028357  0
H  H34  1  0.90391692  0.38379962  0.32807162  1  0.04506  0  0.110351  0.077988  0  0.984868  0
H  H35  1  0.09608631  0.61619586  0.67192641  1  0.045033  0  0.110379  0.078017  0  0.984807  0
H  H36  1  0.93220762  0.42052225  0.20342500  1  0.071693  0  0.103119  0.110392  0  1.029548  0
H  H37  1  0.06779764  0.57947124  0.79657323  1  0.071019  0  0.103097  0.110333  0  1.029643  0
H  H38  1  0.73674261  0.14146974  0.04135198  1  0.121827  0  0.110056  0.11404  0  1.005648  0
H  H39  1  0.26325551  0.85853313  0.95865148  1  0.121851  0  0.11008  0.114097  0  1.005635  0
H  H40  1  0.74446361  0.00684356  0.12836420  1  0.122818  0  0.10383  0.11679  0  1.067019  0
H  H41  1  0.25553453  0.99315861  0.87163695  1  0.122883  0  0.103821  0.116769  0  1.067046  0
H  H42  1  0.86920970  0.99171909  0.89030147  1  0.132641  0  0.114062  0.124792  0  1.011929  0
H  H43  1  0.13080156  0.00828650  0.10969934  1  0.132564  0  0.114082  0.124834  0  1.011982  0
H  H44  1  0.56147612  0.84245622  0.17123956  1  0.111474  0  0.117629  0.142627  0  0.972233  0
H  H45  1  0.43852404  0.15754463  0.82876168  1  0.111426  0  0.117586  0.142589  0  0.972224  0
H  H46  1  0.68044807  0.86126987  0.36237330  1  0.097642  0  0.109088  0.122915  0  1.003019  0
H  H47  1  0.31955208  0.13873298  0.63762762  1  0.097682  0  0.109072  0.122876  0  1.003106  0
H  H48  1  0.98388533  0.86129130  0.19335305  1  0.154681  0  0.106984  0.133334  0  1.062293  0
H  H49  1  0.01611584  0.13870891  0.80664969  1  0.154615  0  0.107003  0.133409  0  1.062185  0
H  H50  1  0.26629058  0.38221146  0.86008529  1  0.126531  0  0.111049  0.12687  0  0.996759  0
H  H51  1  0.73371568  0.61778802  0.13991047  1  0.126415  0  0.111105  0.126949  0  0.996744  0
H  H52  1  0.55909958  0.37395241  0.68843692  1  0.177757  0  0.107779  0.133838  0  1.053406  0
H  H53  1  0.44090264  0.62604437  0.31155901  1  0.177793  0  0.107778  0.133876  0  1.053336  0
H  H54  1  0.13229457  0.35990517  0.67292579  1  0.110193  0  0.114904  0.138873  0  0.978956  0
H  H55  1  0.86770562  0.64009227  0.32707015  1  0.109924  0  0.114877  0.138837  0  0.978922  0
H  H56  1  0.28547774  0.47576052  0.39484891  1  0.14489  0  0.11374  0.123747  0  1.01084  0
H  H57  1  0.71451737  0.52424093  0.60515009  1  0.144713  0  0.113741  0.123729  0  1.010817  0
H  H58  1  0.26711177  0.64768179  0.53679184  1  0.147958  0  0.108693  0.111438  0  1.019085  0
H  H59  1  0.73288839  0.35231839  0.46320999  1  0.147723  0  0.108694  0.111451  0  1.019054  0
H  H60  1  0.33561739  0.52380186  0.62164328  1  0.11287  0  0.104097  0.116973  0  1.055982  0
H  H61  1  0.66438278  0.47619632  0.37835838  1  0.112873  0  0.104167  0.117079  0  1.056003  0
H  H62  1  0.97944293  0.09161749  0.48336191  1  0.074396  0  0.118924  0.088139  0  0.991141  0
H  H63  1  0.02054815  0.90838130  0.51664019  1  0.074401  0  0.118911  0.088158  0  0.991167  0
H  H64  1  0.94742869  0.08240518  0.36622492  1  0.075559  0  0.105129  0.111534  0  1.03251  0
H  H65  1  0.05256842  0.91760032  0.63377575  1  0.075439  0  0.105114  0.111465  0  1.032528  0
H  H66  1  0.52243777  0.13092584  0.41624954  1  0.095532  0  0.108519  0.112351  0  1.01365  0
H  H67  1  0.47754929  0.86906559  0.58375397  1  0.095282  0  0.10851  0.112426  0  1.01362  0
H  H68  1  0.57081284  0.13370494  0.53164730  1  0.158948  0  0.122362  0.108278  0  1.013419  0
H  H69  1  0.42917527  0.86627850  0.46835743  1  0.15883  0  0.122357  0.108332  0  1.013468  0
H  H70  1  0.89748266  0.17407344  0.26580046  1  0.078552  0  0.099596  0.101627  0  1.030374  0
H  H71  1  0.10251548  0.82592936  0.73419815  1  0.078533  0  0.099597  0.101641  0  1.030364  0
H  H72  1  0.84383875  0.18235826  0.14969682  1  0.100928  0  0.106691  0.079265  0  1.016791  0
H  H73  1  0.15615738  0.81763922  0.85030422  1  0.100873  0  0.106737  0.079305  0  1.016729  0
H  H74  1  0.47217854  0.05978572  0.21727549  1  0.084045  0  0.108395  0.079401  0  0.989473  0
H  H75  1  0.52781858  0.94021711  0.78272561  1  0.084024  0  0.108382  0.079373  0  0.989513  0
H  H76  1  0.51273509  0.04122175  0.33621446  1  0.068477  0  0.103073  0.10994  0  1.028467  0
H  H77  1  0.48726709  0.95878111  0.66378634  1  0.068456  0  0.103076  0.109948  0  1.028414  0
C  C78  1  0.53559719  0.38075691  0.82100637  1  1.555039  0  0.201982  0.584772  0  4.185865  0
C  C79  1  0.46440198  0.61924122  0.17899244  1  1.555497  0  0.201916  0.584797  0  4.186132  0
C  C80  1  0.79872388  0.55296315  0.75856632  1  0.447421  0  0.054151  0.103338  0  3.915367  0
C  C81  1  0.20127832  0.44703702  0.24143296  1  0.447398  0  0.054146  0.103361  0  3.915386  0
C  C82  1  0.80040501  0.64161604  0.72488733  1  -0.019311  0  -0.076028  -0.168554  0  3.915232  0
C  C83  1  0.19959616  0.35838545  0.27511180  1  -0.019272  0  -0.075997  -0.168638  0  3.915134  0
C  C84  1  0.78289802  0.70953909  0.76168838  1  0.014335  0  0.012253  0.099778  0  3.978915  0
C  C85  1  0.21710519  0.29046042  0.23831144  1  0.014339  0  0.012251  0.099837  0  3.978843  0
C  C86  1  0.76307161  0.68394824  0.83181190  1  -0.02291  0  -0.078745  -0.172256  0  3.938464  0
C  C87  1  0.23693362  0.31605195  0.16818769  1  -0.022931  0  -0.078735  -0.172172  0  3.938383  0
C  C88  1  0.76409251  0.59392203  0.86140356  1  0.413085  0  0.050345  0.088673  0  3.985173  0
C  C89  1  0.23591171  0.40607816  0.13859658  1  0.413115  0  0.050359  0.088667  0  3.985047  0
C  C90  1  0.78600873  0.80457696  0.72829503  1  -0.055912  0  0.012308  0.100995  0  3.98169  0
C  C91  1  0.21399245  0.19542389  0.27170664  1  -0.055938  0  0.012398  0.101036  0  3.981786  0
C  C92  1  0.75891466  0.83196224  0.66173721  1  0.025604  0  -0.080732  -0.174718  0  3.927973  0
C  C93  1  0.24108449  0.16803793  0.33826420  1  0.025535  0  -0.080755  -0.174718  0  3.927978  0
C  C94  1  0.76386262  0.92233281  0.63281564  1  0.42446  0  0.048708  0.089147  0  3.983815  0
C  C95  1  0.23613553  0.07766735  0.36718486  1  0.4244  0  0.048756  0.089203  0  3.983664  0
C  C96  1  0.81783618  0.95986726  0.72972484  1  0.501537  0  0.054037  0.102688  0  3.925579  0
C  C97  1  0.18216096  0.04013288  0.27027475  1  0.501504  0  0.054002  0.102722  0  3.925604  0
C  C98  1  0.81651514  0.87087582  0.76232960  1  -0.049143  0  -0.077359  -0.173064  0  3.926661  0
C  C99  1  0.18348099  0.12912433  0.23767150  1  -0.049082  0  -0.077368  -0.173167  0  3.92676  0
C  C100  1  0.64757476  0.41846318  0.01898202  1  0.450516  0  0.0475  0.086869  0  3.954903  0
C  C101  1  0.35242642  0.58153963  0.98101544  1  0.450386  0  0.047523  0.086992  0  3.954779  0
C  C102  1  0.63145707  0.41460112  0.08751986  1  -0.011217  0  -0.07506  -0.153628  0  3.917507  0
C  C103  1  0.36854309  0.58540170  0.91247960  1  -0.011232  0  -0.075024  -0.153615  0  3.917578  0
C  C104  1  0.74230418  0.39165589  0.12350042  1  -0.050067  0  0.0204  0.117004  0  3.951056  0
C  C105  1  0.25769700  0.60834559  0.87649725  1  -0.050069  0  0.020403  0.117167  0  3.950883  0
C  C106  1  0.86637878  0.37679894  0.08734327  1  0.004845  0  -0.076207  -0.160598  0  3.928723  0
C  C107  1  0.13362543  0.62320389  0.91265449  1  0.005704  0  -0.076197  -0.160682  0  3.928635  0
C  C108  1  0.87501990  0.38350697  0.01860586  1  0.442139  0  0.050597  0.095669  0  3.933483  0
C  C109  1  0.12498026  0.61649583  0.98139166  1  0.442203  0  0.050616  0.095726  0  3.93344  0
C  C110  1  0.72819177  0.37852281  0.19701093  1  -0.034069  0  0.010967  0.098856  0  3.983901  0
C  C111  1  0.27181145  0.62147601  0.80298706  1  -0.034419  0  0.010992  0.098726  0  3.984101  0
C  C112  1  0.60671786  0.34694525  0.23590243  1  -0.02457  0  -0.082219  -0.162988  0  3.935156  0
C  C113  1  0.39327725  0.65305952  0.76409458  1  -0.024701  0  -0.082345  -0.163165  0  3.935448  0
C  C114  1  0.60057162  0.32908818  0.30539456  1  0.485136  0  0.037111  0.083955  0  3.997694  0
C  C115  1  0.39942754  0.67091395  0.69460313  1  0.485169  0  0.037221  0.084211  0  3.997644  0
C  C116  1  0.82063882  0.37276769  0.30060860  1  0.598438  0  0.039711  0.084419  0  4.007747  0
C  C117  1  0.17936543  0.62722778  0.69938888  1  0.598377  0  0.039727  0.084442  0  4.007948  0
C  C118  1  0.83704196  0.39264525  0.23093094  1  -0.095982  0  -0.085247  -0.176394  0  3.952115  0
C  C119  1  0.16296128  0.60734956  0.76906719  1  -0.094834  0  -0.085171  -0.176208  0  3.952152  0
C  C120  1  0.79502876  0.16081641  0.90715320  1  1.573997  0  0.20887  0.593935  0  4.206638  0
C  C121  1  0.20497138  0.83918777  0.09284799  1  1.574298  0  0.208998  0.594078  0  4.206286  0
C  C122  1  0.80253333  0.07649745  0.95923508  1  -0.050036  0  -0.024931  -0.050778  0  3.97447  0
C  C123  1  0.19747489  0.92350814  0.04076736  1  -0.049978  0  -0.024824  -0.050543  0  3.974434  0
C  C124  1  0.76826506  0.07883531  0.02717210  1  0.032346  0  -0.065431  -0.027719  0  3.940306  0
C  C125  1  0.23174216  0.92116760  0.97282985  1  0.032078  0  -0.065415  -0.027763  0  3.940386  0
C  C126  1  0.77232959  0.00262407  0.07638158  1  -0.018872  0  -0.104901  -0.218776  0  4.007354  0
C  C127  1  0.22767359  0.99737815  0.92362121  1  -0.018839  0  -0.104947  -0.218867  0  4.007356  0
C  C128  1  0.80950753  0.92008593  0.06051402  1  0.53787  0  0.113081  0.250891  0  3.992752  0
C  C129  1  0.19049565  0.07991629  0.93948877  1  0.537877  0  0.113078  0.250991  0  3.992624  0
C  C130  1  0.84492094  0.91748466  0.99175273  1  0.21273  0  0.066806  -0.045593  0  3.887921  0
C  C131  1  0.15508830  0.08252026  0.00824878  1  0.212514  0  0.06673  -0.045753  0  3.88816  0
C  C132  1  0.84147747  0.99555300  0.94242846  1  0.032264  0  -0.074216  -0.11661  0  3.960322  0
C  C133  1  0.15852672  0.00445122  0.05757395  1  0.032525  0  -0.074321  -0.116801  0  3.96063  0
C  C134  1  0.77649158  0.85311114  0.17584585  1  0.355362  0  0.080632  0.243702  0  4.029797  0
C  C135  1  0.22350958  0.14689173  0.82415647  1  0.355377  0  0.080626  0.243729  0  4.029845  0
C  C136  1  0.64088384  0.84870506  0.20204895  1  -0.041196  0  -0.078619  -0.181433  0  3.921996  0
C  C137  1  0.35911835  0.15129447  0.79795238  1  -0.041241  0  -0.078557  -0.181352  0  3.921969  0
C  C138  1  0.60679374  0.85257200  0.26954291  1  0.04685  0  -0.016468  -0.022035  0  3.984009  0
C  C139  1  0.39320845  0.14742820  0.73045880  1  0.046787  0  -0.016514  -0.022058  0  3.983987  0
C  C140  1  0.70779580  0.85951972  0.30981396  1  0.053114  0  -0.075488  -0.109507  0  3.926774  0
C  C141  1  0.29220437  0.14048112  0.69018679  1  0.053127  0  -0.075422  -0.109443  0  3.926766  0
C  C142  1  0.84354331  0.86118539  0.28296520  1  0.00945  0  -0.017749  -0.01517  0  3.980606  0
C  C143  1  0.15645889  0.13881081  0.71703764  1  0.009452  0  -0.017794  -0.015084  0  3.980509  0
C  C144  1  0.87835899  0.85904241  0.21512860  1  -0.077517  0  -0.088929  -0.196162  0  3.913839  0
C  C145  1  0.12164320  0.14095780  0.78487360  1  -0.077527  0  -0.088888  -0.196209  0  3.913626  0
C  C146  1  0.46063002  0.84878970  0.29805597  1  1.566104  0  0.204702  0.585388  0  4.208163  0
C  C147  1  0.53937418  0.15121183  0.70194492  1  1.56644  0  0.204607  0.585227  0  4.208358  0
C  C148  1  0.04148444  0.36950535  0.80062281  1  1.555849  0  0.203027  0.582869  0  4.197971  0
C  C149  1  0.95852179  0.63049485  0.19937720  1  1.555849  0  0.202962  0.582601  0  4.19831  0
C  C150  1  0.18536084  0.37164235  0.76952195  1  -0.001531  0  -0.018225  -0.018412  0  3.990456  0
C  C151  1  0.81464541  0.62835514  0.23047510  1  -0.001665  0  -0.018161  -0.018336  0  3.990291  0
C  C152  1  0.28997161  0.37873045  0.80763510  1  -0.043889  0  -0.074628  -0.11111  0  3.922545  0
C  C153  1  0.71003262  0.62126834  0.19236039  1  -0.044197  0  -0.074636  -0.111116  0  3.922501  0
C  C154  1  0.42415215  0.37829854  0.77889795  1  0.016503  0  -0.015833  -0.010654  0  3.978719  0
C  C155  1  0.57585006  0.62169894  0.22110030  1  0.016461  0  -0.015881  -0.010778  0  3.978983  0
C  C156  1  0.45441772  0.37355845  0.71124692  1  -0.051769  0  -0.088101  -0.19362  0  3.906561  0
C  C157  1  0.54558248  0.62643833  0.28874962  1  -0.051243  0  -0.088071  -0.19356  0  3.90659  0
C  C158  1  0.34883430  0.36802263  0.67400848  1  0.368164  0  0.0809  0.243588  0  4.031354  0
C  C159  1  0.65116893  0.63197551  0.32598864  1  0.367243  0  0.080883  0.243494  0  4.03135  0
C  C160  1  0.21442392  0.36598921  0.70222087  1  -0.000261  0  -0.082342  -0.190343  0  3.933501  0
C  C161  1  0.78557528  0.63400622  0.29777594  1  0.000593  0  -0.082292  -0.190213  0  3.933588  0
C  C162  1  0.34629029  0.42710572  0.55882670  1  0.494245  0  0.111457  0.247926  0  3.996687  0
C  C163  1  0.65370483  0.57289507  0.44117290  1  0.494089  0  0.111394  0.247828  0  3.996686  0
C  C164  1  0.33341802  0.41527710  0.49316266  1  0.277314  0  0.068401  -0.043077  0  3.894646  0
C  C165  1  0.66658013  0.58472305  0.50683687  1  0.277736  0  0.068415  -0.043152  0  3.894724  0
C  C166  1  0.29430295  0.48666567  0.44476880  1  0.017664  0  -0.072118  -0.115023  0  3.952911  0
C  C167  1  0.70568913  0.51333510  0.55523098  1  0.01791  0  -0.072084  -0.114907  0  3.952823  0
C  C168  1  0.26748871  0.57007107  0.45986463  1  0.000892  0  -0.020883  -0.039917  0  3.96072  0
C  C169  1  0.73250541  0.42992770  0.54013486  1  0.000522  0  -0.020843  -0.039947  0  3.960731  0
C  C170  1  0.28394686  0.58231646  0.52432058  1  -0.035419  0  -0.067008  -0.03214  0  3.94076  0
C  C171  1  0.71604926  0.41768435  0.47567993  1  -0.035205  0  -0.067011  -0.032118  0  3.940765  0
C  C172  1  0.32294053  0.51251431  0.57229342  1  -0.020771  0  -0.104673  -0.221258  0  4.018897  0
C  C173  1  0.67705863  0.48748649  0.42770545  1  -0.020795  0  -0.104779  -0.221412  0  4.018999  0
C  C174  1  0.95277336  0.86343249  0.32644265  1  1.538084  0  0.199909  0.580668  0  4.185282  0
C  C175  1  0.04722377  0.13656704  0.67356190  1  1.537738  0  0.199839  0.58048  0  4.185273  0
C  C176  1  0.22361427  0.64765550  0.40934940  1  1.577969  0  0.207947  0.59451  0  4.204416  0
C  C177  1  0.77638185  0.35234665  0.59065138  1  1.578205  0  0.20801  0.594667  0  4.204311  0
C  C178  1  0.87970877  0.09895319  0.46614702  1  0.487105  0  0.049213  0.091532  0  3.961549  0
C  C179  1  0.12028434  0.90104229  0.53385598  1  0.486724  0  0.049196  0.091407  0  3.961844  0
C  C180  1  0.86159615  0.09547518  0.40087451  1  0.003741  0  -0.0776  -0.155074  0  3.927655  0
C  C181  1  0.13839693  0.90452564  0.59912812  1  0.004104  0  -0.077597  -0.154898  0  3.927624  0
C  C182  1  0.73161695  0.10662427  0.38093431  1  0.007168  0  0.019468  0.118048  0  3.958985  0
C  C183  1  0.26837411  0.89337720  0.61906833  1  0.00493  0  0.019532  0.118056  0  3.959088  0
C  C184  1  0.62497170  0.11932394  0.42911756  1  -0.039272  0  -0.075585  -0.162011  0  3.936953  0
C  C185  1  0.37501837  0.88067352  0.57088529  1  -0.03672  0  -0.075621  -0.162133  0  3.937104  0
C  C186  1  0.65092714  0.12170490  0.49349435  1  0.461223  0  0.049193  0.092326  0  3.931279  0
C  C187  1  0.34906698  0.87828989  0.50650724  1  0.461546  0  0.049231  0.092276  0  3.931236  0
C  C188  1  0.70744146  0.10896045  0.31139109  1  -0.039613  0  0.008828  0.098053  0  3.985354  0
C  C189  1  0.29255769  0.89104172  0.68861000  1  -0.039605  0  0.008782  0.098032  0  3.985497  0
C  C190  1  0.80223568  0.14700066  0.25740745  1  -0.063874  0  -0.085852  -0.170947  0  3.947608  0
C  C191  1  0.19776246  0.85300149  0.74259272  1  -0.064025  0  -0.085826  -0.17093  0  3.947473  0
C  C192  1  0.77106346  0.15319135  0.19243595  1  0.528633  0  0.039547  0.090236  0  3.989569  0
C  C193  1  0.22893163  0.84681214  0.80756516  1  0.52873  0  0.03952  0.090181  0  3.989331  0
C  C194  1  0.56498300  0.08568276  0.22986646  1  0.488892  0  0.038425  0.086543  0  4.007252  0
C  C195  1  0.43501210  0.91431872  0.77013546  1  0.488978  0  0.038367  0.086488  0  4.007493  0
C  C196  1  0.58685106  0.07621336  0.29656134  1  -0.010334  0  -0.085536  -0.174573  0  3.950858  0
C  C197  1  0.41314708  0.92378813  0.70343894  1  -0.010289  0  -0.085481  -0.174544  0  3.950975  0
N  N198  1  0.78197555  0.52956087  0.82573802  1  -1.212685  0  -0.325274  -0.238843  0  3.51142  0
N  N199  1  0.21802867  0.47043931  0.17426163  1  -1.212733  0  -0.325278  -0.238847  0  3.511438  0
N  N200  1  0.79255301  0.98536522  0.66583586  1  -1.225492  0  -0.327194  -0.244306  0  3.51138  0
N  N201  1  0.20744514  0.01463560  0.33416404  1  -1.225379  0  -0.327247  -0.244389  0  3.511436  0
N  N202  1  0.76697589  0.40335691  0.98502513  1  -1.24037  0  -0.332253  -0.235268  0  3.525885  0
N  N203  1  0.23302125  0.59664520  0.01497219  1  -1.240361  0  -0.332345  -0.235406  0  3.52593  0
N  N204  1  0.70547412  0.34060906  0.33802771  1  -1.190606  0  -0.318305  -0.258019  0  3.330494  0
N  N205  1  0.29452505  0.65938841  0.66197121  1  -1.19058  0  -0.318429  -0.258206  0  3.330777  0
N  N206  1  0.88278045  0.83533890  0.96935944  1  0.348661  0  0.052158  0.528403  0  4.201758  0
N  N207  1  0.11722171  0.16466665  0.03064287  1  0.348756  0  0.052324  0.528727  0  4.201591  0
N  N208  1  0.35792275  0.33004673  0.47368405  1  0.325998  0  0.056231  0.536111  0  4.195676  0
N  N209  1  0.64207743  0.66995475  0.52631417  1  0.325614  0  0.056407  0.536391  0  4.195586  0
N  N210  1  0.77648348  0.11181192  0.51178853  1  -1.223779  0  -0.333812  -0.240781  0  3.524751  0
N  N211  1  0.22350864  0.88817888  0.48821527  1  -1.22397  0  -0.333787  -0.240687  0  3.524911  0
N  N212  1  0.65377874  0.12453747  0.17806106  1  -1.200363  0  -0.323831  -0.267728  0  3.324227  0
N  N213  1  0.34621838  0.87546535  0.82193956  1  -1.200347  0  -0.32384  -0.267695  0  3.324261  0
O  O214  1  0.65400793  0.35519169  0.79834783  1  -1.174434  0  -0.3458  -0.600492  0  2.428983  0
O  O215  1  0.34599325  0.64480649  0.20165377  1  -1.174751  0  -0.345769  -0.600541  0  2.429013  0
O  O216  1  0.51491914  0.40748592  0.87508688  1  -1.171849  0  -0.327086  -0.555734  0  2.120463  0
O  O217  1  0.48507799  0.59251687  0.12491130  1  -1.171907  0  -0.327058  -0.555711  0  2.120729  0
O  O218  1  0.76583868  0.23076078  0.92984750  1  -1.163648  0  -0.333823  -0.552749  0  2.28745  0
O  O219  1  0.23416045  0.76924406  0.07015267  1  -1.163845  0  -0.333954  -0.552979  0  2.287392  0
O  O220  1  0.81779121  0.15510148  0.84585684  1  -1.160938  0  -0.324544  -0.569937  0  2.29866  0
O  O221  1  0.18220592  0.84490069  0.15414534  1  -1.161007  0  -0.324528  -0.569882  0  2.298454  0
O  O222  1  0.92878199  0.84123248  0.90892820  1  -0.535098  0  -0.160987  -0.397321  0  1.97308  0
O  O223  1  0.07121613  0.15877236  0.09107349  1  -0.535213  0  -0.161047  -0.39744  0  1.97309  0
O  O224  1  0.86709947  0.76308413  0.00978416  1  -0.437969  0  -0.123599  -0.321231  0  1.933794  0
O  O225  1  0.13290170  0.23691939  0.99021659  1  -0.437748  0  -0.123637  -0.321328  0  1.9338  0
O  O226  1  0.81352683  0.84545146  0.10891795  1  -1.072124  0  -0.133416  -0.181473  0  2.579919  0
O  O227  1  0.18647434  0.15455073  0.89108350  1  -1.072318  0  -0.133394  -0.181522  0  2.579877  0
O  O228  1  0.37409755  0.83701790  0.26002129  1  -1.196941  0  -0.342166  -0.602738  0  2.322112  0
O  O229  1  0.62590871  0.16298026  0.73997564  1  -1.197199  0  -0.342113  -0.602629  0  2.322296  0
O  O230  1  0.43169121  0.86004174  0.35788232  1  -1.161987  0  -0.325506  -0.546168  0  2.247042  0
O  O231  1  0.56830796  0.13995508  0.64211817  1  -1.161964  0  -0.325473  -0.54614  0  2.247061  0
O  O232  1  0.01686231  0.38376342  0.85968714  1  -1.151398  0  -0.325552  -0.53602  0  2.201468  0
O  O233  1  0.98314896  0.61624147  0.14031086  1  -1.151078  0  -0.325632  -0.535973  0  2.201485  0
O  O234  1  0.94981132  0.35633081  0.76526788  1  -1.200202  0  -0.344834  -0.613676  0  2.3369  0
O  O235  1  0.05018785  0.64366340  0.23473788  1  -1.200276  0  -0.344808  -0.613606  0  2.337104  0
O  O236  1  0.37927584  0.35824292  0.60721256  1  -1.068544  0  -0.135769  -0.186644  0  2.577841  0
O  O237  1  0.62072535  0.64175789  0.39278474  1  -1.068371  0  -0.135755  -0.186599  0  2.577607  0
O  O238  1  0.41942165  0.27141878  0.50919934  1  -0.432387  0  -0.116126  -0.315887  0  1.949945  0
O  O239  1  0.58058054  0.72858402  0.49079757  1  -0.432107  0  -0.11615  -0.315957  0  1.949904  0
O  O240  1  0.31605379  0.32008166  0.42044858  1  -0.528852  0  -0.159512  -0.397679  0  1.988352  0
O  O241  1  0.68394738  0.67992181  0.57954829  1  -0.528746  0  -0.15964  -0.397833  0  1.988376  0
O  O242  1  0.07330299  0.84129988  0.30292915  1  -1.172582  0  -0.346813  -0.609754  0  2.441566  0
O  O243  1  0.92669816  0.15870433  0.69707344  1  -1.172289  0  -0.34679  -0.609733  0  2.441647  0
O  O244  1  0.93039007  0.88724305  0.38146370  1  -1.163391  0  -0.32946  -0.544753  0  2.083999  0
O  O245  1  0.06960706  0.11275846  0.61853858  1  -1.163176  0  -0.329446  -0.544702  0  2.083931  0
O  O246  1  0.23401318  0.63991601  0.34837945  1  -1.171264  0  -0.325953  -0.574877  0  2.285478  0
O  O247  1  0.76598294  0.36008613  0.65162036  1  -1.171366  0  -0.32605  -0.575021  0  2.285454  0
O  O248  1  0.17989986  0.71463189  0.43282597  1  -1.171451  0  -0.336307  -0.553853  0  2.283608  0
O  O249  1  0.82009727  0.28536828  0.56717652  1  -1.171537  0  -0.336301  -0.553888  0  2.28359  0
