# generated using pymatgen
data_CdH54C58S2(N2O)6
_symmetry_space_group_name_H-M   'P 1'
_cell_length_a   9.66802558
_cell_length_b   9.85205688
_cell_length_c   14.81905756
_cell_angle_alpha   87.60322213
_cell_angle_beta   70.19612396
_cell_angle_gamma   75.11480216
_symmetry_Int_Tables_number   1
_chemical_formula_structural   CdH54C58S2(N2O)6
_chemical_formula_sum   'Cd1 H54 C58 S2 N12 O6'
_cell_volume   1281.88115027
_cell_formula_units_Z   1
loop_
 _symmetry_equiv_pos_site_id
 _symmetry_equiv_pos_as_xyz
  1  'x, y, z'
loop_
 _atom_site_type_symbol
 _atom_site_label
 _atom_site_symmetry_multiplicity
 _atom_site_fract_x
 _atom_site_fract_y
 _atom_site_fract_z
 _atom_site_occupancy
 _atom_site_pbe_bader_spin_density
 _atom_site_pbe_cm5_charge
 _atom_site_pbe_ddec_charge
 _atom_site_pbe_ddec_spin_density
 _atom_site_pbe_ddec_sum_bond_order
 _atom_site_pbe_magmom
Cd  Cd0  1  0.49999852  0.49999860  0.49999933  1  0  0.815983  0.894294  0  2.275048  0
H  H1  1  0.81726560  0.34908558  0.56720382  1  0  0.134325  0.104075  0  1.013397  0
H  H2  1  0.18271673  0.65091695  0.43280261  1  0  0.134344  0.104075  0  1.013424  0
H  H3  1  0.59416011  0.15132824  0.43292670  1  0  0.115705  0.119995  0  1.028663  0
H  H4  1  0.40583953  0.84865951  0.56707372  1  0  0.115688  0.119966  0  1.028488  0
H  H5  1  0.47714849  0.56027544  0.28318363  1  0  0.13131  0.102559  0  1.033711  0
H  H6  1  0.52285116  0.43972809  0.71681766  1  0  0.131298  0.10254  0  1.033757  0
H  H7  1  0.02224961  0.46358595  0.38989708  1  0  0.10913  0.119397  0  0.995981  0
H  H8  1  0.97775815  0.53642805  0.61010078  1  0  0.109197  0.119555  0  0.995918  0
H  H9  1  0.73667657  0.95332582  0.53217213  1  0  0.121989  0.128815  0  1.055841  0
H  H10  1  0.26332315  0.04667350  0.46782859  1  0  0.121984  0.128847  0  1.055766  0
H  H11  1  0.46730835  0.29248318  0.18093782  1  0  0.106266  0.109514  0  1.020766  0
H  H12  1  0.53268841  0.70749929  0.81905798  1  0  0.106272  0.109562  0  1.020664  0
H  H13  1  0.74486695  0.73142136  0.39601551  1  0  0.116766  0.123254  0  1.02908  0
H  H14  1  0.25513273  0.26857798  0.60398860  1  0  0.116754  0.123222  0  1.02919  0
H  H15  1  0.67684573  0.90365961  0.25422970  1  0  0.126646  0.131256  0  1.029161  0
H  H16  1  0.32316667  0.09633758  0.74576901  1  0  0.126673  0.131333  0  1.029068  0
H  H17  1  0.90189537  0.85694042  0.58926219  1  0  0.104023  0.113287  0  1.060182  0
H  H18  1  0.09810014  0.14306208  0.41074273  1  0  0.104017  0.113288  0  1.060241  0
H  H19  1  0.04662845  0.74983623  0.69171572  1  0  0.100096  0.098295  0  1.037123  0
H  H20  1  0.95337141  0.25017045  0.30828677  1  0  0.100104  0.098286  0  1.037157  0
H  H21  1  0.49732290  0.60397639  0.12142656  1  0  0.101282  0.104156  0  1.026523  0
H  H22  1  0.50268401  0.39602080  0.87857267  1  0  0.101282  0.104188  0  1.026514  0
H  H23  1  0.88991577  0.26935198  0.68597967  1  0  0.10019  0.104147  0  1.041146  0
H  H24  1  0.11007620  0.73065155  0.31402193  1  0  0.10017  0.104125  0  1.041237  0
H  H25  1  0.44594653  0.02014298  0.23055789  1  0  0.108667  0.130238  0  1.030614  0
H  H26  1  0.55405651  0.97985632  0.76944076  1  0  0.108674  0.130268  0  1.030602  0
H  H27  1  0.37453447  0.40474425  0.05174224  1  0  0.094001  0.093792  0  1.049075  0
H  H28  1  0.62545883  0.59523086  0.94825318  1  0  0.093956  0.093826  0  1.049027  0
H  H29  1  0.92984816  0.57128788  0.25945098  1  0  0.096577  0.09665  0  1.056759  0
H  H30  1  0.07015687  0.42872403  0.74054889  1  0  0.09663  0.096702  0  1.056809  0
H  H31  1  0.03491386  0.15951348  0.78948781  1  0  0.101877  0.092992  0  1.044328  0
H  H32  1  0.96508739  0.84049632  0.21050956  1  0  0.101865  0.092933  0  1.044394  0
H  H33  1  0.35892329  0.70906310  0.01069429  1  0  0.102012  0.092489  0  1.040144  0
H  H34  1  0.64107870  0.29093201  0.98930607  1  0  0.102039  0.092485  0  1.040147  0
H  H35  1  0.31182094  0.12228817  0.11995207  1  0  0.100816  0.099421  0  1.034166  0
H  H36  1  0.68817909  0.87771008  0.88004794  1  0  0.100835  0.099425  0  1.034112  0
H  H37  1  0.27279153  0.69058506  0.84803022  1  0  0.09013  0.124513  0  1.054357  0
H  H38  1  0.72721638  0.30942053  0.15196651  1  0  0.090152  0.124645  0  1.054251  0
H  H39  1  0.28691800  0.69244356  0.72427985  1  0  0.09925  0.15537  0  1.00361  0
H  H40  1  0.71308435  0.30756623  0.27571729  1  0  0.099286  0.155441  0  1.003627  0
H  H41  1  0.12079965  0.66687132  0.81280338  1  0  0.092681  0.136006  0  1.013538  0
H  H42  1  0.87920330  0.33313637  0.18719302  1  0  0.092678  0.136048  0  1.013448  0
H  H43  1  0.96763547  0.60346265  0.09281195  1  0  0.091982  0.128894  0  1.012225  0
H  H44  1  0.03236578  0.39653137  0.90718320  1  0  0.091986  0.128851  0  1.012236  0
H  H45  1  0.13100541  0.49663608  0.00465987  1  0  0.091454  0.129772  0  1.008841  0
H  H46  1  0.86899693  0.50335795  0.99533639  1  0  0.091373  0.129643  0  1.008954  0
H  H47  1  0.13598023  0.66126546  0.04492617  1  0  0.09532  0.136944  0  1.016178  0
H  H48  1  0.86402211  0.33872856  0.95506942  1  0  0.095319  0.136902  0  1.016237  0
H  H49  1  0.11510711  0.17038846  0.94842820  1  0  0.094796  0.131531  0  1.063201  0
H  H50  1  0.88489500  0.82961403  0.05157529  1  0  0.09478  0.131519  0  1.063102  0
H  H51  1  0.27083601  0.19646596  0.97901309  1  0  0.089894  0.130963  0  1.032547  0
H  H52  1  0.72916699  0.80353336  0.02098895  1  0  0.089908  0.130979  0  1.03256  0
H  H53  1  0.10507513  0.17686671  0.07104463  1  0  0.094364  0.141475  0  1.018133  0
H  H54  1  0.89492807  0.82313578  0.92895929  1  0  0.094377  0.14149  0  1.018112  0
C  C55  1  0.77597896  0.26977370  0.54344187  1  0  0.138211  0.098507  0  3.915033  0
C  C56  1  0.22400860  0.73022985  0.45656137  1  0  0.138275  0.098548  0  3.915421  0
C  C57  1  0.66325849  0.16286322  0.47517812  1  0  -0.004952  -0.025021  0  3.983381  0
C  C58  1  0.33674234  0.83712031  0.52481946  1  0  -0.004917  -0.024933  0  3.983458  0
C  C59  1  0.25076938  0.37415061  0.29331530  1  0  -0.024625  -0.100135  0  3.992347  0
C  C60  1  0.74923256  0.62584869  0.70668359  1  0  -0.024636  -0.100043  0  3.992166  0
C  C61  1  0.54574753  0.62614935  0.29291872  1  0  0.135014  0.094013  0  3.917237  0
C  C62  1  0.45425435  0.37384999  0.70708558  1  0  0.134958  0.093938  0  3.917406  0
C  C63  1  0.09942856  0.45138326  0.31563684  1  0  -0.085425  -0.088992  0  3.990862  0
C  C64  1  0.90057516  0.54862549  0.68436206  1  0  -0.08553  -0.089317  0  3.991104  0
C  C65  1  0.73350096  0.06353243  0.52379800  1  0  0.005219  -0.079348  0  3.866857  0
C  C66  1  0.26650125  0.93646167  0.47620774  1  0  0.005259  -0.079422  0  3.866954  0
C  C67  1  0.35036744  0.35650386  0.19812281  1  0  -0.088973  -0.093463  0  3.999398  0
C  C68  1  0.64963056  0.64348597  0.80187452  1  0  -0.088996  -0.093477  0  3.999167  0
C  C69  1  0.68129658  0.72040415  0.34996539  1  0  -0.004306  -0.032789  0  3.994805  0
C  C70  1  0.31870336  0.27959832  0.65003586  1  0  -0.004264  -0.032728  0  3.994806  0
C  C71  1  0.88775031  0.07063772  0.62871644  1  0  0.10141  0.181564  0  3.988933  0
C  C72  1  0.11223871  0.92936057  0.37128663  1  0  0.101336  0.181568  0  3.988936  0
C  C73  1  0.64716818  0.80737930  0.28144823  1  0  0.003964  -0.091161  0  3.875477  0
C  C74  1  0.35283764  0.19261789  0.71855056  1  0  0.003941  -0.091284  0  3.875484  0
C  C75  1  0.48375833  0.80574497  0.18099142  1  0  0.095846  0.171561  0  4.014059  0
C  C76  1  0.51624829  0.19425327  0.81900716  1  0  0.095844  0.171622  0  4.014126  0
C  C77  1  0.93044260  0.92445521  0.63276427  1  0  -0.09617  -0.173387  0  3.978481  0
C  C78  1  0.06955151  0.07554835  0.36724159  1  0  -0.096056  -0.173265  0  3.978435  0
C  C79  1  0.14360271  0.87964206  0.80902112  1  0  0.146724  0.268228  0  3.91049  0
C  C80  1  0.85639662  0.12036670  0.19097806  1  0  0.146731  0.26821  0  3.910385  0
C  C81  1  0.05439736  0.94617326  0.74814537  1  0  -0.013082  -0.001797  0  3.986546  0
C  C82  1  0.94559998  0.05383867  0.25185481  1  0  -0.01295  -0.001519  0  3.986192  0
C  C83  1  0.01299418  0.86394828  0.69142709  1  0  -0.083534  -0.087745  0  3.970952  0
C  C84  1  0.98700488  0.13605736  0.30857561  1  0  -0.083614  -0.087917  0  3.970962  0
C  C85  1  0.45711240  0.71778867  0.12021924  1  0  -0.097073  -0.185439  0  4.02111  0
C  C86  1  0.54289341  0.28220853  0.87978022  1  0  -0.097072  -0.185451  0  4.021117  0
C  C87  1  0.32667000  0.92286964  0.05583993  1  0  -0.009347  0.008224  0  3.978461  0
C  C88  1  0.67332912  0.07713180  0.94416289  1  0  -0.009388  0.008163  0  3.978595  0
C  C89  1  0.92528143  0.15518808  0.68600941  1  0  -0.093018  -0.164302  0  3.973313  0
C  C90  1  0.07470889  0.84481754  0.31398979  1  0  -0.092935  -0.164385  0  3.973433  0
C  C91  1  0.14647708  0.49844540  0.14654683  1  0  -0.008444  0.170674  0  3.975067  0
C  C92  1  0.85352092  0.50154443  0.85345050  1  0  -0.008455  0.170561  0  3.975219  0
C  C93  1  0.43080038  0.95160771  0.18063563  1  0  -0.086695  -0.15695  0  3.941476  0
C  C94  1  0.56920317  0.04839370  0.81936420  1  0  -0.086706  -0.157069  0  3.941541  0
C  C95  1  0.29757388  0.41916819  0.12594272  1  0  -0.097143  -0.149568  0  3.974652  0
C  C96  1  0.70242008  0.58081639  0.87405497  1  0  -0.09703  -0.149536  0  3.974518  0
C  C97  1  0.04829311  0.51188545  0.24198383  1  0  -0.09183  -0.141983  0  3.953748  0
C  C98  1  0.95171090  0.48812226  0.75801504  1  0  -0.091855  -0.141939  0  3.953954  0
C  C99  1  0.00678199  0.09353835  0.74478605  1  0  -0.078703  -0.082613  0  3.965078  0
C  C100  1  0.99321317  0.90647357  0.25521326  1  0  -0.078842  -0.082632  0  3.965132  0
C  C101  1  0.37942406  0.77618949  0.05867622  1  0  -0.081774  -0.092265  0  3.987066  0
C  C102  1  0.62057264  0.22380879  0.94132654  1  0  -0.081802  -0.09228  0  3.98713  0
C  C103  1  0.35326980  0.00848346  0.11845354  1  0  -0.077028  -0.078068  0  3.939849  0
C  C104  1  0.64673071  0.99151692  0.88154900  1  0  -0.077033  -0.078025  0  3.939688  0
C  C105  1  0.21009705  0.72326704  0.79836844  1  0  -0.243791  -0.460965  0  3.942771  0
C  C106  1  0.78990727  0.27673960  0.20162836  1  0  -0.243858  -0.461247  0  3.942693  0
C  C107  1  0.09226049  0.56814734  0.06829142  1  0  -0.238305  -0.417963  0  3.945067  0
C  C108  1  0.90774102  0.43184564  0.93170573  1  0  -0.238239  -0.41773  0  3.9452  0
C  C109  1  0.24563111  0.98566913  0.98989320  1  0  0.146457  0.268911  0  3.915478  0
C  C110  1  0.75437332  0.01432911  0.01010518  1  0  0.146435  0.268903  0  3.915498  0
C  C111  1  0.17965709  0.14183315  0.99724204  1  0  -0.247674  -0.461761  0  3.94054  0
C  C112  1  0.82034283  0.85816934  0.00276124  1  0  -0.247654  -0.461746  0  3.940517  0
S  S113  1  0.32170764  0.30269353  0.38623395  1  0  0.506781  1.16422  0  6.219354  0
S  S114  1  0.67829591  0.69730787  0.61376520  1  0  0.50685  1.164305  0  6.218948  0
N  N115  1  0.69003396  0.29123458  0.48808364  1  0  -0.359944  -0.317169  0  3.510358  0
N  N116  1  0.30995243  0.70875740  0.51191818  1  0  -0.360023  -0.317219  0  3.510475  0
N  N117  1  0.80440819  0.13226746  0.56804580  1  0  -0.222254  0.004297  0  3.772484  0
N  N118  1  0.19558713  0.86773187  0.43195655  1  0  -0.222291  0.004291  0  3.772589  0
N  N119  1  0.61677713  0.60807404  0.35671636  1  0  -0.356494  -0.308886  0  3.4673  0
N  N120  1  0.38322388  0.39192845  0.64328736  1  0  -0.356441  -0.308814  0  3.467285  0
N  N121  1  0.56019003  0.74666491  0.24564154  1  0  -0.227222  0.003767  0  3.786706  0
N  N122  1  0.43981608  0.25333123  0.75435721  1  0  -0.22721  0.003811  0  3.786832  0
N  N123  1  0.15852838  0.96378806  0.86910005  1  0  -0.216743  -0.221148  0  3.318612  0
N  N124  1  0.84147482  0.03621859  0.13089835  1  0  -0.21671  -0.221117  0  3.318563  0
N  N125  1  0.23702879  0.89986808  0.92811858  1  0  -0.216957  -0.227416  0  3.303817  0
N  N126  1  0.76297366  0.10013332  0.07188082  1  0  -0.216986  -0.22743  0  3.303785  0
O  O127  1  0.39749231  0.40887005  0.40161987  1  0  -0.362212  -0.633479  0  2.359836  0
O  O128  1  0.60251707  0.59113026  0.59837467  1  0  -0.362216  -0.633536  0  2.359799  0
O  O129  1  0.43055625  0.16749846  0.34803437  1  0  -0.34012  -0.589419  0  2.179689  0
O  O130  1  0.56944351  0.83250084  0.65196432  1  0  -0.340164  -0.58944  0  2.179542  0
O  O131  1  0.18955080  0.29452212  0.47012775  1  0  -0.345354  -0.597682  0  2.169378  0
O  O132  1  0.81045605  0.70547927  0.52987136  1  0  -0.345364  -0.597712  0  2.169255  0
