# generated using pymatgen
data_UH10(C7O3)2
_symmetry_space_group_name_H-M   'P 1'
_cell_length_a   5.34946219
_cell_length_b   7.22027159
_cell_length_c   9.48311790
_cell_angle_alpha   67.55426993
_cell_angle_beta   87.45908062
_cell_angle_gamma   83.31584860
_symmetry_Int_Tables_number   1
_chemical_formula_structural   UH10(C7O3)2
_chemical_formula_sum   'U1 H10 C14 O6'
_cell_volume   336.23141066
_cell_formula_units_Z   1
loop_
 _symmetry_equiv_pos_site_id
 _symmetry_equiv_pos_as_xyz
  1  'x, y, z'
loop_
 _atom_site_type_symbol
 _atom_site_label
 _atom_site_symmetry_multiplicity
 _atom_site_fract_x
 _atom_site_fract_y
 _atom_site_fract_z
 _atom_site_occupancy
 _atom_site_pbe_bader_spin_density
 _atom_site_pbe_cm5_charge
 _atom_site_pbe_ddec_charge
 _atom_site_pbe_ddec_spin_density
 _atom_site_pbe_ddec_sum_bond_order
 _atom_site_pbe_magmom
U  U0  1  0.99997629  0.00003503  0.99999714  1  0  2.223061  2.493451  0  4.915359  0
H  H1  1  0.12127111  0.35620496  0.55967662  1  0  0.106437  0.10063  0  1.035936  0
H  H2  1  0.87886291  0.08417736  0.56022381  1  0  0.106322  0.100623  0  1.036491  0
H  H3  1  0.87874498  0.64377189  0.44032812  1  0  0.106396  0.100547  0  1.035981  0
H  H4  1  0.12114842  0.91581239  0.43977579  1  0  0.106261  0.100563  0  1.036595  0
H  H5  1  0.50024781  0.43306191  0.13347481  1  0  0.114619  0.112126  0  0.992791  0
H  H6  1  0.49977075  0.56694131  0.86652790  1  0  0.114634  0.112242  0  0.992763  0
H  H7  1  0.12125877  0.49966889  0.27407937  1  0  0.108556  0.102304  0  1.031384  0
H  H8  1  0.87914749  0.22593996  0.27460173  1  0  0.108435  0.102013  0  1.030865  0
H  H9  1  0.87876256  0.50034057  0.72592465  1  0  0.108516  0.102298  0  1.03127  0
H  H10  1  0.12086654  0.77406865  0.72540167  1  0  0.108433  0.102012  0  1.030764  0
C  C11  1  0.49986790  0.12767050  0.74521488  1  0  0.262364  0.674753  0  4.092819  0
C  C12  1  0.50011536  0.87231678  0.25478723  1  0  0.262218  0.674766  0  4.093013  0
C  C13  1  0.50006199  0.21185199  0.57650939  1  0  -0.018663  -0.064954  0  3.987457  0
C  C14  1  0.49994811  0.78812204  0.42348631  1  0  -0.018658  -0.065185  0  3.987341  0
C  C15  1  0.28590609  0.32838103  0.49608088  1  0  -0.077954  -0.082734  0  3.959195  0
C  C16  1  0.71436287  0.17556027  0.49637574  1  0  -0.07753  -0.083377  0  3.959225  0
C  C17  1  0.71409819  0.67159820  0.50392600  1  0  -0.077807  -0.082583  0  3.959081  0
C  C18  1  0.28564195  0.82442119  0.50362456  1  0  -0.077504  -0.083308  0  3.959385  0
C  C19  1  0.50026570  0.37106184  0.25777941  1  0  -0.067315  -0.036935  0  3.916454  0
C  C20  1  0.49973305  0.62893557  0.74222311  1  0  -0.067329  -0.037134  0  3.916596  0
C  C21  1  0.28664711  0.40832749  0.33730514  1  0  -0.084731  -0.091041  0  3.987044  0
C  C22  1  0.71369439  0.25414491  0.33759988  1  0  -0.084598  -0.089531  0  3.986519  0
C  C23  1  0.71335881  0.59165921  0.66269597  1  0  -0.084701  -0.090912  0  3.986745  0
C  C24  1  0.28631561  0.74584498  0.66239518  1  0  -0.084618  -0.089526  0  3.986735  0
O  O25  1  0.89733878  0.24746163  0.00008715  1  0  -0.752824  -0.687918  0  1.806472  0
O  O26  1  0.10260793  0.75259568  0.99989580  1  0  -0.752531  -0.687616  0  1.805696  0
O  O27  1  0.29237543  0.13739556  0.81568292  1  0  -0.377421  -0.651272  0  2.371769  0
O  O28  1  0.70719119  0.04732171  0.81595261  1  0  -0.377367  -0.651521  0  2.371739  0
O  O29  1  0.70761491  0.86263075  0.18431224  1  0  -0.377378  -0.6513  0  2.371719  0
O  O30  1  0.29279320  0.95266649  0.18405449  1  0  -0.37732  -0.651481  0  2.371744  0
