# generated using pymatgen
data_Zn4H9C21N3O13
_symmetry_space_group_name_H-M   'P 1'
_cell_length_a   16.62590782
_cell_length_b   16.41313178
_cell_length_c   17.10571624
_cell_angle_alpha   119.70335525
_cell_angle_beta   89.93687219
_cell_angle_gamma   118.25278026
_symmetry_Int_Tables_number   1
_chemical_formula_structural   Zn4H9C21N3O13
_chemical_formula_sum   'Zn8 H18 C42 N6 O26'
_cell_volume   3401.18430958
_cell_formula_units_Z   2
loop_
 _symmetry_equiv_pos_site_id
 _symmetry_equiv_pos_as_xyz
  1  'x, y, z'
loop_
 _atom_site_type_symbol
 _atom_site_label
 _atom_site_symmetry_multiplicity
 _atom_site_fract_x
 _atom_site_fract_y
 _atom_site_fract_z
 _atom_site_occupancy
 _atom_site_pbe_bader_charge
 _atom_site_pbe_bader_spin_density
 _atom_site_pbe_cm5_charge
 _atom_site_pbe_ddec_charge
 _atom_site_pbe_ddec_spin_density
 _atom_site_pbe_ddec_sum_bond_order
 _atom_site_pbe_magmom
Zn  Zn0  1  0.06122710  0.09268490  0.94915100  1  1.31403  0  0.677257  0.968175  0  2.358295  0
Zn  Zn1  1  0.05381850  0.09290786  0.13582128  1  1.315824  0  0.684067  0.987189  0  2.320913  0
Zn  Zn2  1  0.05590311  0.89841152  0.94926663  1  1.296777  0  0.672336  0.955879  0  2.36256  0
Zn  Zn3  1  0.86850448  0.89812407  0.94499430  1  1.320291  0  0.684817  0.984448  0  2.327448  0
Zn  Zn4  1  0.45649713  0.90425206  0.55351362  1  1.305995  0  0.67503  0.961047  0  2.356464  0
Zn  Zn5  1  0.45974512  0.90217090  0.36542884  1  1.327337  0  0.684045  0.983827  0  2.333808  0
Zn  Zn6  1  0.64382371  0.09121561  0.55135139  1  1.312517  0  0.684428  0.987946  0  2.312299  0
Zn  Zn7  1  0.44704745  0.08985219  0.54591463  1  1.30643  0  0.676354  0.969339  0  2.32786  0
H  H8  1  0.36919584  0.31929478  0.13939334  1  0.061298  0  0.106343  0.109901  0  1.008946  0
H  H9  1  0.52702858  0.50137639  0.24341666  1  0.053738  0  0.115505  0.080512  0  0.966661  0
H  H10  1  0.23028814  0.49831497  0.26278058  1  0.09277  0  0.118627  0.135077  0  0.969183  0
H  H11  1  0.95143553  0.74845302  0.62338437  1  0.071997  0  0.112502  0.120691  0  0.985459  0
H  H12  1  0.97818955  0.68772954  0.46503588  1  0.079901  0  0.115008  0.079544  0  0.967213  0
H  H13  1  0.25296876  0.01080957  0.74894880  1  0.105696  0  0.119173  0.134239  0  0.968582  0
H  H14  1  0.84066187  0.19705477  0.03324681  1  0.082963  0  0.110332  0.116625  0  0.988241  0
H  H15  1  0.73139893  0.25385198  0.01151699  1  0.069346  0  0.113352  0.076685  0  0.971297  0
H  H16  1  0.76112106  0.98285191  0.72853737  1  0.101698  0  0.118869  0.133429  0  0.970271  0
H  H17  1  0.37453080  0.16436598  0.12886091  1  0.065192  0  0.108191  0.113363  0  1.002966  0
H  H18  1  0.53081739  0.22990534  0.22653519  1  0.072666  0  0.115343  0.079699  0  0.967443  0
H  H19  1  0.23147174  0.98885691  0.25838243  1  0.106956  0  0.118291  0.133334  0  0.970367  0
H  H20  1  0.84372786  0.79907837  0.15332940  1  0.075957  0  0.10565  0.108877  0  1.009735  0
H  H21  1  0.76362416  0.73958353  0.25589808  1  0.080196  0  0.115268  0.079782  0  0.967627  0
H  H22  1  0.76297411  0.04063945  0.25883909  1  0.09083  0  0.116831  0.13089  0  0.973038  0
H  H23  1  0.86307693  0.64930534  0.01741068  1  0.09647  0  0.107639  0.112744  0  1.002774  0
H  H24  1  0.75280320  0.45887121  0.98593372  1  0.070421  0  0.115094  0.079974  0  0.970515  0
H  H25  1  0.74206570  0.50425844  0.72310983  1  0.092995  0  0.118034  0.133712  0  0.970893  0
C  C26  1  0.19323453  0.28560604  0.13680820  1  1.580018  0  0.235957  0.615739  0  4.142596  0
C  C27  1  0.28770625  0.39483094  0.19519216  1  -0.074355  0  0.004396  0.030139  0  3.963745  0
C  C28  1  0.37206284  0.39609675  0.18798584  1  -0.007343  0  -0.084585  -0.165404  0  3.968851  0
C  C29  1  0.45960973  0.49756048  0.24504397  1  0.552653  0  0.047379  0.097357  0  4.023377  0
C  C30  1  0.38588981  0.59277647  0.30666000  1  0.531238  0  0.123293  0.136194  0  3.971204  0
C  C31  1  0.29422067  0.49539424  0.25599120  1  0.075508  0  -0.073975  -0.17134  0  3.897426  0
C  C32  1  0.40098405  0.70680705  0.36805710  1  1.598896  0  0.241256  0.60305  0  4.13696  0
C  C33  1  0.08812804  0.92753212  0.79465339  1  1.593492  0  0.238438  0.619256  0  4.1478  0
C  C34  1  0.10054554  0.88496093  0.69833763  1  -0.080413  0  0.005349  0.028687  0  3.972587  0
C  C35  1  0.02259383  0.79208868  0.61777464  1  0.020711  0  -0.083795  -0.166503  0  3.963997  0
C  C36  1  0.03803795  0.75755679  0.52976851  1  0.519248  0  0.046295  0.099567  0  4.02451  0
C  C37  1  0.19860734  0.89185122  0.59669952  1  0.541482  0  0.1216  0.133963  0  3.987164  0
C  C38  1  0.19052611  0.93779870  0.68788065  1  -0.008022  0  -0.07497  -0.17078  0  3.899839  0
C  C39  1  0.29605233  0.93671514  0.58230259  1  1.614648  0  0.241349  0.605198  0  4.147977  0
C  C40  1  0.86827714  0.04400494  0.89476130  1  1.572707  0  0.240622  0.626474  0  4.137675  0
C  C41  1  0.80777076  0.08379428  0.88218921  1  -0.057841  0  0.005007  0.028013  0  3.975024  0
C  C42  1  0.80059586  0.16228986  0.96259228  1  -0.067527  0  -0.085834  -0.16921  0  3.974462  0
C  C43  1  0.73964661  0.19369102  0.95013421  1  0.569579  0  0.045352  0.094809  0  4.033339  0
C  C44  1  0.69812475  0.08097856  0.78916177  1  0.55349  0  0.123265  0.132338  0  3.979265  0
C  C45  1  0.75655262  0.04291344  0.79310889  1  0.017065  0  -0.074911  -0.170139  0  3.902046  0
C  C46  1  0.64090499  0.04076828  0.69521051  1  1.618337  0  0.241452  0.603515  0  4.13934  0
C  C47  1  0.19690630  0.03443192  0.13101818  1  1.571737  0  0.235415  0.615713  0  4.14407  0
C  C48  1  0.29105431  0.07258520  0.18723235  1  -0.027296  0  0.005494  0.02844  0  3.966547  0
C  C49  1  0.37609730  0.13972364  0.17712920  1  -0.027684  0  -0.084397  -0.166217  0  3.969554  0
C  C50  1  0.46279890  0.17449323  0.23032685  1  0.536473  0  0.046405  0.101529  0  4.024035  0
C  C51  1  0.38652403  0.07552701  0.29404451  1  0.582177  0  0.122575  0.132777  0  3.983615  0
C  C52  1  0.29601303  0.04091053  0.24834669  1  -0.048326  0  -0.073589  -0.167036  0  3.897443  0
C  C53  1  0.39923927  0.03780808  0.35501952  1  1.603229  0  0.241119  0.603288  0  4.147837  0
C  C54  1  0.86260421  0.96416343  0.14092236  1  1.612923  0  0.239203  0.624325  0  4.139882  0
C  C55  1  0.81034679  0.92554031  0.19918593  1  -0.026189  0  0.005628  0.030569  0  3.965352  0
C  C56  1  0.80924547  0.83886444  0.19734882  1  -0.036601  0  -0.086631  -0.169158  0  3.97226  0
C  C57  1  0.76404293  0.80540406  0.25400571  1  0.50501  0  0.047659  0.100394  0  4.025324  0
C  C58  1  0.71859735  0.93058106  0.30724755  1  0.523727  0  0.12251  0.132469  0  3.97944  0
C  C59  1  0.76429884  0.97328233  0.25565566  1  0.036916  0  -0.075616  -0.172534  0  3.904171  0
C  C60  1  0.66037783  0.96982002  0.36511088  1  1.618266  0  0.242695  0.605246  0  4.144555  0
C  C61  1  0.87007670  0.70507566  0.89204952  1  1.577186  0  0.233257  0.610222  0  4.13835  0
C  C62  1  0.80878762  0.59110780  0.87286221  1  -0.081124  0  0.004026  0.026988  0  3.963543  0
C  C63  1  0.81370875  0.57790064  0.94713110  1  -0.018399  0  -0.083432  -0.162055  0  3.965403  0
C  C64  1  0.75344443  0.47196243  0.92910291  1  0.5066  0  0.047766  0.097902  0  4.020162  0
C  C65  1  0.69387781  0.39434744  0.77200570  1  0.548169  0  0.122272  0.132942  0  3.973762  0
C  C66  1  0.74705675  0.49743397  0.78289609  1  0.027873  0  -0.071954  -0.165086  0  3.895295  0
C  C67  1  0.63326200  0.28548919  0.67653125  1  1.58976  0  0.241351  0.604425  0  4.138219  0
N  N68  1  0.46747164  0.59498295  0.30374777  1  -1.172243  0  -0.315278  -0.279543  0  3.270034  0
N  N69  1  0.12446046  0.80452394  0.51827063  1  -1.169224  0  -0.324663  -0.295599  0  3.268883  0
N  N70  1  0.68787526  0.15344304  0.86539037  1  -1.159579  0  -0.315659  -0.278943  0  3.278801  0
N  N71  1  0.46900018  0.14220711  0.28708650  1  -1.161709  0  -0.322906  -0.292758  0  3.270157  0
N  N72  1  0.71892148  0.84951495  0.30817398  1  -1.157887  0  -0.31717  -0.282381  0  3.273925  0
N  N73  1  0.69447347  0.38095766  0.84320954  1  -1.14427  0  -0.312877  -0.276473  0  3.274077  0
O  O74  1  0.00827345  0.99825335  0.99758322  1  -1.210094  0  -0.578725  -1.050742  0  2.556197  0
O  O75  1  0.13839393  0.25187272  0.18053620  1  -1.165347  0  -0.312866  -0.546771  0  2.276783  0
O  O76  1  0.17751424  0.23486982  0.04766217  1  -1.160374  0  -0.306577  -0.532039  0  2.299413  0
O  O77  1  0.38507416  0.74439610  0.32419169  1  -1.164496  0  -0.313669  -0.544191  0  2.284508  0
O  O78  1  0.42982406  0.75514320  0.45675688  1  -1.148497  0  -0.301606  -0.519957  0  2.301893  0
O  O79  1  0.06469749  0.86264086  0.82253444  1  -1.155622  0  -0.308006  -0.535893  0  2.29589  0
O  O80  1  0.10228166  0.02474640  0.83953162  1  -1.16101  0  -0.308399  -0.536948  0  2.299866  0
O  O81  1  0.32929810  0.02066396  0.57700305  1  -1.160119  0  -0.306263  -0.530335  0  2.293608  0
O  O82  1  0.33512942  0.88482731  0.57786972  1  -1.155756  0  -0.305385  -0.529273  0  2.314223  0
O  O83  1  0.82281007  0.94973900  0.88497087  1  -1.161359  0  -0.310748  -0.542371  0  2.293897  0
O  O84  1  0.95840706  0.10879583  0.91616198  1  -1.155932  0  -0.304368  -0.532167  0  2.293363  0
O  O85  1  0.68848776  0.07765911  0.64954827  1  -1.166677  0  -0.307446  -0.538394  0  2.290556  0
O  O86  1  0.55077892  0.97388869  0.67116164  1  -1.153943  0  -0.304332  -0.522225  0  2.30294  0
O  O87  1  0.17943570  0.97717637  0.04141870  1  -1.141508  0  -0.310181  -0.534279  0  2.289765  0
O  O88  1  0.14392020  0.06265863  0.17629168  1  -1.165626  0  -0.311096  -0.546884  0  2.276272  0
O  O89  1  0.41080075  0.09960515  0.44224829  1  -1.158582  0  -0.302912  -0.525358  0  2.300977  0
O  O90  1  0.39870483  0.94812141  0.31209006  1  -1.159969  0  -0.308896  -0.534765  0  2.300455  0
O  O91  1  0.82064631  0.90121129  0.05242733  1  -1.167424  0  -0.306915  -0.541013  0  2.29597  0
O  O92  1  0.94552333  0.05465298  0.18581329  1  -1.170264  0  -0.310908  -0.538993  0  2.28499  0
O  O93  1  0.70369225  0.04845722  0.45225218  1  -1.16756  0  -0.305984  -0.529122  0  2.295136  0
O  O94  1  0.57288717  0.91782497  0.32045292  1  -1.160952  0  -0.303894  -0.531599  0  2.307345  0
O  O95  1  0.95851202  0.75980201  0.93738689  1  -1.154123  0  -0.310706  -0.537487  0  2.286005  0
O  O96  1  0.82982495  0.73969297  0.86399964  1  -1.16334  0  -0.314044  -0.545623  0  2.264861  0
O  O97  1  0.54304009  0.24009395  0.65693099  1  -1.132028  0  -0.303402  -0.520679  0  2.29211  0
O  O98  1  0.67937143  0.24838365  0.62604773  1  -1.167418  0  -0.315009  -0.5491  0  2.288815  0
O  O99  1  0.50300374  0.99859152  0.50393218  1  -1.215356  0  -0.572193  -1.04109  0  2.525405  0
