# generated using pymatgen
data_Tl2H6C9O7
_symmetry_space_group_name_H-M   'P 1'
_cell_length_a   4.14117328
_cell_length_b   16.47694731
_cell_length_c   17.56795194
_cell_angle_alpha   89.99967261
_cell_angle_beta   89.99980330
_cell_angle_gamma   100.74200189
_symmetry_Int_Tables_number   1
_chemical_formula_structural   Tl2H6C9O7
_chemical_formula_sum   'Tl8 H24 C36 O28'
_cell_volume   1177.72373856
_cell_formula_units_Z   4
loop_
 _symmetry_equiv_pos_site_id
 _symmetry_equiv_pos_as_xyz
  1  'x, y, z'
loop_
 _atom_site_type_symbol
 _atom_site_label
 _atom_site_symmetry_multiplicity
 _atom_site_fract_x
 _atom_site_fract_y
 _atom_site_fract_z
 _atom_site_occupancy
 _atom_site_hle17_bader_spin_density
 _atom_site_hle17_ddec_charge
 _atom_site_hle17_ddec_spin_density
 _atom_site_hle17_ddec_sum_bond_order
 _atom_site_hle17_magmom
 _atom_site_hse06_10hf_bader_spin_density
 _atom_site_hse06_10hf_ddec_charge
 _atom_site_hse06_10hf_ddec_spin_density
 _atom_site_hse06_10hf_ddec_sum_bond_order
 _atom_site_hse06_10hf_magmom
 _atom_site_hse06_bader_spin_density
 _atom_site_hse06_ddec_charge
 _atom_site_hse06_ddec_spin_density
 _atom_site_hse06_ddec_sum_bond_order
 _atom_site_hse06_magmom
 _atom_site_pbe_bader_spin_density
 _atom_site_pbe_cm5_charge
 _atom_site_pbe_ddec_charge
 _atom_site_pbe_ddec_spin_density
 _atom_site_pbe_ddec_sum_bond_order
 _atom_site_pbe_magmom
Tl  Tl0  1  0.20362109  0.31071274  0.60926073  1  0  0.808669  0  0.816456  0  0  0.696511  0  1.10375  0  0  0.733304  0  1.076521  0  0  0.404927  0.669085  0  1.123472  0
Tl  Tl1  1  0.79619665  0.18927305  0.10925585  1  0  0.808748  0  0.816471  0  0  0.696551  0  1.103777  0  0  0.733337  0  1.076539  0  0  0.404957  0.669121  0  1.12349  0
Tl  Tl2  1  0.79636185  0.68929452  0.39074376  1  0  0.808665  0  0.816411  0  0  0.696482  0  1.10372  0  0  0.733277  0  1.07648  0  0  0.404914  0.669045  0  1.123445  0
Tl  Tl3  1  0.20372733  0.81071245  0.89074807  1  0  0.808767  0  0.816496  0  0  0.696554  0  1.103768  0  0  0.733342  0  1.076526  0  0  0.404938  0.669127  0  1.123491  0
Tl  Tl4  1  0.18763759  0.55640633  0.88970786  1  0  0.877519  0  0.741884  0  0  0.781008  0  1.020073  0  0  0.812309  0  0.994127  0  0  0.439537  0.757368  0  1.03896  0
Tl  Tl5  1  0.81239198  0.94360769  0.38969664  1  0  0.877539  0  0.741823  0  0  0.781062  0  1.019985  0  0  0.812371  0  0.994048  0  0  0.439571  0.757414  0  1.038872  0
Tl  Tl6  1  0.81229246  0.44358171  0.11031428  1  0  0.877544  0  0.741845  0  0  0.781078  0  1.020011  0  0  0.812384  0  0.99407  0  0  0.439591  0.757443  0  1.038906  0
Tl  Tl7  1  0.18762032  0.05639027  0.61031809  1  0  0.877533  0  0.74172  0  0  0.781083  0  1.019835  0  0  0.812392  0  0.993905  0  0  0.43966  0.757446  0  1.03872  0
H  H8  1  0.32999068  0.47397411  0.54812352  1  0  0.377575  0  0.855384  0  0  0.352147  0  0.934379  0  0  0.361403  0  0.924298  0  0  0.322536  0.345433  0  0.941855  0
H  H9  1  0.66999008  0.02600059  0.04809537  1  0  0.377277  0  0.855534  0  0  0.351953  0  0.934476  0  0  0.361209  0  0.924399  0  0  0.322415  0.345237  0  0.94195  0
H  H10  1  0.66998597  0.52602021  0.45186333  1  0  0.377479  0  0.855614  0  0  0.352165  0  0.934471  0  0  0.361419  0  0.924392  0  0  0.322565  0.345459  0  0.941931  0
H  H11  1  0.33000370  0.97398912  0.95183171  1  0  0.377543  0  0.855687  0  0  0.352222  0  0.934503  0  0  0.361476  0  0.924423  0  0  0.32258  0.345511  0  0.941973  0
H  H12  1  0.65847422  0.42258684  0.76648860  1  0  0.43889  0  0.848122  0  0  0.411241  0  0.905648  0  0  0.421112  0  0.891209  0  0  0.291247  0.404223  0  0.915884  0
H  H13  1  0.34153957  0.07746288  0.26651371  1  0  0.438806  0  0.848216  0  0  0.411126  0  0.905764  0  0  0.420992  0  0.891339  0  0  0.291145  0.404108  0  0.916  0
H  H14  1  0.34142681  0.57740622  0.23353297  1  0  0.438635  0  0.848458  0  0  0.411  0  0.905981  0  0  0.42087  0  0.891542  0  0  0.291092  0.403983  0  0.916218  0
H  H15  1  0.65853811  0.92255512  0.73351469  1  0  0.438628  0  0.848479  0  0  0.410992  0  0.905996  0  0  0.420861  0  0.891561  0  0  0.291012  0.403975  0  0.916231  0
H  H16  1  0.54988233  0.42874471  0.85229321  1  0  0.396671  0  0.926501  0  0  0.365976  0  0.992848  0  0  0.376763  0  0.97725  0  0  0.27335  0.358341  0  1.003838  0
H  H17  1  0.45003532  0.07125459  0.35231703  1  0  0.396705  0  0.926537  0  0  0.365985  0  0.992939  0  0  0.376775  0  0.977339  0  0  0.273294  0.358352  0  1.003926  0
H  H18  1  0.45009577  0.57125758  0.14773007  1  0  0.396835  0  0.926249  0  0  0.366187  0  0.992549  0  0  0.376977  0  0.976944  0  0  0.273544  0.358554  0  1.003537  0
H  H19  1  0.54997096  0.92873594  0.64770681  1  0  0.396692  0  0.926486  0  0  0.365997  0  0.992831  0  0  0.376783  0  0.977234  0  0  0.273345  0.358366  0  1.003814  0
H  H20  1  0.70762741  0.59119744  0.71277049  1  0  0.120295  0  0.930827  0  0  0.128719  0  0.994595  0  0  0.132499  0  0.991096  0  0  0.116115  0.126011  0  0.997033  0
H  H21  1  0.29256617  0.90881530  0.21271228  1  0  0.120229  0  0.931029  0  0  0.128684  0  0.994716  0  0  0.132448  0  0.991247  0  0  0.115982  0.125983  0  0.997147  0
H  H22  1  0.29235525  0.40877435  0.28723172  1  0  0.120099  0  0.931179  0  0  0.128728  0  0.994715  0  0  0.132492  0  0.991253  0  0  0.116199  0.126028  0  0.997147  0
H  H23  1  0.70747897  0.09122539  0.78725066  1  0  0.120315  0  0.930863  0  0  0.128767  0  0.994581  0  0  0.132547  0  0.991082  0  0  0.116216  0.126054  0  0.997039  0
H  H24  1  0.96851373  0.85020279  0.65949334  1  0  0.103816  0  0.964635  0  0  0.110628  0  1.035281  0  0  0.115201  0  1.030493  0  0  0.109743  0.107184  0  1.038944  0
H  H25  1  0.03165348  0.64981096  0.15949039  1  0  0.103713  0  0.964692  0  0  0.110584  0  1.035236  0  0  0.115155  0  1.030454  0  0  0.109764  0.107147  0  1.038894  0
H  H26  1  0.03141457  0.14977666  0.34052651  1  0  0.103853  0  0.964439  0  0  0.110564  0  1.035183  0  0  0.115142  0  1.030378  0  0  0.109737  0.107128  0  1.03883  0
H  H27  1  0.96840061  0.35021826  0.84053801  1  0  0.10376  0  0.964498  0  0  0.110541  0  1.035186  0  0  0.115112  0  1.030399  0  0  0.109701  0.107096  0  1.038847  0
H  H28  1  0.31933229  0.67244249  0.51836048  1  0  0.068862  0  1.014625  0  0  0.076342  0  1.090807  0  0  0.078216  0  1.090505  0  0  0.095804  0.074971  0  1.091098  0
H  H29  1  0.68075377  0.82754150  0.01833765  1  0  0.068766  0  1.014785  0  0  0.076171  0  1.090993  0  0  0.07805  0  1.090689  0  0  0.09571  0.074784  0  1.091296  0
H  H30  1  0.68065587  0.32756058  0.48164743  1  0  0.068847  0  1.014647  0  0  0.076355  0  1.090801  0  0  0.078232  0  1.090497  0  0  0.09584  0.074986  0  1.091094  0
H  H31  1  0.31922297  0.17244303  0.98165147  1  0  0.068844  0  1.014701  0  0  0.076257  0  1.09089  0  0  0.078128  0  1.09059  0  0  0.095716  0.074861  0  1.091199  0
C  C32  1  0.06393312  0.53724411  0.60183354  1  0  0.652005  0  3.794864  0  0  0.605961  0  4.083684  0  0  0.639464  0  4.074709  0  0  0.233618  0.583084  0  4.089357  0
C  C33  1  0.93623471  0.96276230  0.10179126  1  0  0.650838  0  3.795312  0  0  0.605146  0  4.083701  0  0  0.63865  0  4.07473  0  0  0.233207  0.582262  0  4.08937  0
C  C34  1  0.93611085  0.46275927  0.39816810  1  0  0.651648  0  3.794906  0  0  0.605668  0  4.083686  0  0  0.639171  0  4.074712  0  0  0.233571  0.582792  0  4.089359  0
C  C35  1  0.06383237  0.03724880  0.89815858  1  0  0.651658  0  3.794573  0  0  0.605965  0  4.082906  0  0  0.639466  0  4.073928  0  0  0.233702  0.583086  0  4.088582  0
C  C36  1  0.02157249  0.62307905  0.61452496  1  0  -0.088713  0  3.789657  0  0  -0.063374  0  4.026099  0  0  -0.074919  0  4.050051  0  0  -0.022487  -0.055971  0  4.010003  0
C  C37  1  0.97861106  0.87691738  0.11448870  1  0  -0.088038  0  3.788164  0  0  -0.063001  0  4.024683  0  0  -0.074501  0  4.048566  0  0  -0.022546  -0.0556  0  4.008581  0
C  C38  1  0.97844777  0.37691538  0.38547783  1  0  -0.088572  0  3.789117  0  0  -0.063303  0  4.025628  0  0  -0.074837  0  4.049569  0  0  -0.022494  -0.055898  0  4.009533  0
C  C39  1  0.02142683  0.12308345  0.88548790  1  0  -0.088022  0  3.789347  0  0  -0.062955  0  4.025802  0  0  -0.074465  0  4.049696  0  0  -0.022435  -0.055547  0  4.009689  0
C  C40  1  0.83022301  0.64075896  0.67588057  1  0  -0.016395  0  3.621355  0  0  -0.057115  0  3.872048  0  0  -0.050856  0  3.88645  0  0  -0.056968  -0.060919  0  3.862287  0
C  C41  1  0.16997805  0.85925152  0.17584972  1  0  -0.016874  0  3.621689  0  0  -0.057433  0  3.872255  0  0  -0.0512  0  3.886658  0  0  -0.056793  -0.061228  0  3.862487  0
C  C42  1  0.16972476  0.35922570  0.32411993  1  0  -0.016456  0  3.621868  0  0  -0.057307  0  3.872584  0  0  -0.051057  0  3.886978  0  0  -0.057073  -0.061101  0  3.862819  0
C  C43  1  0.83015659  0.14077415  0.82413029  1  0  -0.016859  0  3.622114  0  0  -0.057539  0  3.872838  0  0  -0.0513  0  3.887243  0  0  -0.057204  -0.06134  0  3.863062  0
C  C44  1  0.80970440  0.72276780  0.69123970  1  0  -0.053645  0  3.714596  0  0  -0.028917  0  3.95414  0  0  -0.038203  0  3.975727  0  0  -0.011118  -0.023313  0  3.939975  0
C  C45  1  0.19045898  0.77725177  0.19124204  1  0  -0.053649  0  3.714797  0  0  -0.029  0  3.954291  0  0  -0.038287  0  3.975885  0  0  -0.011301  -0.023397  0  3.940133  0
C  C46  1  0.19027628  0.27721986  0.30876308  1  0  -0.053171  0  3.714194  0  0  -0.028494  0  3.953754  0  0  -0.037775  0  3.975343  0  0  -0.011114  -0.0229  0  3.939607  0
C  C47  1  0.80958571  0.22277302  0.80877269  1  0  -0.053579  0  3.714609  0  0  -0.028835  0  3.954098  0  0  -0.038126  0  3.975699  0  0  -0.011105  -0.023219  0  3.939898  0
C  C48  1  0.97684915  0.78635282  0.64508204  1  0  -0.035723  0  3.629734  0  0  -0.076592  0  3.880709  0  0  -0.071897  0  3.896363  0  0  -0.066465  -0.079286  0  3.870249  0
C  C49  1  0.02330478  0.71366132  0.14508558  1  0  -0.035283  0  3.629972  0  0  -0.076135  0  3.880963  0  0  -0.071449  0  3.896633  0  0  -0.066213  -0.078823  0  3.870462  0
C  C50  1  0.02315075  0.21363454  0.35493042  1  0  -0.0357  0  3.629793  0  0  -0.076447  0  3.880725  0  0  -0.071746  0  3.896378  0  0  -0.066349  -0.079143  0  3.870258  0
C  C51  1  0.97675698  0.28636375  0.85492574  1  0  -0.035306  0  3.629486  0  0  -0.076103  0  3.88042  0  0  -0.071402  0  3.896065  0  0  -0.066224  -0.078817  0  3.869983  0
C  C52  1  0.14962527  0.76857811  0.58071533  1  0  -0.066877  0  3.74745  0  0  -0.037412  0  3.978274  0  0  -0.047027  0  4.001465  0  0  -0.017184  -0.031479  0  3.962789  0
C  C53  1  0.85049339  0.73141092  0.08072129  1  0  -0.066774  0  3.747797  0  0  -0.037475  0  3.9787  0  0  -0.047092  0  4.001908  0  0  -0.017363  -0.031542  0  3.963216  0
C  C54  1  0.85032070  0.23140285  0.41928859  1  0  -0.06723  0  3.74783  0  0  -0.037731  0  3.978568  0  0  -0.047353  0  4.00177  0  0  -0.017277  -0.031791  0  3.963081  0
C  C55  1  0.14954176  0.26858925  0.91928832  1  0  -0.067021  0  3.747283  0  0  -0.037676  0  3.978239  0  0  -0.047295  0  4.001438  0  0  -0.017395  -0.031747  0  3.962747  0
C  C56  1  0.17344477  0.68657929  0.56634834  1  0  -0.094231  0  3.772254  0  0  -0.126451  0  4.014763  0  0  -0.124786  0  4.038965  0  0  -0.079737  -0.12695  0  3.998179  0
C  C57  1  0.82665249  0.81339838  0.06632341  1  0  -0.094326  0  3.771397  0  0  -0.126232  0  4.01375  0  0  -0.124596  0  4.037951  0  0  -0.079546  -0.126717  0  3.997179  0
C  C58  1  0.82650449  0.31340846  0.43365672  1  0  -0.09399  0  3.771529  0  0  -0.126243  0  4.014079  0  0  -0.12458  0  4.038277  0  0  -0.079711  -0.126747  0  3.997501  0
C  C59  1  0.17337155  0.18658388  0.93366287  1  0  -0.094319  0  3.771385  0  0  -0.126271  0  4.013789  0  0  -0.124616  0  4.037988  0  0  -0.079532  -0.126745  0  3.997212  0
C  C60  1  0.61742138  0.74402352  0.75860645  1  0  0.643261  0  3.932719  0  0  0.594966  0  4.216827  0  0  0.628451  0  4.213169  0  0  0.206465  0.572311  0  4.218142  0
C  C61  1  0.38277388  0.75600861  0.25860358  1  0  0.643207  0  3.93271  0  0  0.594928  0  4.216781  0  0  0.628422  0  4.213111  0  0  0.206352  0.572269  0  4.218102  0
C  C62  1  0.38261451  0.25596322  0.24140089  1  0  0.642494  0  3.932678  0  0  0.594206  0  4.216805  0  0  0.627685  0  4.213156  0  0  0.206215  0.571556  0  4.218112  0
C  C63  1  0.61722556  0.24402766  0.74141571  1  0  0.642922  0  3.932222  0  0  0.594638  0  4.216323  0  0  0.628124  0  4.212662  0  0  0.206376  0.571984  0  4.217635  0
C  C64  1  0.30915068  0.83592606  0.52724280  1  0  0.650988  0  3.947365  0  0  0.601196  0  4.237554  0  0  0.635236  0  4.232053  0  0  0.204749  0.578111  0  4.240141  0
C  C65  1  0.69099541  0.66405022  0.02723656  1  0  0.650651  0  3.947628  0  0  0.600933  0  4.237779  0  0  0.634974  0  4.232295  0  0  0.204614  0.577852  0  4.240363  0
C  C66  1  0.69083483  0.16406656  0.47278047  1  0  0.650859  0  3.947229  0  0  0.601008  0  4.237503  0  0  0.635047  0  4.232011  0  0  0.204722  0.577923  0  4.240086  0
C  C67  1  0.30906985  0.33592722  0.97277077  1  0  0.650549  0  3.947411  0  0  0.600719  0  4.23773  0  0  0.63476  0  4.232244  0  0  0.204578  0.57764  0  4.240305  0
O  O68  1  0.90450153  0.47549243  0.63223406  1  0  -0.55164  0  1.957053  0  0  -0.504908  0  2.17345  0  0  -0.527216  0  2.167375  0  0  -0.269105  -0.489475  0  2.177339  0
O  O69  1  0.09561541  0.02452695  0.13216778  1  0  -0.551265  0  1.957837  0  0  -0.504626  0  2.174086  0  0  -0.52692  0  2.167988  0  0  -0.268961  -0.48921  0  2.178005  0
O  O70  1  0.09545257  0.52450029  0.36774880  1  0  -0.551377  0  1.95758  0  0  -0.504675  0  2.173949  0  0  -0.526963  0  2.167845  0  0  -0.269028  -0.489256  0  2.177867  0
O  O71  1  0.90443963  0.97549924  0.86775474  1  0  -0.551557  0  1.957298  0  0  -0.504923  0  2.17349  0  0  -0.527218  0  2.167388  0  0  -0.269106  -0.489514  0  2.177429  0
O  O72  1  0.30714869  0.53208789  0.55071886  1  0  -0.559611  0  2.148742  0  0  -0.508609  0  2.373698  0  0  -0.529459  0  2.36171  0  0  -0.335602  -0.493897  0  2.381785  0
O  O73  1  0.69287756  0.96789115  0.05068344  1  0  -0.55898  0  2.148506  0  0  -0.508334  0  2.373404  0  0  -0.529194  0  2.361447  0  0  -0.335386  -0.493607  0  2.381463  0
O  O74  1  0.69279380  0.46790586  0.44926969  1  0  -0.559608  0  2.148734  0  0  -0.508707  0  2.373508  0  0  -0.52956  0  2.361524  0  0  -0.335712  -0.493992  0  2.381587  0
O  O75  1  0.30714370  0.03209534  0.94925900  1  0  -0.559757  0  2.148752  0  0  -0.508947  0  2.373586  0  0  -0.529806  0  2.361609  0  0  -0.335837  -0.49423  0  2.381658  0
O  O76  1  0.40004939  0.68897517  0.78820261  1  0  -0.662291  0  1.97928  0  0  -0.593591  0  2.211045  0  0  -0.624818  0  2.20798  0  0  -0.304731  -0.571237  0  2.212245  0
O  O77  1  0.60009557  0.81106218  0.28817481  1  0  -0.661961  0  1.979839  0  0  -0.593281  0  2.211575  0  0  -0.624492  0  2.208497  0  0  -0.304549  -0.570938  0  2.21278  0
O  O78  1  0.59988300  0.31102269  0.21180472  1  0  -0.662005  0  1.979993  0  0  -0.593331  0  2.211763  0  0  -0.624546  0  2.208696  0  0  -0.304633  -0.570986  0  2.212963  0
O  O79  1  0.39993882  0.18898629  0.71182456  1  0  -0.661896  0  1.980154  0  0  -0.593228  0  2.211911  0  0  -0.624441  0  2.208838  0  0  -0.304628  -0.570884  0  2.213121  0
O  O80  1  0.69010579  0.81902672  0.78265636  1  0  -0.692462  0  1.992321  0  0  -0.610878  0  2.214991  0  0  -0.641695  0  2.208125  0  0  -0.315359  -0.588769  0  2.218716  0
O  O81  1  0.30995774  0.68097857  0.28263952  1  0  -0.692635  0  1.991402  0  0  -0.611087  0  2.214106  0  0  -0.641901  0  2.207199  0  0  -0.315362  -0.58897  0  2.217826  0
O  O82  1  0.30988928  0.18095567  0.21734243  1  0  -0.692182  0  1.991582  0  0  -0.610586  0  2.214195  0  0  -0.641404  0  2.207344  0  0  -0.315231  -0.588474  0  2.217907  0
O  O83  1  0.69002466  0.31905252  0.71736725  1  0  -0.692601  0  1.991067  0  0  -0.611071  0  2.21378  0  0  -0.641886  0  2.20689  0  0  -0.315433  -0.588953  0  2.217497  0
O  O84  1  0.43141012  0.90628585  0.55480159  1  0  -0.695295  0  2.0223  0  0  -0.629708  0  2.254485  0  0  -0.65953  0  2.249308  0  0  -0.312345  -0.608471  0  2.257339  0
O  O85  1  0.56869104  0.59369713  0.05482307  1  0  -0.695244  0  2.022035  0  0  -0.629709  0  2.254242  0  0  -0.659534  0  2.249054  0  0  -0.312306  -0.608477  0  2.257107  0
O  O86  1  0.56853362  0.09370547  0.44519265  1  0  -0.695408  0  2.02137  0  0  -0.629786  0  2.253611  0  0  -0.659612  0  2.248426  0  0  -0.312543  -0.608542  0  2.256467  0
O  O87  1  0.43140520  0.40629427  0.94519679  1  0  -0.695325  0  2.021682  0  0  -0.62971  0  2.253877  0  0  -0.65954  0  2.248704  0  0  -0.312391  -0.608464  0  2.256727  0
O  O88  1  0.31031115  0.81778442  0.45652537  1  0  -0.730268  0  2.00846  0  0  -0.656997  0  2.241406  0  0  -0.690487  0  2.239704  0  0  -0.315765  -0.632943  0  2.241697  0
O  O89  1  0.68983164  0.68218546  0.95652590  1  0  -0.730096  0  2.009131  0  0  -0.65681  0  2.241972  0  0  -0.690259  0  2.240191  0  0  -0.31564  -0.632761  0  2.242259  0
O  O90  1  0.68960875  0.18221262  0.54348425  1  0  -0.72993  0  2.009194  0  0  -0.656655  0  2.242157  0  0  -0.690136  0  2.240462  0  0  -0.315513  -0.632611  0  2.242452  0
O  O91  1  0.31019917  0.31779079  0.04348200  1  0  -0.729911  0  2.009088  0  0  -0.656587  0  2.241958  0  0  -0.69005  0  2.240219  0  0  -0.315546  -0.632542  0  2.242245  0
O  O92  1  0.62905683  0.46241525  0.80652541  1  0  -0.891372  0  1.807795  0  0  -0.8301  0  1.975265  0  0  -0.853048  0  1.945467  0  0  -0.591224  -0.813368  0  1.996127  0
O  O93  1  0.37091882  0.03760784  0.30653403  1  0  -0.891405  0  1.807713  0  0  -0.830086  0  1.975271  0  0  -0.853035  0  1.945464  0  0  -0.591135  -0.813351  0  1.996137  0
O  O94  1  0.37086516  0.53758611  0.19349046  1  0  -0.891212  0  1.807928  0  0  -0.830074  0  1.975279  0  0  -0.85302  0  1.945484  0  0  -0.591229  -0.813343  0  1.996142  0
O  O95  1  0.62910444  0.96239275  0.69348184  1  0  -0.891153  0  1.808033  0  0  -0.829947  0  1.975529  0  0  -0.852893  0  1.945737  0  0  -0.590981  -0.813207  0  1.996381  0
