# generated using pymatgen
data_Cu2H12C9N8O3
_symmetry_space_group_name_H-M   'P 1'
_cell_length_a   8.01930538
_cell_length_b   8.80787250
_cell_length_c   10.68137314
_cell_angle_alpha   74.46301810
_cell_angle_beta   76.57263439
_cell_angle_gamma   75.03475257
_symmetry_Int_Tables_number   1
_chemical_formula_structural   Cu2H12C9N8O3
_chemical_formula_sum   'Cu4 H24 C18 N16 O6'
_cell_volume   691.37648770
_cell_formula_units_Z   2
loop_
 _symmetry_equiv_pos_site_id
 _symmetry_equiv_pos_as_xyz
  1  'x, y, z'
loop_
 _atom_site_type_symbol
 _atom_site_label
 _atom_site_symmetry_multiplicity
 _atom_site_fract_x
 _atom_site_fract_y
 _atom_site_fract_z
 _atom_site_occupancy
 _atom_site_hle17_ddec_charge
 _atom_site_hle17_ddec_spin_density
 _atom_site_hle17_ddec_sum_bond_order
 _atom_site_hle17_magmom
 _atom_site_hse06_10hf_ddec_charge
 _atom_site_hse06_10hf_ddec_spin_density
 _atom_site_hse06_10hf_ddec_sum_bond_order
 _atom_site_hse06_10hf_magmom
 _atom_site_hse06_ddec_charge
 _atom_site_hse06_ddec_spin_density
 _atom_site_hse06_ddec_sum_bond_order
 _atom_site_hse06_magmom
 _atom_site_pbe_cm5_charge
 _atom_site_pbe_ddec_charge
 _atom_site_pbe_ddec_spin_density
 _atom_site_pbe_ddec_sum_bond_order
 _atom_site_pbe_magmom
Cu  Cu0  1  0.07761284  0.02434245  0.83914605  1  0.933465  0.664749  1.851943  0.479  0.926565  0.778044  2.258937  0.618  1.013739  0.858671  2.187293  0.707  0.751007  0.870616  0.69141  2.309109  0.536
Cu  Cu1  1  0.92238798  0.97565860  0.16085123  1  0.93346  -0.664712  1.851994  -0.479  0.92651  -0.778018  2.259031  -0.618  1.013718  -0.858637  2.187316  -0.707  0.750995  0.870565  -0.691376  2.309191  -0.536
Cu  Cu2  1  0.48937647  0.87471263  0.66363162  1  0.94129  -0.645849  1.871593  -0.466  0.942829  -0.772058  2.283706  -0.614  1.027411  -0.858333  2.210447  -0.708  0.759221  0.889205  -0.678367  2.336902  -0.527
Cu  Cu3  1  0.51062152  0.12528959  0.33636685  1  0.941323  0.645855  1.871547  0.466  0.942909  0.772061  2.283563  0.614  1.027451  0.858331  2.210357  0.708  0.759229  0.889298  0.678365  2.336738  0.527
H  H4  1  0.39318447  0.33749167  0.89522760  1  0.134676  -0.000465  0.967265  -0.001  0.151918  -0.000243  1.028319  0.0  0.154238  -0.000137  1.027455  0.0  0.095434  0.150337  -0.000338  1.02895  0.0
H  H5  1  0.60680797  0.66249594  0.10478053  1  0.13469  0.000466  0.967239  0.001  0.151894  0.000243  1.028327  0.0  0.154211  0.000137  1.027466  0.0  0.095447  0.150315  0.000338  1.028953  0.0
H  H6  1  0.58796132  0.29560374  0.77543240  1  0.135836  0.001165  0.965947  0.002  0.152986  0.000822  1.027127  0.001  0.154626  0.000561  1.02718  0.001  0.092073  0.151972  0.001018  1.027041  0.001
H  H7  1  0.41203812  0.70439233  0.22457460  1  0.135833  -0.001165  0.965941  -0.002  0.153009  -0.000822  1.027081  -0.001  0.154651  -0.000561  1.027129  -0.001  0.092079  0.151996  -0.001018  1.026991  -0.001
H  H8  1  0.56283051  0.17031571  0.93685153  1  0.155679  -0.000631  0.935508  -0.001  0.175812  -0.000471  0.989432  -0.001  0.177312  -0.000361  0.990403  0.0  0.103855  0.174677  -0.000544  0.988915  -0.001
H  H9  1  0.43716536  0.82967911  0.06315729  1  0.15564  0.000631  0.935401  0.001  0.175726  0.00047  0.989381  0.001  0.177219  0.000361  0.990354  0.0  0.103844  0.174594  0.000544  0.988862  0.001
H  H10  1  0.82037868  0.97110886  0.75809491  1  0.307682  -0.00067  0.872983  -0.002  0.300572  0.000372  0.928628  0.0  0.305425  0.000144  0.9282  0.0  0.30294  0.297071  0.000517  0.929317  0.0
H  H11  1  0.17962441  0.02888253  0.24190494  1  0.307698  0.000671  0.872926  0.002  0.300515  -0.000372  0.928656  0.0  0.305368  -0.000145  0.928231  0.0  0.302926  0.297014  -0.000517  0.929343  0.0
H  H12  1  0.82521497  0.88048926  0.91550543  1  0.311597  -0.000824  0.892145  -0.002  0.302182  0.000286  0.948834  -0.001  0.307658  0.000101  0.947822  -0.001  0.298217  0.298354  0.000407  0.949741  0.0
H  H13  1  0.17478427  0.11950214  0.08449322  1  0.311584  0.000825  0.892234  0.002  0.30213  -0.000286  0.948948  0.001  0.307607  -0.000101  0.947937  0.001  0.298224  0.298301  -0.000406  0.949852  0.0
H  H14  1  0.57334127  0.61774060  0.58100639  1  0.307994  0.000936  0.930212  0.003  0.294545  -0.000264  0.995201  0.001  0.30088  -5.7e-05  0.992652  0.001  0.287911  0.290233  -0.000418  0.996895  0.001
H  H15  1  0.42666198  0.38225558  0.41899429  1  0.308029  -0.000936  0.930188  -0.003  0.294573  0.000263  0.995183  -0.001  0.300908  5.7e-05  0.992632  -0.001  0.287931  0.29026  0.000418  0.996879  -0.001
H  H16  1  0.44816394  0.76123943  0.48208433  1  0.304311  0.00042  0.895437  0.002  0.294701  -0.000778  0.954481  0.0  0.300207  -0.000454  0.953152  0.0  0.295612  0.290767  -0.000991  0.955776  0.0
H  H17  1  0.55183603  0.23875436  0.51791556  1  0.304348  -0.00042  0.895468  -0.002  0.294746  0.000778  0.954483  0.0  0.300256  0.000453  0.95314  0.0  0.295655  0.290814  0.000991  0.955779  0.0
H  H18  1  0.92216664  0.70384935  0.73866346  1  0.071606  0.003067  0.954598  0.004  0.085931  0.002383  1.018234  0.003  0.082917  0.001713  1.022102  0.002  0.102996  0.087333  0.002733  1.016072  0.004
H  H19  1  0.07783389  0.29614201  0.26133778  1  0.071651  -0.003069  0.954627  -0.004  0.085959  -0.002384  1.018249  -0.003  0.082947  -0.001713  1.022116  -0.002  0.103029  0.087369  -0.002734  1.016076  -0.004
H  H20  1  0.04269166  0.66486122  0.86868278  1  0.078422  6e-05  0.941712  0.0  0.091173  -3.3e-05  1.007691  0.0  0.090688  -2.2e-05  1.008401  0.0  0.107831  0.091309  -4e-05  1.007341  0.0
H  H21  1  0.95730802  0.33513377  0.13131691  1  0.078419  -6.1e-05  0.941798  0.0  0.091157  3.2e-05  1.007768  0.0  0.090672  2.2e-05  1.008478  0.0  0.107852  0.09129  4e-05  1.007417  0.0
H  H22  1  0.12375389  0.86730968  0.58857120  1  0.023639  6e-06  0.918266  0.0  0.036265  2.8e-05  0.97812  0.0  0.034697  1.4e-05  0.978901  0.0  0.092244  0.037317  3.6e-05  0.977605  0.0
H  H23  1  0.87624619  0.13267811  0.41142806  1  0.023622  -1.1e-05  0.91834  0.0  0.036262  -2.8e-05  0.978156  0.0  0.034692  -1.4e-05  0.97894  0.0  0.092274  0.037316  -3.6e-05  0.977642  0.0
H  H24  1  0.26014629  0.57439687  0.60601504  1  0.073277  -0.004484  0.939492  -0.006  0.087881  -0.002949  0.998793  -0.004  0.085825  -0.001993  1.000823  -0.003  0.100339  0.088605  -0.003527  0.997824  -0.005
H  H25  1  0.73985693  0.42559942  0.39398001  1  0.073284  0.004488  0.939405  0.006  0.087923  0.002949  0.998718  0.004  0.085866  0.001993  1.000752  0.003  0.100356  0.088646  0.003526  0.99775  0.005
H  H26  1  0.33771070  0.57298068  0.75101963  1  0.080519  -0.000295  0.933151  -0.001  0.093839  -0.000151  0.997447  0.0  0.09247  -9.7e-05  0.999379  0.0  0.109646  0.09449  -0.000179  0.996426  0.0
H  H27  1  0.66229323  0.42700715  0.24897801  1  0.080527  0.000301  0.933073  0.001  0.093872  0.000151  0.997394  0.0  0.092506  9.8e-05  0.999321  0.0  0.109649  0.094521  0.000179  0.996374  0.0
C  C28  1  0.00242007  0.75362358  0.78148456  1  -0.000736  -0.005331  3.620981  -0.008  -0.059745  -0.000999  3.884322  -0.003  -0.054726  -0.000966  3.899554  -0.003  -0.082627  -0.062454  -0.000987  3.874057  -0.003
C  C29  1  0.99757706  0.24637136  0.21851746  1  -0.00081  0.005336  3.621096  0.008  -0.059772  0.000999  3.884312  0.003  -0.054749  0.000966  3.899535  0.003  -0.082704  -0.062485  0.000986  3.874056  0.003
C  C30  1  0.16342389  0.79379544  0.68305465  1  0.198027  0.000182  3.659915  0.0  0.187975  0.000576  3.915144  0.0  0.197515  0.000476  3.929806  0.0  -0.022386  0.180676  0.000555  3.904836  0.0
C  C31  1  0.83657409  0.20619589  0.31694799  1  0.197855  -0.00016  3.660172  0.0  0.187854  -0.000578  3.91533  0.0  0.197396  -0.000477  3.929991  0.0  -0.022482  0.180552  -0.000556  3.905024  0.0
C  C32  1  0.30350385  0.64726201  0.65651530  1  0.010264  0.006484  3.620206  0.01  -0.044413  0.001342  3.880876  0.004  -0.038865  0.001332  3.896265  0.004  -0.079787  -0.047369  0.001233  3.870432  0.004
C  C33  1  0.69649768  0.35273058  0.34348457  1  0.010455  -0.006511  3.619955  -0.01  -0.044389  -0.001344  3.880822  -0.004  -0.038848  -0.001332  3.896216  -0.004  -0.079758  -0.047347  -0.001234  3.870386  -0.004
C  C34  1  0.40968089  0.13649205  0.81202045  1  0.762224  -0.00014  3.794018  0.0  0.73376  3.9e-05  4.080334  0.0  0.774059  -4.6e-05  4.070055  0.0  0.219664  0.706099  8.2e-05  4.086486  0.0
C  C35  1  0.59032335  0.86349443  0.18798585  1  0.762502  0.000141  3.793794  0.0  0.733883  -3.7e-05  4.080322  0.0  0.774174  4.8e-05  4.070053  0.0  0.219707  0.706227  -8.1e-05  4.086465  0.0
C  C36  1  0.49317071  0.24306197  0.85612604  1  -0.470257  0.000894  3.652037  0.001  -0.539836  0.000486  3.869885  0.0  -0.547959  0.000321  3.872802  0.0  -0.25455  -0.534502  0.000516  3.867762  0.0
C  C37  1  0.50682985  0.75692927  0.14388177  1  -0.470286  -0.000893  3.651903  -0.001  -0.539757  -0.000486  3.869793  0.0  -0.547871  -0.00032  3.872712  0.0  -0.254524  -0.534422  -0.000515  3.867656  0.0
C  C38  1  0.67098136  0.57674228  0.88446113  1  0.493688  -0.002287  3.985776  -0.003  0.468973  0.000766  4.27128  0.001  0.49591  0.000709  4.280427  0.001  0.303277  0.45107  0.00086  4.264807  0.001
C  C39  1  0.32902669  0.42328268  0.11554483  1  0.493755  0.002309  3.985811  0.003  0.46906  -0.000766  4.27129  -0.001  0.495986  -0.000707  4.280441  -0.001  0.303445  0.451173  -0.00086  4.264817  -0.001
C  C40  1  0.84123759  0.31716571  0.92747353  1  0.547853  -0.000454  3.956464  0.001  0.522348  0.004592  4.237574  0.007  0.55759  0.003566  4.241547  0.006  0.326424  0.497999  0.005142  4.235481  0.008
C  C41  1  0.15878750  0.68287406  0.07251324  1  0.547707  0.000441  3.956427  -0.001  0.522185  -0.0046  4.237606  -0.007  0.557426  -0.003573  4.24161  -0.006  0.326521  0.497846  -0.005151  4.235487  -0.008
C  C42  1  0.16110158  0.18136937  0.51588323  1  0.532291  0.002625  3.961868  0.003  0.50357  0.007521  4.259764  0.01  0.537605  0.006119  4.263803  0.009  0.316393  0.480151  0.008295  4.256998  0.01
C  C43  1  0.83888813  0.81863531  0.48411055  1  0.532334  -0.002639  3.961774  -0.003  0.503622  -0.00752  4.259642  -0.01  0.537658  -0.006117  4.263683  -0.009  0.316382  0.480204  -0.008295  4.256876  -0.01
C  C44  1  0.91342812  0.35148328  0.60008117  1  0.476174  -0.005312  3.986016  -0.006  0.448452  -0.000641  4.277588  -0.001  0.470737  -0.000595  4.290456  -0.001  0.293075  0.433274  -0.000534  4.268324  -0.002
C  C45  1  0.08655906  0.64852129  0.39991869  1  0.476146  0.005337  3.985793  0.007  0.448432  0.000641  4.277369  0.001  0.470715  0.000593  4.290242  0.001  0.293114  0.433256  0.000535  4.268096  0.002
N  N46  1  0.90143945  0.90373347  0.82352481  1  -0.574936  0.103162  3.095508  0.127  -0.557553  0.070825  3.371094  0.092  -0.593968  0.057459  3.379801  0.08  -0.622154  -0.53482  0.074284  3.366596  0.093
N  N47  1  0.09856224  0.09626391  0.17647590  1  -0.574879  -0.103191  3.095496  -0.127  -0.557384  -0.070841  3.371102  -0.093  -0.593807  -0.057476  3.379811  -0.08  -0.62211  -0.53465  -0.074298  3.366605  -0.093
N  N48  1  0.46065327  0.70711401  0.57850946  1  -0.580231  -0.120315  3.138726  -0.148  -0.568633  -0.076841  3.415849  -0.1  -0.608115  -0.060832  3.425673  -0.084  -0.628672  -0.543467  -0.081707  3.410102  -0.102
N  N49  1  0.53934670  0.29287978  0.42149044  1  -0.58039  0.120301  3.138715  0.148  -0.568763  0.076833  3.415903  0.1  -0.608229  0.060825  3.425723  0.084  -0.628783  -0.543598  0.081695  3.410155  0.102
N  N50  1  0.57411870  0.69430133  0.84050686  1  -0.579554  0.010708  2.757404  0.011  -0.565169  0.004004  3.038472  0.003  -0.585162  0.002645  3.039734  0.002  -0.382854  -0.552279  0.005482  3.038451  0.005
N  N51  1  0.42587194  0.30571039  0.15949744  1  -0.579668  -0.010736  2.757573  -0.011  -0.56529  -0.004008  3.038606  -0.003  -0.58527  -0.00265  3.039869  -0.002  -0.382948  -0.552406  -0.005488  3.038583  -0.005
N  N52  1  0.78209535  0.46110556  0.94386896  1  -0.459039  0.010128  3.317037  0.013  -0.407115  0.003753  3.571685  0.005  -0.43083  0.002309  3.572011  0.003  -0.303348  -0.39085  0.005051  3.571253  0.006
N  N53  1  0.21792668  0.53892540  0.05613985  1  -0.458923  -0.010148  3.317165  -0.013  -0.407013  -0.003759  3.571828  -0.005  -0.430741  -0.002315  3.572204  -0.003  -0.30347  -0.390773  -0.005059  3.571398  -0.006
N  N54  1  0.90341425  0.17958846  0.92778662  1  -0.655244  0.04017  3.015829  0.046  -0.645613  0.03144  3.356108  0.037  -0.677969  0.027303  3.349153  0.033  -0.436299  -0.625647  0.032689  3.362942  0.038
N  N55  1  0.09660365  0.82046006  0.07217990  1  -0.655099  -0.040165  3.015566  -0.046  -0.645436  -0.031436  3.35582  -0.037  -0.677771  -0.0273  3.348815  -0.033  -0.436326  -0.625523  -0.032687  3.362752  -0.038
N  N56  1  0.27340640  0.12128265  0.43952314  1  -0.622783  0.039984  2.938992  0.047  -0.618006  0.02951  3.279371  0.036  -0.644983  0.02477  3.269369  0.031  -0.422304  -0.601126  0.031446  3.287826  0.037
N  N57  1  0.72658517  0.87871962  0.56047176  1  -0.62285  -0.039966  2.939184  -0.047  -0.618078  -0.02951  3.279611  -0.036  -0.645063  -0.024769  3.269599  -0.031  -0.422318  -0.601197  -0.031446  3.288071  -0.037
N  N58  1  0.04194120  0.22608513  0.61015892  1  -0.480331  0.014388  3.366933  0.019  -0.440569  0.005788  3.648622  0.008  -0.46845  0.003177  3.650876  0.005  -0.312593  -0.421078  0.008106  3.646558  0.011
N  N59  1  0.95804607  0.77391357  0.38983279  1  -0.480309  -0.014388  3.36684  -0.019  -0.440568  -0.005787  3.648554  -0.008  -0.468452  -0.003179  3.65081  -0.005  -0.312628  -0.421074  -0.008105  3.646485  -0.011
N  N60  1  0.79033175  0.45900892  0.60399544  1  -0.558787  0.013201  2.6467  0.015  -0.530911  0.004903  2.87903  0.005  -0.545975  0.003156  2.887372  0.004  -0.354874  -0.520252  0.006613  2.873226  0.007
N  N61  1  0.20965626  0.54099208  0.39600222  1  -0.558772  -0.013229  2.646301  -0.015  -0.53089  -0.004903  2.878631  -0.005  -0.545954  -0.003152  2.886975  -0.004  -0.354878  -0.520232  -0.006614  2.872822  -0.007
O  O62  1  0.24205264  0.88515152  0.73694290  1  -0.636419  0.009653  2.157299  0.013  -0.63517  0.003665  2.514921  0.005  -0.697178  0.002742  2.518988  0.004  -0.404568  -0.591536  0.00396  2.511702  0.006
O  O63  1  0.75794448  0.11484349  0.26305537  1  -0.636393  -0.009641  2.157401  -0.013  -0.635132  -0.003658  2.514992  -0.005  -0.69714  -0.002741  2.519056  -0.004  -0.404542  -0.591502  -0.003951  2.511773  -0.006
O  O64  1  0.49281233  0.08120193  0.71063353  1  -0.64153  -0.04963  2.053811  -0.065  -0.605316  -0.035055  2.326662  -0.05  -0.642205  -0.027777  2.311621  -0.042  -0.329771  -0.579804  -0.039225  2.336774  -0.054
O  O65  1  0.50718596  0.91879901  0.28936983  1  -0.641592  0.049632  2.053564  0.065  -0.605337  0.035056  2.326464  0.05  -0.642217  0.027777  2.31143  0.042  -0.32976  -0.579817  0.039227  2.336546  0.054
O  O66  1  0.26380990  0.10757085  0.88142564  1  -0.620692  0.059158  2.064192  0.078  -0.584251  0.040807  2.331673  0.059  -0.625153  0.032151  2.321719  0.049  -0.32135  -0.556373  0.045107  2.3382  0.063
O  O67  1  0.73619162  0.89241085  0.11857840  1  -0.620868  -0.059145  2.064139  -0.078  -0.58439  -0.040803  2.331745  -0.059  -0.625284  -0.03215  2.321762  -0.049  -0.321447  -0.556523  -0.045101  2.338284  -0.062
