# generated using pymatgen
data_ZnH6(C3N2)2
_symmetry_space_group_name_H-M   'P 1'
_cell_length_a   13.87285465
_cell_length_b   14.36196687
_cell_length_c   17.72572817
_cell_angle_alpha   102.85039796
_cell_angle_beta   89.99995023
_cell_angle_gamma   89.99965118
_symmetry_Int_Tables_number   1
_chemical_formula_structural   ZnH6(C3N2)2
_chemical_formula_sum   'Zn16 H96 C96 N64'
_cell_volume   3443.24568478
_cell_formula_units_Z   16
loop_
 _symmetry_equiv_pos_site_id
 _symmetry_equiv_pos_as_xyz
  1  'x, y, z'
loop_
 _atom_site_type_symbol
 _atom_site_label
 _atom_site_symmetry_multiplicity
 _atom_site_fract_x
 _atom_site_fract_y
 _atom_site_fract_z
 _atom_site_occupancy
 _atom_site_pbe_bader_charge
 _atom_site_pbe_bader_spin_density
 _atom_site_pbe_cm5_charge
 _atom_site_pbe_ddec_charge
 _atom_site_pbe_ddec_spin_density
 _atom_site_pbe_ddec_sum_bond_order
 _atom_site_pbe_magmom
Zn  Zn0  1  0.02519528  0.40860407  0.21430140  1  1.186443  0  0.713862  0.634825  0  2.494294  0
Zn  Zn1  1  0.52519472  0.09139282  0.78569894  1  1.186558  0  0.713782  0.634754  0  2.4942  0
Zn  Zn2  1  0.97480643  0.59139834  0.78570004  1  1.186605  0  0.713862  0.634844  0  2.494187  0
Zn  Zn3  1  0.47480772  0.90860312  0.21429742  1  1.186518  0  0.713816  0.634739  0  2.494119  0
Zn  Zn4  1  0.73392126  0.60465943  0.05782449  1  1.186452  0  0.714068  0.628588  0  2.514149  0
Zn  Zn5  1  0.23392038  0.89533926  0.94217209  1  1.18647  0  0.714071  0.628501  0  2.51432  0
Zn  Zn6  1  0.26607684  0.39533869  0.94217676  1  1.186297  0  0.714077  0.628531  0  2.514165  0
Zn  Zn7  1  0.76607556  0.10466169  0.05782571  1  1.186493  0  0.714099  0.628613  0  2.51416  0
Zn  Zn8  1  0.95435869  0.87417238  0.29289677  1  1.183779  0  0.718306  0.626596  0  2.577312  0
Zn  Zn9  1  0.45435761  0.62583003  0.70711385  1  1.183797  0  0.71829  0.626686  0  2.577239  0
Zn  Zn10  1  0.04564158  0.12582289  0.70710342  1  1.18376  0  0.718266  0.626546  0  2.577388  0
Zn  Zn11  1  0.54563833  0.37417525  0.29289035  1  1.183766  0  0.718262  0.626545  0  2.577323  0
Zn  Zn12  1  0.20026571  0.22037527  0.42608232  1  1.185902  0  0.718478  0.636247  0  2.533568  0
Zn  Zn13  1  0.70025986  0.27963122  0.57391901  1  1.186026  0  0.718484  0.63637  0  2.533525  0
Zn  Zn14  1  0.79973672  0.77962003  0.57392239  1  1.185955  0  0.71843  0.636285  0  2.533626  0
Zn  Zn15  1  0.29974329  0.72037756  0.42607734  1  1.185986  0  0.718498  0.636313  0  2.533664  0
H  H16  1  0.19861466  0.34839877  0.30577804  1  0.084385  0  0.122331  0.076625  0  1.026235  0
H  H17  1  0.69861671  0.15160132  0.69422386  1  0.084531  0  0.122379  0.076683  0  1.026269  0
H  H18  1  0.80138344  0.65160010  0.69422617  1  0.084518  0  0.122397  0.076732  0  1.026257  0
H  H19  1  0.30138428  0.84839823  0.30577708  1  0.084539  0  0.122357  0.076645  0  1.026296  0
H  H20  1  0.91989055  0.43509937  0.38687934  1  0.0769  0  0.106407  0.094313  0  1.048807  0
H  H21  1  0.41989573  0.06490356  0.61311951  1  0.076975  0  0.106409  0.094334  0  1.04884  0
H  H22  1  0.08011188  0.56490236  0.61312649  1  0.077111  0  0.106398  0.09435  0  1.048824  0
H  H23  1  0.58010238  0.93509604  0.38688708  1  0.076956  0  0.106475  0.094379  0  1.048839  0
H  H24  1  0.01310837  0.35815281  0.49588962  1  0.099523  0  0.11077  0.103757  0  1.020052  0
H  H25  1  0.51311284  0.14185416  0.50411249  1  0.099577  0  0.110723  0.103662  0  1.020016  0
H  H26  1  0.98689551  0.64184891  0.50411452  1  0.099572  0  0.110764  0.103756  0  1.020065  0
H  H27  1  0.48687878  0.85814900  0.49589360  1  0.099483  0  0.110792  0.103794  0  1.019932  0
H  H28  1  0.92101579  0.48350768  0.07899291  1  0.093287  0  0.122925  0.078897  0  1.007244  0
H  H29  1  0.42101156  0.01647734  0.92099717  1  0.093621  0  0.123005  0.079113  0  1.007188  0
H  H30  1  0.07899097  0.51649473  0.92100909  1  0.093179  0  0.122962  0.078972  0  1.007283  0
H  H31  1  0.57898366  0.98351076  0.07900007  1  0.09319  0  0.122935  0.078948  0  1.00736  0
H  H32  1  0.82361969  0.48776052  0.30491502  1  0.081717  0  0.105369  0.092603  0  1.06034  0
H  H33  1  0.32361430  0.01223727  0.69507849  1  0.081569  0  0.105318  0.092548  0  1.06023  0
H  H34  1  0.17638130  0.51223113  0.69508002  1  0.08169  0  0.105351  0.092612  0  1.060274  0
H  H35  1  0.67638092  0.98776151  0.30491611  1  0.081537  0  0.105378  0.092616  0  1.060258  0
H  H36  1  0.67826300  0.55329088  0.22304343  1  0.090122  0  0.109446  0.100506  0  1.037695  0
H  H37  1  0.17825909  0.94671742  0.77695149  1  0.090321  0  0.109518  0.100721  0  1.037835  0
H  H38  1  0.32174160  0.44670363  0.77695212  1  0.089606  0  0.109517  0.100649  0  1.037721  0
H  H39  1  0.82173469  0.05328348  0.22304065  1  0.090566  0  0.109489  0.100578  0  1.03763  0
H  H40  1  0.08636237  0.38702380  0.04334697  1  0.121292  0  0.122726  0.078994  0  1.024288  0
H  H41  1  0.58636509  0.11297983  0.95665281  1  0.121302  0  0.122733  0.079015  0  1.024294  0
H  H42  1  0.91364582  0.61297929  0.95665177  1  0.121236  0  0.122722  0.078967  0  1.024345  0
H  H43  1  0.41363878  0.88701753  0.04334267  1  0.12122  0  0.122721  0.07898  0  1.02441  0
H  H44  1  0.35869885  0.50407372  0.11464538  1  0.065209  0  0.10457  0.090564  0  1.062632  0
H  H45  1  0.85870138  0.99592215  0.88536304  1  0.065472  0  0.10457  0.090511  0  1.062655  0
H  H46  1  0.64130358  0.49593156  0.88535882  1  0.065161  0  0.104588  0.090568  0  1.062665  0
H  H47  1  0.14129961  0.00406528  0.11463748  1  0.065161  0  0.104558  0.090553  0  1.062645  0
H  H48  1  0.24491395  0.51210267  0.24316021  1  0.106586  0  0.107091  0.100035  0  1.04478  0
H  H49  1  0.74492244  0.98789316  0.75684377  1  0.106683  0  0.107095  0.10009  0  1.044697  0
H  H50  1  0.75508416  0.48789829  0.75683928  1  0.106613  0  0.107093  0.100042  0  1.044723  0
H  H51  1  0.25508359  0.01209425  0.24315561  1  0.106749  0  0.107124  0.100185  0  1.044677  0
H  H52  1  0.84140332  0.29444082  0.14725556  1  0.118619  0  0.121856  0.082771  0  1.046589  0
H  H53  1  0.34140157  0.20556688  0.85274136  1  0.118695  0  0.121855  0.08279  0  1.046607  0
H  H54  1  0.15859263  0.70557004  0.85273438  1  0.118761  0  0.121871  0.082817  0  1.04664  0
H  H55  1  0.65859869  0.79443127  0.14726215  1  0.118636  0  0.121843  0.082767  0  1.046618  0
H  H56  1  0.00876368  0.05384898  0.04788159  1  0.053986  0  0.106049  0.090566  0  1.050613  0
H  H57  1  0.50876718  0.44614799  0.95211538  1  0.053913  0  0.106063  0.090527  0  1.050642  0
H  H58  1  0.99123875  0.94615558  0.95212135  1  0.053637  0  0.106065  0.090552  0  1.050645  0
H  H59  1  0.49123093  0.55384866  0.04788054  1  0.05367  0  0.106069  0.090589  0  1.050523  0
H  H60  1  0.12868082  0.19778545  0.12503441  1  0.120518  0  0.116643  0.106208  0  0.9991  0
H  H61  1  0.62867955  0.30220792  0.87496411  1  0.120541  0  0.116638  0.106256  0  0.999036  0
H  H62  1  0.87132017  0.80221983  0.87497035  1  0.120559  0  0.116641  0.106206  0  0.999091  0
H  H63  1  0.37131784  0.69779088  0.12503219  1  0.120511  0  0.116636  0.10619  0  0.999082  0
H  H64  1  0.81707459  0.71183278  0.21786342  1  0.10411  0  0.118255  0.071837  0  1.032478  0
H  H65  1  0.31706664  0.78816763  0.78214469  1  0.104009  0  0.11828  0.071837  0  1.032537  0
H  H66  1  0.18293433  0.28816105  0.78213596  1  0.104101  0  0.118311  0.071949  0  1.03245  0
H  H67  1  0.68293291  0.21184193  0.21785856  1  0.104216  0  0.118286  0.071872  0  1.032543  0
H  H68  1  0.96761264  0.90212992  0.11059139  1  0.081302  0  0.10458  0.089855  0  1.048572  0
H  H69  1  0.46759280  0.59785948  0.88940849  1  0.08103  0  0.104644  0.08986  0  1.048674  0
H  H70  1  0.03238547  0.09787100  0.88940302  1  0.081285  0  0.104608  0.089884  0  1.04859  0
H  H71  1  0.53239306  0.40214148  0.11059101  1  0.081169  0  0.104614  0.089932  0  1.048565  0
H  H72  1  0.86173366  0.77722272  0.00049354  1  0.060934  0  0.102027  0.086008  0  1.07746  0
H  H73  1  0.36171507  0.72275955  0.99951137  1  0.06078  0  0.102026  0.085999  0  1.07753  0
H  H74  1  0.13825796  0.22277539  0.99950659  1  0.060964  0  0.102004  0.086035  0  1.077433  0
H  H75  1  0.63827511  0.27724071  0.00048856  1  0.060742  0  0.102025  0.086085  0  1.077425  0
H  H76  1  0.07993495  0.01892965  0.42222794  1  0.073726  0  0.120071  0.076683  0  1.032026  0
H  H77  1  0.57992710  0.48107688  0.57777291  1  0.074286  0  0.120032  0.076634  0  1.032027  0
H  H78  1  0.92006748  0.98106770  0.57776641  1  0.073639  0  0.120044  0.076706  0  1.032013  0
H  H79  1  0.42007389  0.51892621  0.42222583  1  0.07401  0  0.120043  0.076608  0  1.032055  0
H  H80  1  0.10462371  0.19202018  0.26039896  1  0.077748  0  0.105187  0.089344  0  1.068189  0
H  H81  1  0.60462399  0.30798264  0.73960292  1  0.077745  0  0.105226  0.089348  0  1.068246  0
H  H82  1  0.89537223  0.80797938  0.73960311  1  0.077701  0  0.105165  0.08931  0  1.068239  0
H  H83  1  0.39537051  0.69202115  0.26039425  1  0.077709  0  0.10523  0.089382  0  1.068181  0
H  H84  1  0.98453253  0.04046053  0.20076959  1  0.08756  0  0.103689  0.086745  0  1.072569  0
H  H85  1  0.48452707  0.45953771  0.79922896  1  0.087553  0  0.103709  0.086789  0  1.072478  0
H  H86  1  0.01547062  0.95953615  0.79922972  1  0.087525  0  0.103748  0.086852  0  1.072515  0
H  H87  1  0.51546743  0.54046678  0.20076720  1  0.087547  0  0.103721  0.086759  0  1.072568  0
H  H88  1  0.11783039  0.26249701  0.60216788  1  0.097186  0  0.119543  0.074977  0  1.031735  0
H  H89  1  0.61782573  0.23749497  0.39782758  1  0.096988  0  0.11955  0.074871  0  1.031658  0
H  H90  1  0.88217781  0.73750541  0.39783525  1  0.097307  0  0.119538  0.074971  0  1.031608  0
H  H91  1  0.38217598  0.76250026  0.60216922  1  0.097017  0  0.119533  0.07488  0  1.031764  0
H  H92  1  0.20068994  0.97962688  0.59870795  1  0.100466  0  0.114516  0.110021  0  1.005476  0
H  H93  1  0.70068088  0.52036417  0.40128676  1  0.100463  0  0.114545  0.110014  0  1.005393  0
H  H94  1  0.79930024  0.02037195  0.40129230  1  0.10051  0  0.114532  0.110084  0  1.005391  0
H  H95  1  0.29931362  0.47963608  0.59871261  1  0.100575  0  0.114547  0.110042  0  1.005439  0
H  H96  1  0.28119770  0.03467038  0.47235181  1  0.100881  0  0.109102  0.103055  0  1.02845  0
H  H97  1  0.78118857  0.46532917  0.52764824  1  0.10102  0  0.109151  0.103147  0  1.028366  0
H  H98  1  0.71879392  0.96532202  0.52764732  1  0.100846  0  0.109222  0.103268  0  1.028391  0
H  H99  1  0.21881314  0.53467538  0.47235357  1  0.101073  0  0.109163  0.103115  0  1.028465  0
H  H100  1  0.34220431  0.37263868  0.37830309  1  0.116613  0  0.117489  0.065066  0  1.055736  0
H  H101  1  0.84220227  0.12735827  0.62168857  1  0.116778  0  0.117495  0.065021  0  1.055835  0
H  H102  1  0.65779379  0.62736371  0.62169722  1  0.116513  0  0.117501  0.065082  0  1.055773  0
H  H103  1  0.15780161  0.87263553  0.37830685  1  0.116851  0  0.117479  0.065038  0  1.055769  0
H  H104  1  0.52220482  0.14321984  0.27541643  1  0.101707  0  0.105259  0.094591  0  1.0584  0
H  H105  1  0.02220803  0.35677564  0.72458253  1  0.101802  0  0.105289  0.094666  0  1.058297  0
H  H106  1  0.47780193  0.85678481  0.72459611  1  0.102057  0  0.105285  0.094631  0  1.058315  0
H  H107  1  0.97779368  0.64322039  0.27542287  1  0.101782  0  0.105226  0.094561  0  1.058283  0
H  H108  1  0.37233534  0.07499222  0.35089114  1  0.098795  0  0.104625  0.093762  0  1.057026  0
H  H109  1  0.87233209  0.42500677  0.64911101  1  0.098815  0  0.104647  0.093793  0  1.057016  0
H  H110  1  0.62766637  0.92500666  0.64911420  1  0.098838  0  0.104655  0.093822  0  1.056971  0
H  H111  1  0.12766818  0.57499569  0.35089664  1  0.098788  0  0.104597  0.093749  0  1.057033  0
C  C112  1  0.13602041  0.36278837  0.34335597  1  0.941951  0  0.107825  0.117796  0  4.02511  0
C  C113  1  0.63602187  0.13721854  0.65664717  1  0.941781  0  0.107779  0.117765  0  4.025096  0
C  C114  1  0.86398130  0.63721335  0.65664873  1  0.941807  0  0.107753  0.11762  0  4.02536  0
C  C115  1  0.36397984  0.86278098  0.34335038  1  0.941835  0  0.107769  0.117751  0  4.025086  0
C  C116  1  0.99226436  0.40631131  0.38572866  1  0.344486  0  -0.017506  -0.048474  0  4.006034  0
C  C117  1  0.49226575  0.09368977  0.61427320  1  0.344453  0  -0.017623  -0.048694  0  4.006244  0
C  C118  1  0.00773735  0.59369258  0.61427868  1  0.344699  0  -0.017705  -0.048858  0  4.006562  0
C  C119  1  0.50772731  0.90631053  0.38573182  1  0.344138  0  -0.01764  -0.048635  0  4.006337  0
C  C120  1  0.03890046  0.36785976  0.44033481  1  0.35769  0  -0.017442  -0.047694  0  4.011557  0
C  C121  1  0.53890422  0.13213564  0.55966808  1  0.357769  0  -0.017319  -0.047435  0  4.011487  0
C  C122  1  0.96110341  0.63213194  0.55966589  1  0.357482  0  -0.017296  -0.047462  0  4.011417  0
C  C123  1  0.46109317  0.86787039  0.44034076  1  0.358132  0  -0.017429  -0.047732  0  4.011315  0
C  C124  1  0.87466045  0.49341571  0.12950425  1  0.966939  0  0.114976  0.131616  0  4.006581  0
C  C125  1  0.37465563  0.00657392  0.87048893  1  0.966313  0  0.114785  0.131146  0  4.007023  0
C  C126  1  0.12534775  0.50658598  0.87049650  1  0.967174  0  0.114848  0.131375  0  4.006835  0
C  C127  1  0.62534104  0.99341202  0.12950512  1  0.966966  0  0.114906  0.131436  0  4.006737  0
C  C128  1  0.82321170  0.49743418  0.24601962  1  0.371885  0  -0.024844  -0.067565  0  4.026013  0
C  C129  1  0.32321207  0.00256935  0.75397658  1  0.372341  0  -0.024821  -0.067475  0  4.026082  0
C  C130  1  0.17679362  0.50255821  0.75397837  1  0.371897  0  -0.024779  -0.067449  0  4.025862  0
C  C131  1  0.67678243  0.99744229  0.24602083  1  0.372102  0  -0.025  -0.067754  0  4.02633  0
C  C132  1  0.75032107  0.52876940  0.20492862  1  0.336625  0  -0.020553  -0.05263  0  4.027748  0
C  C133  1  0.25031194  0.97123912  0.79506234  1  0.335752  0  -0.020524  -0.052893  0  4.027923  0
C  C134  1  0.24968424  0.47122299  0.79506938  1  0.337025  0  -0.020614  -0.052844  0  4.027867  0
C  C135  1  0.74967679  0.02876606  0.20493112  1  0.336465  0  -0.020529  -0.052611  0  4.027796  0
C  C136  1  0.14452403  0.42131830  0.08021232  1  0.914776  0  0.109016  0.12584  0  4.007526  0
C  C137  1  0.64452340  0.07868209  0.91978459  1  0.914804  0  0.109034  0.125833  0  4.007546  0
C  C138  1  0.85547984  0.57868197  0.91978931  1  0.914679  0  0.109058  0.125928  0  4.007902  0
C  C139  1  0.35548119  0.92131670  0.08021057  1  0.914613  0  0.108956  0.125741  0  4.007878  0
C  C140  1  0.28483813  0.48096424  0.11814948  1  0.359563  0  -0.023825  -0.057724  0  4.029179  0
C  C141  1  0.78484152  0.01903034  0.88185590  1  0.359072  0  -0.0239  -0.057714  0  4.029209  0
C  C142  1  0.71516142  0.51904029  0.88185063  1  0.359011  0  -0.023853  -0.057736  0  4.029119  0
C  C143  1  0.21515802  0.98095278  0.11814160  1  0.358957  0  -0.023862  -0.057763  0  4.029409  0
C  C144  1  0.22813598  0.48441233  0.18258021  1  0.338835  0  -0.022815  -0.054388  0  4.023088  0
C  C145  1  0.72814307  0.01558402  0.81742328  1  0.338818  0  -0.022668  -0.05431  0  4.02311  0
C  C146  1  0.77186789  0.51558864  0.81741985  1  0.338871  0  -0.022782  -0.054351  0  4.02292  0
C  C147  1  0.27185864  0.98440621  0.18257265  1  0.338709  0  -0.022711  -0.054418  0  4.02317  0
C  C148  1  0.90336260  0.24835557  0.13097289  1  0.961098  0  0.112357  0.131683  0  4.000208  0
C  C149  1  0.40335911  0.25164535  0.86902844  1  0.960962  0  0.112371  0.131688  0  4.000206  0
C  C150  1  0.09663550  0.75165032  0.86902013  1  0.961053  0  0.112372  0.13166  0  4.000249  0
C  C151  1  0.59663539  0.74835637  0.13097683  1  0.96103  0  0.112373  0.131644  0  4.000201  0
C  C152  1  0.99103928  0.12516934  0.08010543  1  0.365107  0  -0.021361  -0.062499  0  4.032207  0
C  C153  1  0.49103639  0.37483382  0.91988890  1  0.364721  0  -0.021378  -0.062484  0  4.032042  0
C  C154  1  0.00896459  0.87483449  0.91989569  1  0.365041  0  -0.021362  -0.062559  0  4.032078  0
C  C155  1  0.50896172  0.62516850  0.08010293  1  0.364599  0  -0.021359  -0.062624  0  4.031914  0
C  C156  1  0.05088934  0.19712672  0.11830908  1  0.301201  0  -0.013767  -0.045916  0  4.027239  0
C  C157  1  0.55088806  0.30287423  0.88168461  1  0.30106  0  -0.013721  -0.045894  0  4.027096  0
C  C158  1  0.94910949  0.80288000  0.88169593  1  0.301159  0  -0.013694  -0.045718  0  4.027039  0
C  C159  1  0.44910861  0.69712453  0.11830773  1  0.301131  0  -0.013666  -0.045695  0  4.02706  0
C  C160  1  0.84354779  0.74689463  0.17356367  1  0.98155  0  0.109777  0.130888  0  4.005007  0
C  C161  1  0.34354361  0.75311133  0.82644539  1  0.98164  0  0.10991  0.131086  0  4.005108  0
C  C162  1  0.15645536  0.25310349  0.82643702  1  0.981573  0  0.109773  0.130651  0  4.00528  0
C  C163  1  0.65645305  0.24689679  0.17355648  1  0.982163  0  0.109872  0.130981  0  4.005368  0
C  C164  1  0.91977912  0.84475768  0.11708493  1  0.338174  0  -0.024485  -0.056002  0  4.03175  0
C  C165  1  0.41976324  0.65522924  0.88292187  1  0.33681  0  -0.024547  -0.055903  0  4.031693  0
C  C166  1  0.08022043  0.15524329  0.88291512  1  0.338211  0  -0.02456  -0.056127  0  4.032008  0
C  C167  1  0.58023126  0.34476959  0.11707837  1  0.336212  0  -0.0245  -0.056077  0  4.031982  0
C  C168  1  0.86751180  0.78194454  0.06209734  1  0.394262  0  -0.026124  -0.058042  0  4.041418  0
C  C169  1  0.36748898  0.71804623  0.93790566  1  0.396057  0  -0.026089  -0.057955  0  4.041516  0
C  C170  1  0.13248558  0.21805498  0.93790077  1  0.394219  0  -0.026076  -0.058054  0  4.041538  0
C  C171  1  0.63250119  0.28195544  0.06209339  1  0.396346  0  -0.026169  -0.058069  0  4.041426  0
C  C172  1  0.07115444  0.04450051  0.36939877  1  0.982942  0  0.10802  0.124451  0  4.013066  0
C  C173  1  0.57114454  0.45550680  0.63060223  1  0.981801  0  0.108058  0.124456  0  4.013116  0
C  C174  1  0.92885015  0.95550186  0.63059871  1  0.982861  0  0.108047  0.124407  0  4.013049  0
C  C175  1  0.42885069  0.54449557  0.36939526  1  0.982785  0  0.107966  0.124434  0  4.013182  0
C  C176  1  0.08268176  0.13284965  0.28495674  1  0.353982  0  -0.020928  -0.046238  0  4.026878  0
C  C177  1  0.58268097  0.36714757  0.71504136  1  0.353565  0  -0.021007  -0.046197  0  4.026661  0
C  C178  1  0.91731779  0.86714703  0.71504257  1  0.353537  0  -0.020952  -0.046189  0  4.026447  0
C  C179  1  0.41732002  0.63285838  0.28495731  1  0.353492  0  -0.021046  -0.046383  0  4.02673  0
C  C180  1  0.02237142  0.05755395  0.25552042  1  0.373218  0  -0.022915  -0.059551  0  4.03188  0
C  C181  1  0.52236652  0.44244367  0.74447948  1  0.373197  0  -0.022936  -0.0597  0  4.031766  0
C  C182  1  0.97763677  0.94244346  0.74448071  1  0.373227  0  -0.022931  -0.059694  0  4.031612  0
C  C183  1  0.47763158  0.55755798  0.25551731  1  0.373276  0  -0.022935  -0.059631  0  4.031769  0
C  C184  1  0.15291928  0.19349659  0.58457198  1  0.963909  0  0.112929  0.136057  0  4.01351  0
C  C185  1  0.65291417  0.30649731  0.41542323  1  0.964183  0  0.113104  0.136678  0  4.013028  0
C  C186  1  0.84708963  0.80650726  0.41543084  1  0.96415  0  0.113088  0.13639  0  4.013482  0
C  C187  1  0.34708898  0.69349937  0.58457608  1  0.964106  0  0.113068  0.136459  0  4.013338  0
C  C188  1  0.19696476  0.04759445  0.58163543  1  0.378614  0  -0.021193  -0.068653  0  4.042423  0
C  C189  1  0.69696087  0.45239490  0.41836008  1  0.378211  0  -0.021213  -0.068559  0  4.04273  0
C  C190  1  0.80302975  0.95240153  0.41836488  1  0.378603  0  -0.021235  -0.068702  0  4.042706  0
C  C191  1  0.30303867  0.54760391  0.58163735  1  0.378255  0  -0.02134  -0.068839  0  4.042924  0
C  C192  1  0.23614986  0.07475442  0.51832961  1  0.278025  0  -0.02262  -0.058761  0  4.024704  0
C  C193  1  0.73613815  0.42524255  0.48166833  1  0.278156  0  -0.022652  -0.058958  0  4.024881  0
C  C194  1  0.76383815  0.92523939  0.48166751  1  0.278213  0  -0.022742  -0.059044  0  4.025093  0
C  C195  1  0.26385707  0.57476412  0.51833159  1  0.278081  0  -0.022556  -0.058712  0  4.024889  0
C  C196  1  0.37065436  0.30073908  0.36023026  1  0.948112  0  0.107804  0.124164  0  4.026417  0
C  C197  1  0.87065400  0.19925771  0.63976417  1  0.94789  0  0.107728  0.124085  0  4.026709  0
C  C198  1  0.62934447  0.69926194  0.63977545  1  0.948685  0  0.107824  0.124143  0  4.026494  0
C  C199  1  0.12934916  0.80073896  0.36023457  1  0.947951  0  0.107754  0.124114  0  4.026592  0
C  C200  1  0.46298111  0.18136868  0.30860630  1  0.382604  0  -0.02479  -0.061674  0  4.024559  0
C  C201  1  0.96297561  0.31862901  0.69139443  1  0.382542  0  -0.024818  -0.061825  0  4.024544  0
C  C202  1  0.53702997  0.81863525  0.69140613  1  0.382285  0  -0.024759  -0.061669  0  4.02473  0
C  C203  1  0.03702754  0.68136985  0.30860977  1  0.381916  0  -0.024834  -0.061787  0  4.024412  0
C  C204  1  0.38773641  0.14729655  0.34562118  1  0.304491  0  -0.024369  -0.059194  0  4.029079  0
C  C205  1  0.88773578  0.35270017  0.65437717  1  0.304518  0  -0.024394  -0.05919  0  4.02908  0
C  C206  1  0.61226602  0.85270374  0.65438384  1  0.304798  0  -0.024392  -0.0592  0  4.029074  0
C  C207  1  0.11226304  0.64730014  0.34562897  1  0.30477  0  -0.024312  -0.059092  0  4.029017  0
N  N208  1  0.05431613  0.40275462  0.32395573  1  -1.253843  0  -0.377238  -0.29737  0  3.607629  0
N  N209  1  0.55432142  0.09724637  0.67604417  1  -1.253998  0  -0.3772  -0.297258  0  3.607617  0
N  N210  1  0.94568269  0.59724066  0.67604559  1  -1.254402  0  -0.377144  -0.297111  0  3.607867  0
N  N211  1  0.44568101  0.90275536  0.32396166  1  -1.253803  0  -0.377186  -0.297247  0  3.60757  0
N  N212  1  0.13045274  0.34005457  0.41326083  1  -1.243322  0  -0.381629  -0.313835  0  3.576992  0
N  N213  1  0.63045413  0.15994879  0.58673887  1  -1.243527  0  -0.38166  -0.313993  0  3.577031  0
N  N214  1  0.86954825  0.65994359  0.58674325  1  -1.243146  0  -0.381617  -0.313866  0  3.576867  0
N  N215  1  0.36953893  0.84005358  0.41325861  1  -1.243496  0  -0.381582  -0.31377  0  3.576641  0
N  N216  1  0.90234043  0.47535263  0.19785916  1  -1.284397  0  -0.377266  -0.296842  0  3.611425  0
N  N217  1  0.40233772  0.02464539  0.80213603  1  -1.284116  0  -0.377221  -0.296721  0  3.611625  0
N  N218  1  0.09766489  0.52464762  0.80214021  1  -1.284276  0  -0.377254  -0.296882  0  3.611196  0
N  N219  1  0.59766110  0.97534982  0.19785851  1  -1.284632  0  -0.377114  -0.296572  0  3.61165  0
N  N220  1  0.78337416  0.52562276  0.13088357  1  -1.251452  0  -0.376687  -0.30405  0  3.617103  0
N  N221  1  0.28336854  0.97437272  0.86910791  1  -1.251133  0  -0.376688  -0.303875  0  3.617005  0
N  N222  1  0.21663115  0.47437607  0.86911612  1  -1.251554  0  -0.376654  -0.303908  0  3.617219  0
N  N223  1  0.71662669  0.02562390  0.13088518  1  -1.251516  0  -0.376698  -0.304064  0  3.616899  0
N  N224  1  0.13904198  0.44618970  0.15800699  1  -1.224548  0  -0.378451  -0.297784  0  3.612686  0
N  N225  1  0.63904808  0.05380931  0.84199194  1  -1.224592  0  -0.37851  -0.297826  0  3.612952  0
N  N226  1  0.86096117  0.55381199  0.84199376  1  -1.224526  0  -0.37844  -0.297772  0  3.612616  0
N  N227  1  0.36095435  0.94618377  0.15800392  1  -1.22451  0  -0.37844  -0.297724  0  3.612735  0
N  N228  1  0.23139075  0.44080479  0.05322120  1  -1.263783  0  -0.379603  -0.290145  0  3.61683  0
N  N229  1  0.73139093  0.05919439  0.94678108  1  -1.263757  0  -0.379615  -0.290189  0  3.616779  0
N  N230  1  0.76861457  0.55919618  0.94677886  1  -1.263204  0  -0.379658  -0.290254  0  3.617167  0
N  N231  1  0.26861582  0.94080440  0.05321465  1  -1.263119  0  -0.379603  -0.290134  0  3.616987  0
N  N232  1  0.99454778  0.27503154  0.15046808  1  -1.253037  0  -0.37478  -0.304798  0  3.597655  0
N  N233  1  0.49454447  0.22496880  0.84953309  1  -1.252797  0  -0.374832  -0.304954  0  3.597739  0
N  N234  1  0.00545177  0.72497442  0.84953285  1  -1.252903  0  -0.37487  -0.304984  0  3.597637  0
N  N235  1  0.50545075  0.77502717  0.15046666  1  -1.252956  0  -0.374864  -0.304923  0  3.597875  0
N  N236  1  0.89718754  0.15809152  0.08842870  1  -1.256485  0  -0.379185  -0.29401  0  3.606914  0
N  N237  1  0.39718487  0.34191016  0.91157334  1  -1.256074  0  -0.379154  -0.293895  0  3.60676  0
N  N238  1  0.10281489  0.84191514  0.91156953  1  -1.256596  0  -0.379185  -0.293915  0  3.606763  0
N  N239  1  0.60281468  0.65808867  0.08842804  1  -1.255965  0  -0.379193  -0.293909  0  3.606626  0
N  N240  1  0.81986930  0.71968014  0.09823090  1  -1.274169  0  -0.379989  -0.301982  0  3.605989  0
N  N241  1  0.31986270  0.78031880  0.90177470  1  -1.273832  0  -0.380161  -0.30213  0  3.606553  0
N  N242  1  0.18013097  0.28031725  0.90176797  1  -1.274196  0  -0.379958  -0.301783  0  3.606126  0
N  N243  1  0.68013829  0.21968717  0.09822680  1  -1.274345  0  -0.380057  -0.302044  0  3.606324  0
N  N244  1  0.90356763  0.82243368  0.18784386  1  -1.286385  0  -0.383596  -0.293745  0  3.643542  0
N  N245  1  0.40355386  0.67756187  0.81216052  1  -1.286676  0  -0.383601  -0.293971  0  3.64344  0
N  N246  1  0.09643552  0.17756156  0.81215407  1  -1.286389  0  -0.383647  -0.293704  0  3.643657  0
N  N247  1  0.59644137  0.32244265  0.18783847  1  -1.286787  0  -0.383604  -0.293834  0  3.643741  0
N  N248  1  0.01537013  0.00150226  0.30924295  1  -1.291224  0  -0.386334  -0.297414  0  3.631558  0
N  N249  1  0.51536565  0.49849827  0.69075803  1  -1.290884  0  -0.386256  -0.29724  0  3.631964  0
N  N250  1  0.98463230  0.99849585  0.69075661  1  -1.291165  0  -0.386299  -0.297318  0  3.631774  0
N  N251  1  0.48463173  0.50150553  0.30923970  1  -1.291023  0  -0.386202  -0.297172  0  3.631849  0
N  N252  1  0.11366527  0.12398801  0.35686932  1  -1.253681  0  -0.378029  -0.301359  0  3.612188  0
N  N253  1  0.61366523  0.37601615  0.64312884  1  -1.252913  0  -0.37804  -0.301401  0  3.611743  0
N  N254  1  0.88633211  0.87601223  0.64312949  1  -1.252989  0  -0.378035  -0.301386  0  3.611904  0
N  N255  1  0.38633216  0.62398765  0.35686889  1  -1.253321  0  -0.378008  -0.30126  0  3.611792  0
N  N256  1  0.14451170  0.12347768  0.62349295  1  -1.255147  0  -0.377605  -0.29483  0  3.615833  0
N  N257  1  0.64450762  0.37651412  0.37650077  1  -1.254909  0  -0.377618  -0.295067  0  3.616096  0
N  N258  1  0.85549001  0.87652400  0.37650723  1  -1.255268  0  -0.377603  -0.294922  0  3.616037  0
N  N259  1  0.35549193  0.62348113  0.62349829  1  -1.255022  0  -0.377519  -0.29486  0  3.615989  0
N  N260  1  0.20754262  0.16778677  0.52054829  1  -1.251644  0  -0.384805  -0.301891  0  3.619385  0
N  N261  1  0.70753223  0.33220751  0.47944808  1  -1.251968  0  -0.38501  -0.302237  0  3.619515  0
N  N262  1  0.79246125  0.83220991  0.47944989  1  -1.252156  0  -0.384943  -0.302161  0  3.619875  0
N  N263  1  0.29247093  0.66779631  0.52055192  1  -1.252069  0  -0.385091  -0.302249  0  3.619577  0
N  N264  1  0.45143739  0.27885799  0.31823333  1  -1.27571  0  -0.378988  -0.295324  0  3.618201  0
N  N265  1  0.95143973  0.22113826  0.68175869  1  -1.275598  0  -0.378903  -0.295156  0  3.618051  0
N  N266  1  0.54855927  0.72114800  0.68177042  1  -1.276106  0  -0.379097  -0.295492  0  3.618414  0
N  N267  1  0.04856054  0.77885916  0.31824357  1  -1.275146  0  -0.378835  -0.295129  0  3.618026  0
N  N268  1  0.32909357  0.22347309  0.37783755  1  -1.276685  0  -0.384227  -0.296149  0  3.632766  0
N  N269  1  0.82908986  0.27652616  0.62216298  1  -1.276902  0  -0.384248  -0.296189  0  3.632907  0
N  N270  1  0.67090526  0.77652502  0.62216201  1  -1.277023  0  -0.384227  -0.296129  0  3.632727  0
N  N271  1  0.17091113  0.72347197  0.37783884  1  -1.277043  0  -0.384274  -0.296254  0  3.632958  0
