# generated using pymatgen
data_ZnH16C18(SN4)2
_symmetry_space_group_name_H-M   'P 1'
_cell_length_a   8.16117717
_cell_length_b   10.16471688
_cell_length_c   12.96587596
_cell_angle_alpha   90.20360866
_cell_angle_beta   98.51707368
_cell_angle_gamma   107.78750370
_symmetry_Int_Tables_number   1
_chemical_formula_structural   ZnH16C18(SN4)2
_chemical_formula_sum   'Zn2 H32 C36 S4 N16'
_cell_volume   1011.52438239
_cell_formula_units_Z   2
loop_
 _symmetry_equiv_pos_site_id
 _symmetry_equiv_pos_as_xyz
  1  'x, y, z'
loop_
 _atom_site_type_symbol
 _atom_site_label
 _atom_site_symmetry_multiplicity
 _atom_site_fract_x
 _atom_site_fract_y
 _atom_site_fract_z
 _atom_site_occupancy
 _atom_site_hle17_bader_spin_density
 _atom_site_hle17_ddec_charge
 _atom_site_hle17_ddec_spin_density
 _atom_site_hle17_ddec_sum_bond_order
 _atom_site_hle17_magmom
 _atom_site_hse06_10hf_bader_spin_density
 _atom_site_hse06_10hf_ddec_charge
 _atom_site_hse06_10hf_ddec_spin_density
 _atom_site_hse06_10hf_ddec_sum_bond_order
 _atom_site_hse06_10hf_magmom
 _atom_site_hse06_bader_spin_density
 _atom_site_hse06_ddec_charge
 _atom_site_hse06_ddec_spin_density
 _atom_site_hse06_ddec_sum_bond_order
 _atom_site_hse06_magmom
 _atom_site_pbe_bader_spin_density
 _atom_site_pbe_cm5_charge
 _atom_site_pbe_ddec_charge
 _atom_site_pbe_ddec_spin_density
 _atom_site_pbe_ddec_sum_bond_order
 _atom_site_pbe_magmom
Zn  Zn0  1  0.50835257  0.87392493  0.79074018  1  0  1.000953  0  2.061023  0  0  0.807315  0  2.574029  0  0  0.846633  0  2.522224  0  0  0.77253  0.780747  0  2.608814  0
Zn  Zn1  1  0.49165124  0.12607834  0.20926129  1  0  1.000927  0  2.061146  0  0  0.807298  0  2.574177  0  0  0.846632  0  2.522343  0  0  0.772521  0.780733  0  2.608961  0
H  H2  1  0.73354736  0.10832830  0.98904551  1  0  0.112159  0  0.951182  0  0  0.122432  0  1.009751  0  0  0.125046  0  1.008712  0  0  0.107536  0.120474  0  1.010772  0
H  H3  1  0.26645077  0.89166976  0.01095465  1  0  0.112138  0  0.951173  0  0  0.122419  0  1.009736  0  0  0.125032  0  1.008699  0  0  0.107519  0.120457  0  1.010761  0
H  H4  1  0.93422395  0.19077433  0.15821502  1  0  0.093964  0  0.961725  0  0  0.104617  0  1.023012  0  0  0.106741  0  1.022911  0  0  0.101291  0.102951  0  1.023416  0
H  H5  1  0.06577667  0.80922376  0.84178537  1  0  0.093975  0  0.961706  0  0  0.104606  0  1.02301  0  0  0.10673  0  1.02291  0  0  0.101283  0.10294  0  1.023412  0
H  H6  1  0.05731625  0.03266700  0.26334353  1  0  0.080534  0  0.987191  0  0  0.089955  0  1.050868  0  0  0.09178  0  1.051409  0  0  0.097369  0.088608  0  1.050561  0
H  H7  1  0.94268762  0.96733317  0.73665562  1  0  0.080592  0  0.987173  0  0  0.090004  0  1.050868  0  0  0.09183  0  1.051409  0  0  0.097371  0.088657  0  1.050557  0
H  H8  1  0.98896012  0.78387023  0.20676789  1  0  0.109443  0  0.960819  0  0  0.115313  0  1.028917  0  0  0.118577  0  1.027538  0  0  0.10323  0.113066  0  1.029717  0
H  H9  1  0.01104336  0.21612892  0.79323123  1  0  0.109452  0  0.960819  0  0  0.115315  0  1.028922  0  0  0.118579  0  1.027544  0  0  0.103232  0.113069  0  1.029723  0
H  H10  1  0.69705809  0.47415949  0.98968223  1  0  0.087949  0  0.938274  0  0  0.097757  0  1.010038  0  0  0.099022  0  1.009692  0  0  0.109004  0.09658  0  1.010911  0
H  H11  1  0.30293919  0.52583961  0.01031786  1  0  0.087909  0  0.938303  0  0  0.0977  0  1.010069  0  0  0.098966  0  1.009722  0  0  0.108982  0.096524  0  1.01094  0
H  H12  1  0.81918708  0.54871412  0.11352158  1  0  0.082699  0  0.946958  0  0  0.095231  0  1.015768  0  0  0.095697  0  1.016377  0  0  0.107232  0.094955  0  1.01523  0
H  H13  1  0.18081143  0.45128498  0.88647785  1  0  0.08267  0  0.946946  0  0  0.095183  0  1.015783  0  0  0.095649  0  1.016392  0  0  0.107197  0.094908  0  1.015245  0
H  H14  1  0.08136577  0.65610121  0.02529059  1  0  0.071154  0  0.932263  0  0  0.091648  0  0.989205  0  0  0.091963  0  0.990453  0  0  0.092682  0.091364  0  0.988205  0
H  H15  1  0.91863242  0.34389376  0.97470803  1  0  0.071207  0  0.932276  0  0  0.091673  0  0.989234  0  0  0.091988  0  0.990486  0  0  0.092668  0.091389  0  0.988235  0
H  H16  1  0.95727247  0.57796859  0.90346308  1  0  0.073328  0  0.944085  0  0  0.087079  0  1.012371  0  0  0.08768  0  1.013257  0  0  0.089834  0.086499  0  1.01201  0
H  H17  1  0.04272402  0.42202843  0.09653693  1  0  0.073326  0  0.944096  0  0  0.087077  0  1.012375  0  0  0.087677  0  1.013263  0  0  0.089832  0.086498  0  1.012013  0
H  H18  1  0.62455426  0.48835527  0.59905875  1  0  0.074896  0  0.960596  0  0  0.086143  0  1.033662  0  0  0.08758  0  1.033221  0  0  0.085093  0.0851  0  1.033857  0
H  H19  1  0.37544007  0.51164586  0.40094261  1  0  0.074939  0  0.96057  0  0  0.086126  0  1.033686  0  0  0.087565  0  1.033245  0  0  0.085085  0.085082  0  1.03388  0
H  H20  1  0.62609311  0.42463084  0.47221080  1  0  0.076452  0  0.948347  0  0  0.093379  0  1.010882  0  0  0.093753  0  1.01177  0  0  0.094129  0.093081  0  1.010021  0
H  H21  1  0.37390044  0.57536822  0.52779049  1  0  0.076388  0  0.948466  0  0  0.093305  0  1.011009  0  0  0.093682  0  1.0119  0  0  0.094094  0.093006  0  1.010149  0
H  H22  1  0.85559100  0.64311662  0.51112348  1  0  0.072554  0  0.952443  0  0  0.08057  0  1.032611  0  0  0.080832  0  1.03334  0  0  0.101127  0.080207  0  1.032312  0
H  H23  1  0.14440378  0.35688245  0.48887638  1  0  0.072504  0  0.9525  0  0  0.080529  0  1.032652  0  0  0.08079  0  1.033386  0  0  0.101101  0.080162  0  1.032352  0
H  H24  1  0.69701209  0.65749696  0.40505448  1  0  0.079841  0  0.941155  0  0  0.092234  0  1.011861  0  0  0.093224  0  1.011631  0  0  0.105814  0.09136  0  1.011946  0
H  H25  1  0.30298146  0.34250210  0.59494604  1  0  0.079831  0  0.941142  0  0  0.092209  0  1.011867  0  0  0.0932  0  1.011639  0  0  0.105811  0.091331  0  1.011953  0
H  H26  1  0.83022860  0.90110972  0.36380977  1  0  0.111163  0  0.95874  0  0  0.120721  0  1.020844  0  0  0.123281  0  1.020643  0  0  0.107847  0.119004  0  1.020943  0
H  H27  1  0.16976828  0.09888834  0.63618951  1  0  0.111167  0  0.958768  0  0  0.120726  0  1.020872  0  0  0.123293  0  1.020664  0  0  0.107853  0.119009  0  1.020975  0
H  H28  1  0.87552267  0.15517696  0.35776121  1  0  0.093125  0  0.967394  0  0  0.104517  0  1.02747  0  0  0.106419  0  1.027383  0  0  0.101336  0.103108  0  1.027695  0
H  H29  1  0.12447382  0.84482007  0.64223648  1  0  0.09314  0  0.967349  0  0  0.104537  0  1.027419  0  0  0.106442  0  1.027332  0  0  0.101327  0.103126  0  1.027646  0
H  H30  1  0.80590850  0.28407605  0.49699201  1  0  0.09315  0  0.959526  0  0  0.10252  0  1.024609  0  0  0.105148  0  1.023754  0  0  0.097504  0.100619  0  1.025195  0
H  H31  1  0.19409125  0.71592306  0.50300522  1  0  0.09315  0  0.959532  0  0  0.102525  0  1.024617  0  0  0.105144  0  1.023769  0  0  0.097487  0.100621  0  1.025201  0
H  H32  1  0.67892300  0.16538090  0.64842996  1  0  0.114938  0  0.96527  0  0  0.12427  0  1.025804  0  0  0.126639  0  1.025391  0  0  0.105317  0.122845  0  1.025601  0
H  H33  1  0.32108080  0.83462237  0.35156920  1  0  0.114967  0  0.965229  0  0  0.124292  0  1.025766  0  0  0.126662  0  1.025352  0  0  0.105336  0.122867  0  1.025561  0
C  C34  1  0.75376481  0.90056674  0.00337657  1  0  0.130193  0  3.824227  0  0  0.123981  0  4.07279  0  0  0.12472  0  4.097597  0  0  0.100114  0.123744  0  4.05577  0
C  C35  1  0.24623783  0.09943343  0.99662402  1  0  0.130068  0  3.824206  0  0  0.12387  0  4.072833  0  0  0.124607  0  4.097643  0  0  0.10008  0.123633  0  4.055811  0
C  C36  1  0.79086605  0.03991041  0.03564989  1  0  -0.117482  0  3.715114  0  0  -0.134287  0  3.965984  0  0  -0.135961  0  3.986034  0  0  -0.082271  -0.13323  0  3.952253  0
C  C37  1  0.20913534  0.96008975  0.96435058  1  0  -0.117345  0  3.715126  0  0  -0.134149  0  3.965971  0  0  -0.135822  0  3.986021  0  0  -0.082208  -0.13309  0  3.952234  0
C  C38  1  0.90171839  0.08376426  0.12937162  1  0  -0.061426  0  3.741043  0  0  -0.083793  0  4.003342  0  0  -0.086594  0  4.025729  0  0  -0.092352  -0.08184  0  3.98798  0
C  C39  1  0.09828386  0.91623487  0.87062893  1  0  -0.061514  0  3.741107  0  0  -0.083846  0  4.003391  0  0  -0.086649  0  4.02578  0  0  -0.092371  -0.081891  0  3.988024  0
C  C40  1  0.97191072  0.99250365  0.19012011  1  0  -0.051072  0  3.745374  0  0  -0.067605  0  4.001108  0  0  -0.068706  0  4.022879  0  0  -0.089352  -0.066519  0  3.98606  0
C  C41  1  0.02809315  0.00749653  0.80987904  1  0  -0.051152  0  3.745479  0  0  -0.067699  0  4.001205  0  0  -0.0688  0  4.022977  0  0  -0.089386  -0.066608  0  3.986154  0
C  C42  1  0.93610349  0.85443007  0.15959312  1  0  -0.135072  0  3.73636  0  0  -0.15239  0  3.992532  0  0  -0.155548  0  4.011867  0  0  -0.087661  -0.150118  0  3.978757  0
C  C43  1  0.06389999  0.14556908  0.84040600  1  0  -0.135079  0  3.736313  0  0  -0.152325  0  3.992486  0  0  -0.155485  0  4.011824  0  0  -0.087595  -0.150057  0  3.978717  0
C  C44  1  0.82587277  0.81089963  0.06407942  1  0  0.087268  0  3.800079  0  0  0.062761  0  4.043769  0  0  0.064963  0  4.067406  0  0  0.10647  0.061379  0  4.027458  0
C  C45  1  0.17412948  0.18909951  0.93592035  1  0  0.087377  0  3.799877  0  0  0.062738  0  4.043735  0  0  0.064938  0  4.067375  0  0  0.106453  0.061356  0  4.027429  0
C  C46  1  0.80684728  0.55999896  0.02874884  1  0  -0.012853  0  3.612164  0  0  -0.085578  0  3.866898  0  0  -0.082879  0  3.878011  0  0  -0.04764  -0.087308  0  3.859452  0
C  C47  1  0.19315123  0.44000014  0.97124982  1  0  -0.012775  0  3.612075  0  0  -0.085466  0  3.866783  0  0  -0.082768  0  3.877899  0  0  -0.04757  -0.087196  0  3.859337  0
C  C48  1  0.97535830  0.56551432  0.98832829  1  0  -0.119318  0  3.671456  0  0  -0.158031  0  3.929532  0  0  -0.159909  0  3.944412  0  0  -0.161149  -0.156534  0  3.918835  0
C  C49  1  0.02463905  0.43448168  0.01167102  1  0  -0.119379  0  3.671439  0  0  -0.158062  0  3.929497  0  0  -0.159945  0  3.944379  0  0  -0.161147  -0.156563  0  3.9188  0
C  C50  1  0.59590266  0.50519249  0.51548982  1  0  -0.133175  0  3.698287  0  0  -0.173304  0  3.957214  0  0  -0.175142  0  3.971604  0  0  -0.167452  -0.171661  0  3.946462  0
C  C51  1  0.40408880  0.49480759  0.48451128  1  0  -0.133058  0  3.698358  0  0  -0.173174  0  3.957346  0  0  -0.174994  0  3.971687  0  0  -0.167413  -0.171536  0  3.946589  0
C  C52  1  0.71957751  0.64153944  0.48916734  1  0  -0.011656  0  3.623512  0  0  -0.085732  0  3.879792  0  0  -0.082528  0  3.890768  0  0  -0.05072  -0.087431  0  3.871957  0
C  C53  1  0.28041767  0.35846067  0.51083333  1  0  -0.011668  0  3.623515  0  0  -0.085712  0  3.879724  0  0  -0.082521  0  3.890728  0  0  -0.050711  -0.087382  0  3.871848  0
C  C54  1  0.73221026  0.89356973  0.51187154  1  0  0.083716  0  3.796471  0  0  0.059064  0  4.039826  0  0  0.061624  0  4.062278  0  0  0.106192  0.057864  0  4.023947  0
C  C55  1  0.26778779  0.10643143  0.48812786  1  0  0.083685  0  3.796478  0  0  0.059053  0  4.039817  0  0  0.061614  0  4.062271  0  0  0.106141  0.057853  0  4.023943  0
C  C56  1  0.79914385  0.95816563  0.42532883  1  0  -0.128253  0  3.745786  0  0  -0.146452  0  4.001737  0  0  -0.149583  0  4.022497  0  0  -0.086851  -0.144364  0  3.987379  0
C  C57  1  0.20085879  0.04183454  0.57467253  1  0  -0.128225  0  3.745772  0  0  -0.146426  0  4.001711  0  0  -0.149563  0  4.022468  0  0  -0.086816  -0.144342  0  3.987361  0
C  C58  1  0.82384395  0.09909088  0.42314659  1  0  -0.058068  0  3.748988  0  0  -0.07818  0  4.008497  0  0  -0.079377  0  4.030093  0  0  -0.089259  -0.077194  0  3.993804  0
C  C59  1  0.17615208  0.90090820  0.57685184  1  0  -0.058124  0  3.749071  0  0  -0.07824  0  4.008589  0  0  -0.079442  0  4.030188  0  0  -0.089286  -0.077252  0  3.993895  0
C  C60  1  0.78217953  0.17300551  0.50306831  1  0  -0.059926  0  3.737577  0  0  -0.079801  0  3.9967  0  0  -0.082329  0  4.018686  0  0  -0.089956  -0.077902  0  3.981272  0
C  C61  1  0.21781689  0.82699460  0.49693016  1  0  -0.059931  0  3.737575  0  0  -0.0798  0  3.996679  0  0  -0.08233  0  4.018689  0  0  -0.089911  -0.077899  0  3.981243  0
C  C62  1  0.71244974  0.10841027  0.58785225  1  0  -0.125045  0  3.702766  0  0  -0.140385  0  3.946365  0  0  -0.142315  0  3.966858  0  0  -0.086037  -0.139055  0  3.931887  0
C  C63  1  0.28755205  0.89159092  0.41214749  1  0  -0.12507  0  3.702736  0  0  -0.140386  0  3.946331  0  0  -0.142318  0  3.96682  0  0  -0.086062  -0.139057  0  3.931849  0
C  C64  1  0.68734793  0.96539609  0.59127221  1  0  0.121845  0  3.830011  0  0  0.116854  0  4.081567  0  0  0.118162  0  4.10486  0  0  0.096228  0.115994  0  4.065746  0
C  C65  1  0.31265098  0.03460405  0.40872803  1  0  0.121907  0  3.829926  0  0  0.116882  0  4.081543  0  0  0.11819  0  4.104836  0  0  0.096249  0.116022  0  4.065721  0
C  C66  1  0.18109025  0.62011710  0.72850490  1  0  0.315532  0  4.073273  0  0  0.29597  0  4.369986  0  0  0.319966  0  4.382061  0  0  0.151326  0.279704  0  4.361565  0
C  C67  1  0.81892414  0.37989451  0.27149834  1  0  0.315447  0  4.073265  0  0  0.29589  0  4.36998  0  0  0.319888  0  4.382064  0  0  0.151246  0.27962  0  4.361556  0
C  C68  1  0.51991728  0.18056114  0.80336328  1  0  0.310213  0  4.096671  0  0  0.289523  0  4.396097  0  0  0.313804  0  4.409043  0  0  0.144767  0.273124  0  4.3874  0
C  C69  1  0.48009268  0.81944528  0.19663877  1  0  0.310259  0  4.09675  0  0  0.289561  0  4.396175  0  0  0.31384  0  4.409118  0  0  0.144742  0.273164  0  4.387477  0
S  S70  1  0.01924474  0.48841424  0.68103781  1  0  -0.343873  0  1.985232  0  0  -0.32379  0  2.266285  0  0  -0.338488  0  2.262647  0  0  -0.152486  -0.313462  0  2.268463  0
S  S71  1  0.98075704  0.51158695  0.31896115  1  0  -0.343734  0  1.985628  0  0  -0.323658  0  2.266689  0  0  -0.338352  0  2.263054  0  0  -0.152393  -0.313333  0  2.268868  0
S  S72  1  0.53280028  0.34078608  0.79343579  1  0  -0.320332  0  1.999088  0  0  -0.30893  0  2.279144  0  0  -0.323334  0  2.275367  0  0  -0.148589  -0.299675  0  2.281876  0
S  S73  1  0.46720642  0.65921825  0.20656981  1  0  -0.320328  0  1.998982  0  0  -0.308928  0  2.279049  0  0  -0.323332  0  2.275269  0  0  -0.148564  -0.299676  0  2.281778  0
N  N74  1  0.65291152  0.82358077  0.91610397  1  0  -0.288327  0  3.244068  0  0  -0.225343  0  3.560725  0  0  -0.238781  0  3.569986  0  0  -0.22069  -0.216072  0  3.554001  0
N  N75  1  0.34708949  0.17641836  0.08389646  1  0  -0.288276  0  3.244122  0  0  -0.225274  0  3.56076  0  0  -0.238714  0  3.570025  0  0  -0.220691  -0.216002  0  3.554032  0
N  N76  1  0.65989901  0.69572284  0.91939729  1  0  -0.034181  0  2.837354  0  0  -0.056467  0  3.106131  0  0  -0.048495  0  3.114824  0  0  -0.065281  -0.060955  0  3.100205  0
N  N77  1  0.34010075  0.30427628  0.08060303  1  0  -0.034227  0  2.837397  0  0  -0.056514  0  3.106164  0  0  -0.048543  0  3.114858  0  0  -0.065293  -0.061  0  3.100236  0
N  N78  1  0.76244975  0.68672368  0.00776792  1  0  0.022783  0  3.529082  0  0  0.134458  0  3.721845  0  0  0.12591  0  3.742213  0  0  -0.112424  0.139551  0  3.709024  0
N  N79  1  0.23755125  0.31327545  0.99223174  1  0  0.022797  0  3.528974  0  0  0.134508  0  3.721762  0  0  0.125968  0  3.742115  0  0  -0.112409  0.1396  0  3.708943  0
N  N80  1  0.62629874  0.86940680  0.66268585  1  0  -0.295005  0  3.247487  0  0  -0.234837  0  3.564649  0  0  -0.248114  0  3.574005  0  0  -0.219586  -0.226137  0  3.558404  0
N  N81  1  0.37370382  0.13059646  0.33731551  1  0  -0.295069  0  3.247489  0  0  -0.234941  0  3.564723  0  0  -0.248218  0  3.574078  0  0  -0.219626  -0.226241  0  3.55848  0
N  N82  1  0.63352417  0.74752255  0.63280198  1  0  -0.0259  0  2.856092  0  0  -0.044249  0  3.12401  0  0  -0.036584  0  3.133172  0  0  -0.060801  -0.04911  0  3.118109  0
N  N83  1  0.36647715  0.25248070  0.36719850  1  0  -0.025804  0  2.856068  0  0  -0.04415  0  3.123984  0  0  -0.036488  0  3.133149  0  0  -0.060757  -0.049012  0  3.118086  0
N  N84  1  0.69606515  0.76024523  0.54254752  1  0  0.026543  0  3.49644  0  0  0.142578  0  3.680167  0  0  0.132998  0  3.702295  0  0  -0.111995  0.14775  0  3.667022  0
N  N85  1  0.30393252  0.23975489  0.45745261  1  0  0.026512  0  3.496416  0  0  0.142567  0  3.680094  0  0  0.132989  0  3.702227  0  0  -0.111985  0.147736  0  3.666949  0
N  N86  1  0.29692578  0.71902938  0.76517768  1  0  -0.595654  0  3.030198  0  0  -0.526829  0  3.345752  0  0  -0.549292  0  3.343699  0  0  -0.426208  -0.511607  0  3.347067  0
N  N87  1  0.70307032  0.28096661  0.23482074  1  0  -0.595704  0  3.029958  0  0  -0.526882  0  3.345533  0  0  -0.549355  0  3.343484  0  0  -0.426214  -0.511656  0  3.346847  0
N  N88  1  0.51186229  0.06213973  0.81094824  1  0  -0.6098  0  3.043869  0  0  -0.534913  0  3.359621  0  0  -0.558204  0  3.358267  0  0  -0.435201  -0.519513  0  3.36072  0
N  N89  1  0.48815108  0.93786259  0.18905565  1  0  -0.609854  0  3.04399  0  0  -0.534955  0  3.359729  0  0  -0.558253  0  3.358389  0  0  -0.435213  -0.519559  0  3.360829  0
