# generated using pymatgen
data_Cd2H19C25N7Cl4
_symmetry_space_group_name_H-M   'P 1'
_cell_length_a   11.14821959
_cell_length_b   11.14827665
_cell_length_c   11.92562342
_cell_angle_alpha   75.03593750
_cell_angle_beta   75.03625450
_cell_angle_gamma   82.55257201
_symmetry_Int_Tables_number   1
_chemical_formula_structural   Cd2H19C25N7Cl4
_chemical_formula_sum   'Cd4 H38 C50 N14 Cl8'
_cell_volume   1380.18867705
_cell_formula_units_Z   2
loop_
 _symmetry_equiv_pos_site_id
 _symmetry_equiv_pos_as_xyz
  1  'x, y, z'
loop_
 _atom_site_type_symbol
 _atom_site_label
 _atom_site_symmetry_multiplicity
 _atom_site_fract_x
 _atom_site_fract_y
 _atom_site_fract_z
 _atom_site_occupancy
 _atom_site_hle17_bader_spin_density
 _atom_site_hle17_ddec_charge
 _atom_site_hle17_ddec_spin_density
 _atom_site_hle17_ddec_sum_bond_order
 _atom_site_hle17_magmom
 _atom_site_hse06_10hf_bader_spin_density
 _atom_site_hse06_10hf_ddec_charge
 _atom_site_hse06_10hf_ddec_spin_density
 _atom_site_hse06_10hf_ddec_sum_bond_order
 _atom_site_hse06_10hf_magmom
 _atom_site_hse06_bader_spin_density
 _atom_site_hse06_ddec_charge
 _atom_site_hse06_ddec_spin_density
 _atom_site_hse06_ddec_sum_bond_order
 _atom_site_hse06_magmom
 _atom_site_pbe_bader_spin_density
 _atom_site_pbe_cm5_charge
 _atom_site_pbe_ddec_charge
 _atom_site_pbe_ddec_spin_density
 _atom_site_pbe_ddec_sum_bond_order
 _atom_site_pbe_magmom
Cd  Cd0  1  0.50045284  0.05254022  0.63907833  1  0  0.950493  0  1.986388  0  0  0.771617  0  2.469448  0  0  0.819716  0  2.424857  0  0  0.609336  0.737682  0  2.499621  0
Cd  Cd1  1  0.94746261  0.49954845  0.86092413  1  0  0.950549  0  1.986285  0  0  0.771695  0  2.469278  0  0  0.819794  0  2.424686  0  0  0.609362  0.737762  0  2.499453  0
Cd  Cd2  1  0.49954747  0.94746193  0.36092440  1  0  0.950532  0  1.986286  0  0  0.771673  0  2.469288  0  0  0.819771  0  2.424697  0  0  0.609347  0.737736  0  2.499466  0
Cd  Cd3  1  0.05253777  0.50045277  0.13907881  1  0  0.950517  0  1.986314  0  0  0.771641  0  2.469366  0  0  0.819736  0  2.424782  0  0  0.609339  0.737705  0  2.499542  0
H  H4  1  0.67509008  0.06274454  0.82937255  1  0  0.078034  0  0.942479  0  0  0.084299  0  1.008628  0  0  0.087328  0  1.005934  0  0  0.108349  0.081804  0  1.011219  0
H  H5  1  0.93725300  0.32491158  0.67063496  1  0  0.078025  0  0.94243  0  0  0.084277  0  1.008595  0  0  0.087305  0  1.0059  0  0  0.108311  0.08178  0  1.011188  0
H  H6  1  0.32491169  0.93725017  0.17062993  1  0  0.078028  0  0.942439  0  0  0.084311  0  1.008559  0  0  0.087342  0  1.005861  0  0  0.108328  0.081816  0  1.011149  0
H  H7  1  0.06274440  0.67509242  0.32936719  1  0  0.078015  0  0.942458  0  0  0.084282  0  1.008605  0  0  0.087312  0  1.00591  0  0  0.108313  0.081784  0  1.011199  0
H  H8  1  0.73745231  0.92661997  0.01319524  1  0  0.098022  0  0.96673  0  0  0.108298  0  1.028854  0  0  0.110519  0  1.029838  0  0  0.100586  0.10716  0  1.027426  0
H  H9  1  0.07336956  0.26255880  0.48680610  1  0  0.097987  0  0.96673  0  0  0.108209  0  1.028922  0  0  0.110433  0  1.029903  0  0  0.100575  0.107072  0  1.027493  0
H  H10  1  0.26255629  0.07337012  0.98680420  1  0  0.097945  0  0.966757  0  0  0.108202  0  1.028917  0  0  0.110427  0  1.029896  0  0  0.100561  0.107067  0  1.027487  0
H  H11  1  0.92662187  0.73745077  0.51319279  1  0  0.097976  0  0.966696  0  0  0.108253  0  1.028831  0  0  0.110462  0  1.029826  0  0  0.10057  0.107117  0  1.027401  0
H  H12  1  0.63102956  0.72779893  0.11381161  1  0  0.099915  0  0.94807  0  0  0.109522  0  1.009613  0  0  0.111899  0  1.008181  0  0  0.104012  0.107824  0  1.010686  0
H  H13  1  0.27219178  0.36897866  0.38618540  1  0  0.099929  0  0.948024  0  0  0.109517  0  1.009578  0  0  0.111895  0  1.008145  0  0  0.103986  0.107817  0  1.01065  0
H  H14  1  0.36897613  0.27219301  0.88618724  1  0  0.099855  0  0.948045  0  0  0.109463  0  1.009596  0  0  0.11184  0  1.008162  0  0  0.103991  0.107762  0  1.01067  0
H  H15  1  0.72780086  0.63102720  0.61381073  1  0  0.099912  0  0.948031  0  0  0.1095  0  1.009586  0  0  0.111878  0  1.008154  0  0  0.104009  0.1078  0  1.01066  0
H  H16  1  0.46677569  0.67421389  0.02855005  1  0  0.134608  0  0.955191  0  0  0.142683  0  1.01556  0  0  0.145919  0  1.014897  0  0  0.105888  0.140224  0  1.016461  0
H  H17  1  0.32578288  0.53322753  0.47144971  1  0  0.134611  0  0.955189  0  0  0.142687  0  1.015557  0  0  0.145924  0  1.014892  0  0  0.105883  0.140228  0  1.016458  0
H  H18  1  0.53322489  0.32578453  0.97145267  1  0  0.134604  0  0.955194  0  0  0.142699  0  1.015539  0  0  0.145937  0  1.014873  0  0  0.105902  0.14024  0  1.016441  0
H  H19  1  0.67421459  0.46677555  0.52854844  1  0  0.134609  0  0.955204  0  0  0.142687  0  1.015573  0  0  0.145924  0  1.014909  0  0  0.105894  0.14023  0  1.016474  0
H  H20  1  0.16727521  0.75842677  0.94970912  1  0  0.124812  0  0.971243  0  0  0.128262  0  1.042146  0  0  0.132055  0  1.039724  0  0  0.100456  0.125473  0  1.044163  0
H  H21  1  0.24157559  0.83272450  0.55028888  1  0  0.124879  0  0.971225  0  0  0.128248  0  1.042232  0  0  0.132041  0  1.039811  0  0  0.100457  0.125484  0  1.044203  0
H  H22  1  0.83272623  0.24157260  0.05028981  1  0  0.124833  0  0.971245  0  0  0.12825  0  1.042189  0  0  0.132044  0  1.039767  0  0  0.100468  0.125465  0  1.044193  0
H  H23  1  0.75842121  0.16727486  0.44970949  1  0  0.124867  0  0.971221  0  0  0.12824  0  1.042212  0  0  0.132033  0  1.039794  0  0  0.100447  0.12546  0  1.044203  0
H  H24  1  0.97947814  0.90561886  0.94005316  1  0  0.090381  0  0.95373  0  0  0.100352  0  1.016471  0  0  0.102823  0  1.015307  0  0  0.101981  0.099093  0  1.016364  0
H  H25  1  0.09438259  0.02051895  0.55993856  1  0  0.090404  0  0.953739  0  0  0.100393  0  1.016459  0  0  0.102867  0  1.015288  0  0  0.102024  0.099134  0  1.016353  0
H  H26  1  0.02052246  0.09437958  0.05994033  1  0  0.090391  0  0.95374  0  0  0.100343  0  1.016508  0  0  0.102815  0  1.015342  0  0  0.10201  0.099086  0  1.016402  0
H  H27  1  0.90561449  0.97947669  0.44005476  1  0  0.090402  0  0.953737  0  0  0.100401  0  1.016453  0  0  0.102874  0  1.015286  0  0  0.102023  0.099142  0  1.016346  0
H  H28  1  0.00828294  0.12909826  0.82351696  1  0  0.106406  0  0.943479  0  0  0.118551  0  0.998767  0  0  0.121345  0  0.998438  0  0  0.108463  0.116207  0  0.999836  0
H  H29  1  0.87090247  0.99171941  0.67647473  1  0  0.106452  0  0.943447  0  0  0.118611  0  0.998726  0  0  0.121404  0  0.998395  0  0  0.108463  0.116268  0  0.999793  0
H  H30  1  0.99171859  0.87090019  0.17647630  1  0  0.106434  0  0.94345  0  0  0.11859  0  0.998731  0  0  0.121384  0  0.9984  0  0  0.10845  0.116248  0  0.999798  0
H  H31  1  0.12909693  0.00828275  0.32351983  1  0  0.106453  0  0.943438  0  0  0.118597  0  0.998735  0  0  0.12139  0  0.998405  0  0  0.108478  0.116252  0  0.999803  0
H  H32  1  0.22354568  0.18749799  0.71113973  1  0  0.079835  0  0.939323  0  0  0.088928  0  1.001959  0  0  0.0908  0  1.001336  0  0  0.112931  0.087736  0  1.002046  0
H  H33  1  0.81250434  0.77645803  0.78885594  1  0  0.079848  0  0.939332  0  0  0.088943  0  1.001966  0  0  0.090817  0  1.001341  0  0  0.112943  0.087751  0  1.002053  0
H  H34  1  0.77645650  0.81250417  0.28885752  1  0  0.079823  0  0.939359  0  0  0.088928  0  1.001972  0  0  0.090801  0  1.00135  0  0  0.11294  0.087735  0  1.00206  0
H  H35  1  0.18749499  0.22354506  0.21114261  1  0  0.079847  0  0.939343  0  0  0.088952  0  1.001949  0  0  0.090827  0  1.001325  0  0  0.112942  0.08776  0  1.002037  0
H  H36  1  0.57942463  0.61148796  0.83326073  1  0  0.110321  0  0.985474  0  0  0.1153  0  1.055991  0  0  0.118948  0  1.055212  0  0  0.092222  0.112912  0  1.056375  0
H  H37  1  0.38852106  0.42057904  0.66673648  1  0  0.110273  0  0.985329  0  0  0.115206  0  1.055921  0  0  0.118853  0  1.055146  0  0  0.092161  0.112852  0  1.056272  0
H  H38  1  0.42057336  0.38850766  0.16674496  1  0  0.110205  0  0.985435  0  0  0.11516  0  1.055995  0  0  0.118808  0  1.055217  0  0  0.092146  0.112781  0  1.056369  0
H  H39  1  0.61148323  0.57941941  0.33326366  1  0  0.110252  0  0.985349  0  0  0.115218  0  1.055911  0  0  0.118866  0  1.055133  0  0  0.092178  0.112858  0  1.056267  0
H  H40  1  0.56646155  0.43354875  0.74999624  1  0  0.095097  0  0.960499  0  0  0.105403  0  1.021307  0  0  0.107548  0  1.019663  0  0  0.092535  0.103664  0  1.022687  0
H  H41  1  0.43353909  0.56644874  0.25000752  1  0  0.095089  0  0.960571  0  0  0.105406  0  1.021359  0  0  0.107552  0  1.019715  0  0  0.092532  0.103669  0  1.022736  0
C  C42  1  0.63466765  0.97390313  0.87574046  1  0  0.126852  0  3.731508  0  0  0.098608  0  3.985902  0  0  0.104676  0  4.005011  0  0  0.041114  0.094643  0  3.97313  0
C  C43  1  0.02609047  0.36533551  0.62426548  1  0  0.126941  0  3.731352  0  0  0.098695  0  3.985737  0  0  0.104765  0  4.004841  0  0  0.041211  0.094731  0  3.972968  0
C  C44  1  0.36533306  0.02609343  0.12426352  1  0  0.126839  0  3.731408  0  0  0.098586  0  3.98576  0  0  0.104651  0  4.004873  0  0  0.041161  0.094625  0  3.972991  0
C  C45  1  0.97390401  0.63467035  0.37573441  1  0  0.126894  0  3.731402  0  0  0.098639  0  3.985793  0  0  0.104707  0  4.004896  0  0  0.041151  0.094676  0  3.97302  0
C  C46  1  0.66734517  0.89909434  0.97773594  1  0  -0.123946  0  3.732829  0  0  -0.141442  0  3.990915  0  0  -0.147979  0  4.012412  0  0  -0.090766  -0.137199  0  3.975891  0
C  C47  1  0.10089604  0.33266259  0.52226748  1  0  -0.123846  0  3.732679  0  0  -0.141305  0  3.990763  0  0  -0.147845  0  4.012259  0  0  -0.090729  -0.137067  0  3.975739  0
C  C48  1  0.33265959  0.10089759  0.02226481  1  0  -0.123832  0  3.73276  0  0  -0.141326  0  3.99084  0  0  -0.147868  0  4.012338  0  0  -0.090707  -0.137089  0  3.975817  0
C  C49  1  0.89909751  0.66734327  0.47773346  1  0  -0.123836  0  3.732693  0  0  -0.141325  0  3.990748  0  0  -0.14785  0  4.012249  0  0  -0.090684  -0.137083  0  3.975718  0
C  C50  1  0.60858348  0.78843316  0.03336384  1  0  0.024178  0  3.704574  0  0  0.004561  0  3.955644  0  0  0.008874  0  3.973152  0  0  -0.063654  0.00195  0  3.943952  0
C  C51  1  0.21155723  0.39142368  0.46663659  1  0  0.024128  0  3.704421  0  0  0.004548  0  3.955455  0  0  0.00886  0  3.972963  0  0  -0.063599  0.001941  0  3.94376  0
C  C52  1  0.39141656  0.21155968  0.96663867  1  0  0.024292  0  3.704459  0  0  0.004684  0  3.955515  0  0  0.008996  0  3.973024  0  0  -0.063634  0.002074  0  3.943823  0
C  C53  1  0.78843454  0.60858124  0.53336165  1  0  0.024153  0  3.704547  0  0  0.004549  0  3.955628  0  0  0.008861  0  3.973133  0  0  -0.063698  0.00194  0  3.943937  0
C  C54  1  0.51877249  0.75678769  0.98576094  1  0  -0.179537  0  3.667299  0  0  -0.19383  0  3.91  0  0  -0.202205  0  3.929797  0  0  -0.07673  -0.188448  0  3.896994  0
C  C55  1  0.24320752  0.48123240  0.51424199  1  0  -0.179567  0  3.667344  0  0  -0.193896  0  3.909998  0  0  -0.202274  0  3.929795  0  0  -0.076774  -0.188515  0  3.896994  0
C  C56  1  0.48122735  0.24320794  0.01424262  1  0  -0.179512  0  3.667301  0  0  -0.193883  0  3.909963  0  0  -0.202263  0  3.929759  0  0  -0.076741  -0.188501  0  3.896959  0
C  C57  1  0.75678809  0.51877067  0.48575828  1  0  -0.179496  0  3.66731  0  0  -0.193827  0  3.909972  0  0  -0.202202  0  3.929773  0  0  -0.076719  -0.188448  0  3.896971  0
C  C58  1  0.49318521  0.83623100  0.88172897  1  0  0.360288  0  3.768581  0  0  0.335547  0  4.024705  0  0  0.349397  0  4.042546  0  0  0.221144  0.326383  0  4.012257  0
C  C59  1  0.16376730  0.50681861  0.61827399  1  0  0.360231  0  3.768711  0  0  0.335601  0  4.024636  0  0  0.349455  0  4.042477  0  0  0.221135  0.326439  0  4.012189  0
C  C60  1  0.50681623  0.16376836  0.11827584  1  0  0.360108  0  3.768688  0  0  0.335531  0  4.024572  0  0  0.349387  0  4.042404  0  0  0.221138  0.326371  0  4.012125  0
C  C61  1  0.83623122  0.49318261  0.38172687  1  0  0.360171  0  3.768657  0  0  0.335531  0  4.02463  0  0  0.349374  0  4.042483  0  0  0.221154  0.326372  0  4.012184  0
C  C62  1  0.29130346  0.89442198  0.83080462  1  0  0.379675  0  3.739214  0  0  0.350342  0  3.999453  0  0  0.366169  0  4.014249  0  0  0.229031  0.339588  0  3.989504  0
C  C63  1  0.10558161  0.70870006  0.66919380  1  0  0.379662  0  3.739225  0  0  0.35016  0  3.999668  0  0  0.365987  0  4.014466  0  0  0.228939  0.339403  0  3.989722  0
C  C64  1  0.70869692  0.10557925  0.16919412  1  0  0.379578  0  3.739345  0  0  0.350161  0  3.99969  0  0  0.365988  0  4.014488  0  0  0.228966  0.339405  0  3.989743  0
C  C65  1  0.89442155  0.29130117  0.33080678  1  0  0.37955  0  3.739134  0  0  0.350096  0  3.99953  0  0  0.365925  0  4.014324  0  0  0.228913  0.339345  0  3.989581  0
C  C66  1  0.17453975  0.85365622  0.89672713  1  0  -0.161694  0  3.676584  0  0  -0.181495  0  3.928658  0  0  -0.188648  0  3.946796  0  0  -0.077143  -0.177379  0  3.917305  0
C  C67  1  0.14634838  0.82546112  0.60327145  1  0  -0.161775  0  3.676622  0  0  -0.181462  0  3.92871  0  0  -0.188612  0  3.946848  0  0  -0.07712  -0.177354  0  3.917353  0
C  C68  1  0.82545971  0.14634500  0.10327183  1  0  -0.16162  0  3.676544  0  0  -0.181375  0  3.928601  0  0  -0.188525  0  3.946738  0  0  -0.07712  -0.177255  0  3.917252  0
C  C69  1  0.85365226  0.17453638  0.39672896  1  0  -0.161673  0  3.676512  0  0  -0.181348  0  3.92857  0  0  -0.188501  0  3.94671  0  0  -0.077048  -0.177232  0  3.917222  0
C  C70  1  0.07129517  0.93710390  0.89209257  1  0  0.001047  0  3.742262  0  0  -0.015464  0  3.987797  0  0  -0.012224  0  4.007395  0  0  -0.069381  -0.017469  0  3.974408  0
C  C71  1  0.06290123  0.92870507  0.60790293  1  0  0.001072  0  3.742119  0  0  -0.01546  0  3.987623  0  0  -0.012221  0  4.007223  0  0  -0.069397  -0.017467  0  3.97424  0
C  C72  1  0.92870615  0.06289734  0.10790259  1  0  0.001024  0  3.742209  0  0  -0.01547  0  3.987705  0  0  -0.012231  0  4.007304  0  0  -0.069402  -0.017474  0  3.974319  0
C  C73  1  0.93709837  0.07129431  0.39208973  1  0  0.001001  0  3.742351  0  0  -0.015554  0  3.987881  0  0  -0.012315  0  4.007482  0  0  -0.069467  -0.01756  0  3.974496  0
C  C74  1  0.08687192  0.06023375  0.82678872  1  0  -0.136755  0  3.758546  0  0  -0.1497  0  4.011542  0  0  -0.156613  0  4.03302  0  0  -0.088212  -0.145534  0  3.997891  0
C  C75  1  0.93976699  0.91312765  0.67320661  1  0  -0.136896  0  3.758341  0  0  -0.149868  0  4.011383  0  0  -0.156781  0  4.032862  0  0  -0.08826  -0.145701  0  3.997733  0
C  C76  1  0.91312853  0.93976655  0.17320854  1  0  -0.136836  0  3.758427  0  0  -0.149805  0  4.01144  0  0  -0.156717  0  4.032917  0  0  -0.088216  -0.145636  0  3.997787  0
C  C77  1  0.06023068  0.08687264  0.32679217  1  0  -0.136835  0  3.758506  0  0  -0.149784  0  4.011534  0  0  -0.156696  0  4.033014  0  0  -0.08823  -0.145615  0  3.997881  0
C  C78  1  0.20582048  0.09366025  0.76504354  1  0  0.132203  0  3.723911  0  0  0.099758  0  3.980009  0  0  0.106749  0  3.998227  0  0  0.039213  0.095053  0  3.967654  0
C  C79  1  0.90634262  0.79418173  0.73495512  1  0  0.132243  0  3.723977  0  0  0.099789  0  3.98005  0  0  0.10678  0  3.998269  0  0  0.039234  0.095085  0  3.967696  0
C  C80  1  0.79417891  0.90634190  0.23495606  1  0  0.132245  0  3.723979  0  0  0.099788  0  3.980077  0  0  0.106778  0  3.998296  0  0  0.039224  0.095082  0  3.967723  0
C  C81  1  0.09365776  0.20581949  0.26504614  1  0  0.132199  0  3.723928  0  0  0.099761  0  3.980002  0  0  0.106748  0  3.998223  0  0  0.039226  0.095055  0  3.967648  0
C  C82  1  0.40282012  0.70061051  0.79373405  1  0  0.40111  0  3.812815  0  0  0.37369  0  4.078094  0  0  0.392477  0  4.091043  0  0  0.224575  0.361225  0  4.068959  0
C  C83  1  0.29939383  0.59717989  0.70626517  1  0  0.401092  0  3.812581  0  0  0.37358  0  4.077964  0  0  0.392368  0  4.090911  0  0  0.224502  0.361084  0  4.068873  0
C  C84  1  0.59718238  0.29938699  0.20626675  1  0  0.401035  0  3.813057  0  0  0.373627  0  4.078333  0  0  0.392448  0  4.091237  0  0  0.224523  0.361129  0  4.069246  0
C  C85  1  0.70060847  0.40282041  0.29373501  1  0  0.401089  0  3.81265  0  0  0.373643  0  4.078  0  0  0.39243  0  4.090948  0  0  0.224556  0.361148  0  4.068911  0
C  C86  1  0.50045899  0.60792286  0.79678606  1  0  -0.249834  0  3.733523  0  0  -0.27097  0  3.993033  0  0  -0.282972  0  4.013277  0  0  -0.116403  -0.263832  0  3.979785  0
C  C87  1  0.39208798  0.49954775  0.70320891  1  0  -0.249805  0  3.733431  0  0  -0.270876  0  3.992987  0  0  -0.282877  0  4.013232  0  0  -0.116355  -0.263761  0  3.979724  0
C  C88  1  0.49954358  0.39207372  0.20321579  1  0  -0.249667  0  3.733522  0  0  -0.270761  0  3.993006  0  0  -0.282773  0  4.013243  0  0  -0.116314  -0.26362  0  3.979759  0
C  C89  1  0.60791453  0.50044977  0.29678937  1  0  -0.249722  0  3.733415  0  0  -0.270831  0  3.992958  0  0  -0.282832  0  4.013203  0  0  -0.116339  -0.263708  0  3.979699  0
C  C90  1  0.49236194  0.50764368  0.74999797  1  0  0.027471  0  3.763172  0  0  0.013515  0  4.009639  0  0  0.020614  0  4.028103  0  0  -0.077303  0.009463  0  3.99731  0
C  C91  1  0.50763791  0.49235196  0.25000391  1  0  0.027398  0  3.763299  0  0  0.013422  0  4.009773  0  0  0.020516  0  4.028243  0  0  -0.077328  0.009369  0  3.997441  0
N  N92  1  0.55129529  0.94138316  0.82697067  1  0  -0.39468  0  3.242449  0  0  -0.328318  0  3.505898  0  0  -0.347808  0  3.525048  0  0  -0.328966  -0.315113  0  3.492643  0
N  N93  1  0.05861559  0.44870639  0.67303254  1  0  -0.394821  0  3.242577  0  0  -0.328461  0  3.505953  0  0  -0.347952  0  3.525101  0  0  -0.329041  -0.31526  0  3.492702  0
N  N94  1  0.44870535  0.05861434  0.17303393  1  0  -0.394711  0  3.242465  0  0  -0.328373  0  3.505824  0  0  -0.347865  0  3.524972  0  0  -0.329031  -0.315174  0  3.492577  0
N  N95  1  0.94138294  0.55129483  0.32696916  1  0  -0.394729  0  3.242502  0  0  -0.328369  0  3.505893  0  0  -0.347858  0  3.525045  0  0  -0.328989  -0.315165  0  3.492639  0
N  N96  1  0.39995836  0.81150196  0.83040849  1  0  -0.345571  0  3.409553  0  0  -0.270706  0  3.642173  0  0  -0.291614  0  3.656909  0  0  -0.253764  -0.255995  0  3.630957  0
N  N97  1  0.18849751  0.60004442  0.66959506  1  0  -0.345453  0  3.409444  0  0  -0.270544  0  3.642059  0  0  -0.291457  0  3.656804  0  0  -0.253682  -0.255824  0  3.630845  0
N  N98  1  0.60004499  0.18849647  0.16959524  1  0  -0.345468  0  3.409656  0  0  -0.270629  0  3.642232  0  0  -0.291548  0  3.656958  0  0  -0.253734  -0.255906  0  3.631026  0
N  N99  1  0.81150287  0.39995680  0.33040620  1  0  -0.345478  0  3.409521  0  0  -0.270598  0  3.64214  0  0  -0.2915  0  3.656874  0  0  -0.253756  -0.255881  0  3.630936  0
N  N100  1  0.30573950  0.01122021  0.76505509  1  0  -0.387907  0  3.25997  0  0  -0.313401  0  3.524462  0  0  -0.333295  0  3.540767  0  0  -0.333165  -0.299793  0  3.513388  0
N  N101  1  0.98878317  0.69426513  0.73494511  1  0  -0.387932  0  3.260057  0  0  -0.313349  0  3.524548  0  0  -0.333243  0  3.540853  0  0  -0.333155  -0.299741  0  3.513472  0
N  N102  1  0.69426261  0.98878288  0.23494447  1  0  -0.387907  0  3.260089  0  0  -0.313361  0  3.524574  0  0  -0.333255  0  3.540878  0  0  -0.333181  -0.299751  0  3.513501  0
N  N103  1  0.01121887  0.30573889  0.26505508  1  0  -0.387852  0  3.259913  0  0  -0.313319  0  3.52445  0  0  -0.333212  0  3.540755  0  0  -0.333139  -0.299713  0  3.513377  0
N  N104  1  0.30611852  0.69387986  0.75000582  1  0  -0.469105  0  3.126049  0  0  -0.426175  0  3.385425  0  0  -0.445658  0  3.399842  0  0  -0.327807  -0.412543  0  3.375277  0
N  N105  1  0.69388484  0.30611857  0.24999539  1  0  -0.469049  0  3.126148  0  0  -0.426193  0  3.385548  0  0  -0.44569  0  3.399953  0  0  -0.327788  -0.412554  0  3.375415  0
Cl  Cl106  1  0.37131558  0.10837392  0.46647622  1  0  -0.557563  0  0.965936  0  0  -0.48731  0  1.246375  0  0  -0.507359  0  1.226233  0  0  -0.30731  -0.472411  0  1.259691  0
Cl  Cl107  1  0.89162822  0.62868754  0.03352208  1  0  -0.557585  0  0.965945  0  0  -0.487332  0  1.246377  0  0  -0.507381  0  1.226235  0  0  -0.307323  -0.472433  0  1.259693  0
Cl  Cl108  1  0.62868553  0.89163009  0.53352419  1  0  -0.557568  0  0.965969  0  0  -0.487309  0  1.246399  0  0  -0.507358  0  1.226257  0  0  -0.307308  -0.472414  0  1.259719  0
Cl  Cl109  1  0.10837296  0.37131555  0.96647938  1  0  -0.557566  0  0.965946  0  0  -0.487312  0  1.246385  0  0  -0.507362  0  1.226242  0  0  -0.307305  -0.472412  0  1.2597  0
Cl  Cl110  1  0.59614349  0.24030186  0.63070816  1  0  -0.587418  0  0.863526  0  0  -0.524024  0  1.115076  0  0  -0.5402  0  1.094085  0  0  -0.337504  -0.512051  0  1.129692  0
Cl  Cl111  1  0.75969773  0.40385780  0.86929394  1  0  -0.5874  0  0.86347  0  0  -0.524034  0  1.115028  0  0  -0.54021  0  1.094037  0  0  -0.337496  -0.512057  0  1.129637  0
Cl  Cl112  1  0.40385894  0.75969658  0.36929243  1  0  -0.587401  0  0.863475  0  0  -0.524022  0  1.115035  0  0  -0.540198  0  1.094045  0  0  -0.337488  -0.512045  0  1.129649  0
Cl  Cl113  1  0.24030272  0.59614249  0.13070752  1  0  -0.587394  0  0.863487  0  0  -0.524013  0  1.115035  0  0  -0.540186  0  1.094047  0  0  -0.337492  -0.512035  0  1.129648  0
