# generated using pymatgen
data_Ag3H5C5(NO3)2
_symmetry_space_group_name_H-M   'P 1'
_cell_length_a   7.52257495
_cell_length_b   7.85964520
_cell_length_c   8.82803815
_cell_angle_alpha   81.84550699
_cell_angle_beta   79.57792010
_cell_angle_gamma   77.16826382
_symmetry_Int_Tables_number   1
_chemical_formula_structural   Ag3H5C5(NO3)2
_chemical_formula_sum   'Ag6 H10 C10 N4 O12'
_cell_volume   497.70341610
_cell_formula_units_Z   2
loop_
 _symmetry_equiv_pos_site_id
 _symmetry_equiv_pos_as_xyz
  1  'x, y, z'
loop_
 _atom_site_type_symbol
 _atom_site_label
 _atom_site_symmetry_multiplicity
 _atom_site_fract_x
 _atom_site_fract_y
 _atom_site_fract_z
 _atom_site_occupancy
 _atom_site_pbe_bader_charge
 _atom_site_pbe_bader_spin_density
 _atom_site_pbe_cm5_charge
 _atom_site_pbe_ddec_charge
 _atom_site_pbe_ddec_spin_density
 _atom_site_pbe_ddec_sum_bond_order
 _atom_site_pbe_magmom
Ag  Ag0  1  0.72449078  0.31635853  0.68794450  1  0.58383  0  0.432879  0.397955  0  1.837226  0
Ag  Ag1  1  0.27551165  0.68363788  0.31205573  1  0.583782  0  0.432907  0.398004  0  1.837297  0
Ag  Ag2  1  0.03000906  0.16588907  0.03445612  1  0.580268  0  0.450559  0.416181  0  1.885188  0
Ag  Ag3  1  0.96999225  0.83411286  0.96554294  1  0.579986  0  0.450561  0.416196  0  1.885184  0
Ag  Ag4  1  0.91221259  0.67136721  0.51461559  1  0.600004  0  0.417883  0.420415  0  1.993891  0
Ag  Ag5  1  0.08778604  0.32864547  0.48538346  1  0.599846  0  0.417876  0.420442  0  1.993923  0
H  H6  1  0.59470273  0.77494257  0.10095217  1  0.12155  0  0.108112  0.137565  0  1.043445  0
H  H7  1  0.40529313  0.22506054  0.89904686  1  0.121435  0  0.108127  0.137569  0  1.043449  0
H  H8  1  0.56966588  0.19627862  0.48047697  1  0.655681  0  0.284759  0.386836  0  0.950513  0
H  H9  1  0.43033814  0.80371890  0.51952211  1  0.655636  0  0.284756  0.386821  0  0.950528  0
H  H10  1  0.57106570  0.05987242  0.63431868  1  0.633818  0  0.288666  0.374309  0  0.959871  0
H  H11  1  0.42893582  0.94012838  0.36567923  1  0.633806  0  0.28869  0.374347  0  0.959816  0
H  H12  1  0.35624683  0.02295336  0.11701786  1  0.629275  0  0.285995  0.366282  0  0.980545  0
H  H13  1  0.64375196  0.97704421  0.88298002  1  0.629244  0  0.286013  0.366328  0  0.980582  0
H  H14  1  0.34744358  0.93581214  0.96641803  1  0.653996  0  0.288392  0.372067  0  0.975162  0
H  H15  1  0.65255428  0.06418346  0.03357754  1  0.65403  0  0.28847  0.372193  0  0.975015  0
C  C16  1  0.83846516  0.48825781  0.25402882  1  1.542723  0  0.203282  0.551557  0  4.210592  0
C  C17  1  0.16153573  0.51175019  0.74597255  1  1.543189  0  0.203299  0.551539  0  4.210321  0
C  C18  1  0.76501552  0.50741146  0.10721063  1  0.423741  0  0.064606  0.023362  0  4.031092  0
C  C19  1  0.23498784  0.49258819  0.89279192  1  0.423841  0  0.06462  0.023409  0  4.031107  0
C  C20  1  0.65593236  0.65847779  0.04362831  1  -0.070229  0  -0.121575  -0.251745  0  4.051262  0
C  C21  1  0.34406736  0.34152302  0.95637190  1  -0.070172  0  -0.121577  -0.25173  0  4.051481  0
C  C22  1  0.64366001  0.62187761  0.89566468  1  0.431194  0  0.060217  0.005749  0  4.037286  0
C  C23  1  0.35633425  0.37812185  0.10433550  1  0.431299  0  0.06018  0.005709  0  4.03743  0
C  C24  1  0.55891371  0.74131902  0.77188796  1  1.556119  0  0.208435  0.562051  0  4.200337  0
C  C25  1  0.44107827  0.25867876  0.22810989  1  1.556084  0  0.208527  0.562108  0  4.200381  0
N  N26  1  0.74090693  0.45609086  0.87386900  1  -0.646018  0  -0.25981  -0.139767  0  3.560613  0
N  N27  1  0.25909235  0.54391095  0.12613352  1  -0.646108  0  -0.259868  -0.13985  0  3.560794  0
N  N28  1  0.81440023  0.38659673  0.00246907  1  -0.665352  0  -0.264725  -0.136492  0  3.532793  0
N  N29  1  0.18560495  0.61340544  0.99753117  1  -0.665331  0  -0.264686  -0.136494  0  3.532752  0
O  O30  1  0.79876829  0.62804922  0.32127538  1  -1.103285  0  -0.321559  -0.493712  0  2.412359  0
O  O31  1  0.20123282  0.37195638  0.67872484  1  -1.103118  0  -0.321542  -0.493717  0  2.412203  0
O  O32  1  0.93775513  0.34018218  0.29620795  1  -1.111503  0  -0.323999  -0.493476  0  2.406848  0
O  O33  1  0.06224508  0.65982288  0.70379690  1  -1.112121  0  -0.324048  -0.493506  0  2.406835  0
O  O34  1  0.49874900  0.90436201  0.79798939  1  -1.203217  0  -0.321271  -0.565103  0  2.224294  0
O  O35  1  0.50124117  0.09563833  0.20201077  1  -1.203295  0  -0.321314  -0.565062  0  2.224319  0
O  O36  1  0.55552711  0.68405587  0.64583050  1  -1.164874  0  -0.301621  -0.519378  0  2.288585  0
O  O37  1  0.44447237  0.31593972  0.35417087  1  -1.16484  0  -0.301668  -0.519486  0  2.288621  0
O  O38  1  0.64781607  0.13212169  0.56073526  1  -1.222282  0  -0.589837  -0.692084  0  2.166862  0
O  O39  1  0.35218523  0.86787770  0.43926380  1  -1.222252  0  -0.589841  -0.692113  0  2.166844  0
O  O40  1  0.27460421  0.96737233  0.06884402  1  -1.225153  0  -0.589393  -0.722563  0  2.369747  0
O  O41  1  0.72539023  0.03261836  0.93115500  1  -1.225229  0  -0.589479  -0.722715  0  2.369717  0
