# generated using pymatgen
data_Zn4H14C22O17
_symmetry_space_group_name_H-M   'P 1'
_cell_length_a   15.96349218
_cell_length_b   15.95336184
_cell_length_c   17.11284960
_cell_angle_alpha   117.67166194
_cell_angle_beta   117.57179624
_cell_angle_gamma   90.00299245
_symmetry_Int_Tables_number   1
_chemical_formula_structural   Zn4H14C22O17
_chemical_formula_sum   'Zn8 H28 C44 O34'
_cell_volume   3290.52730215
_cell_formula_units_Z   2
loop_
 _symmetry_equiv_pos_site_id
 _symmetry_equiv_pos_as_xyz
  1  'x, y, z'
loop_
 _atom_site_type_symbol
 _atom_site_label
 _atom_site_symmetry_multiplicity
 _atom_site_fract_x
 _atom_site_fract_y
 _atom_site_fract_z
 _atom_site_occupancy
 _atom_site_pbe_bader_charge
 _atom_site_pbe_bader_spin_density
 _atom_site_pbe_cm5_charge
 _atom_site_pbe_ddec_charge
 _atom_site_pbe_ddec_spin_density
 _atom_site_pbe_ddec_sum_bond_order
 _atom_site_pbe_magmom
Zn  Zn0  1  0.29167287  0.69269221  0.58740338  1  1.306409  0  0.678189  0.962018  0  2.376551  0
Zn  Zn1  1  0.69318974  0.29428199  0.58742022  1  1.312766  0  0.677116  0.962117  0  2.374688  0
Zn  Zn2  1  0.29584387  0.89441252  0.59264844  1  1.314425  0  0.674608  0.964707  0  2.353258  0
Zn  Zn3  1  0.70415258  0.10558537  0.40735199  1  1.314349  0  0.674622  0.964755  0  2.35309  0
Zn  Zn4  1  0.30680890  0.70571864  0.41258002  1  1.312837  0  0.677162  0.962177  0  2.374568  0
Zn  Zn5  1  0.70832430  0.30730801  0.41259780  1  1.306438  0  0.678202  0.962016  0  2.376465  0
Zn  Zn6  1  0.10526336  0.70454478  0.40736461  1  1.314674  0  0.67522  0.963994  0  2.355652  0
Zn  Zn7  1  0.89473455  0.29545565  0.59263464  1  1.314637  0  0.675228  0.964016  0  2.355713  0
H  H8  1  0.41456830  0.97136948  0.07723683  1  0.069435  0  0.107764  0.12137  0  0.98607  0
H  H9  1  0.57412513  0.81618421  0.07409204  1  0.039367  0  0.09943  0.101072  0  0.993378  0
H  H10  1  0.47678108  0.70340055  0.97984977  1  0.058169  0  0.108952  0.113409  0  0.972603  0
H  H11  1  0.42585289  0.18383055  0.92592644  1  0.039255  0  0.099405  0.101092  0  0.993287  0
H  H12  1  0.54499397  0.18741861  0.94160013  1  0.033295  0  0.096392  0.092169  0  0.995571  0
H  H13  1  0.52321977  0.29659926  0.02015574  1  0.057998  0  0.108911  0.113374  0  0.972639  0
H  H14  1  0.92259794  0.25642087  0.96218358  1  0.047033  0  0.093481  0.085921  0  0.996897  0
H  H15  1  0.82559610  0.31348094  0.96158746  1  0.079634  0  0.100173  0.10021  0  0.996732  0
H  H16  1  0.89080060  0.28112911  0.05711046  1  0.065544  0  0.109781  0.115206  0  0.970042  0
H  H17  1  0.17440254  0.68651898  0.03841363  1  0.079658  0  0.100165  0.100229  0  0.996712  0
H  H18  1  0.07740070  0.74357905  0.03781577  1  0.047254  0  0.093473  0.085908  0  0.996895  0
H  H19  1  0.58542299  0.02862983  0.92276083  1  0.069497  0  0.107783  0.121346  0  0.986055  0
H  H20  1  0.10920025  0.71887071  0.94289038  1  0.065559  0  0.109811  0.115247  0  0.970016  0
H  H21  1  0.45497015  0.81256473  0.05838002  1  0.03254  0  0.0964  0.092219  0  0.995441  0
H  H22  1  0.02938857  0.33782428  0.92421198  1  0.101044  0  0.10746  0.121413  0  0.9861  0
H  H23  1  0.70457113  0.92136563  0.95981698  1  0.026601  0  0.093905  0.087015  0  0.99644  0
H  H24  1  0.64733850  0.82445069  0.95970691  1  0.072645  0  0.10105  0.102424  0  0.994449  0
H  H25  1  0.77476691  0.88965791  0.05453663  1  0.054728  0  0.109085  0.113582  0  0.972355  0
H  H26  1  0.35265133  0.17555105  0.04028824  1  0.072802  0  0.10104  0.102395  0  0.994554  0
H  H27  1  0.29542311  0.07863449  0.04018172  1  0.026532  0  0.093945  0.087039  0  0.996356  0
H  H28  1  0.22522292  0.11033604  0.94545982  1  0.054725  0  0.109089  0.113618  0  0.97229  0
H  H29  1  0.81250256  0.60307909  0.05799670  1  0.014895  0  0.095944  0.090983  0  0.995594  0
H  H30  1  0.97061154  0.66217533  0.07578845  1  0.10105  0  0.107445  0.121398  0  0.986135  0
H  H31  1  0.81625214  0.50001776  0.07460802  1  0.079925  0  0.099418  0.100909  0  0.992753  0
H  H32  1  0.70360282  0.50313521  0.97995656  1  0.048286  0  0.108835  0.112938  0  0.97279  0
H  H33  1  0.18374577  0.49998125  0.92539062  1  0.080008  0  0.099407  0.100886  0  0.992743  0
H  H34  1  0.18749609  0.39691942  0.94200087  1  0.014876  0  0.095939  0.090963  0  0.995536  0
H  H35  1  0.29639583  0.49686400  0.02004073  1  0.048305  0  0.108838  0.112921  0  0.972806  0
C  C36  1  0.11485108  0.60819482  0.21994103  1  1.531074  0  0.231216  0.638123  0  4.14307  0
C  C37  1  0.97227521  0.02602084  0.49834954  1  -0.204277  0  -0.016418  -0.109331  0  3.91899  0
C  C38  1  0.47564341  0.52923268  0.50338149  1  -0.205856  0  -0.014256  -0.106804  0  3.91915  0
C  C39  1  0.52435377  0.47076683  0.49661821  1  0.063136  0  -0.014221  -0.106726  0  3.919083  0
C  C40  1  0.02772270  0.97398029  0.50165235  1  0.075977  0  -0.016349  -0.109195  0  3.918936  0
C  C41  1  0.47198759  0.97373081  0.49946025  1  -0.193973  0  -0.016832  -0.109831  0  3.918485  0
C  C42  1  0.52801546  0.02627456  0.50055096  1  0.058072  0  -0.016546  -0.109702  0  3.918369  0
C  C43  1  0.88514977  0.39180641  0.78005926  1  1.530952  0  0.231215  0.638073  0  4.143001  0
C  C44  1  0.41573097  0.59733243  0.50786808  1  1.641021  0  0.243028  0.675331  0  4.225613  0
C  C45  1  0.58426768  0.40266890  0.49213013  1  1.641053  0  0.242951  0.675229  0  4.225686  0
C  C46  1  0.09195475  0.90983313  0.50295462  1  1.672081  0  0.241046  0.674709  0  4.22621  0
C  C47  1  0.90804169  0.09016688  0.49704674  1  1.672044  0  0.24106  0.674815  0  4.22599  0
C  C48  1  0.40602392  0.91018442  0.49827966  1  1.659599  0  0.239631  0.673276  0  4.228936  0
C  C49  1  0.38732203  0.88517320  0.78008963  1  1.513271  0  0.231157  0.637042  0  4.142445  0
C  C50  1  0.59397619  0.08981378  0.50172192  1  1.659336  0  0.239739  0.673618  0  4.228365  0
C  C51  1  0.08709851  0.58483356  0.49034454  1  1.661919  0  0.241354  0.673479  0  4.228067  0
C  C52  1  0.91289721  0.41516414  0.50964965  1  1.662204  0  0.241268  0.673406  0  4.228405  0
C  C53  1  0.02423906  0.52458404  0.49530566  1  0.05496  0  -0.014073  -0.106506  0  3.914581  0
C  C54  1  0.97575886  0.47541356  0.50469061  1  -0.190604  0  -0.013869  -0.106208  0  3.914529  0
C  C55  1  0.61267147  0.11482742  0.21991188  1  1.513454  0  0.231203  0.637193  0  4.142563  0
C  C56  1  0.48342567  0.90251985  0.97093920  1  0.584679  0  0.082467  0.179235  0  3.720754  0
C  C57  1  0.51656709  0.09747632  0.02906007  1  0.584997  0  0.082527  0.179226  0  3.720842  0
C  C58  1  0.98062675  0.44875518  0.03760820  1  0.585759  0  0.084772  0.182679  0  3.70999  0
C  C59  1  0.01937263  0.55124423  0.96239183  1  0.585748  0  0.084744  0.182661  0  3.710034  0
C  C60  1  0.45102657  0.98266268  0.04099364  1  -0.070618  0  -0.091935  -0.212354  0  3.657522  0
C  C61  1  0.54896546  0.01733613  0.95900529  1  -0.070953  0  -0.091942  -0.212259  0  3.65749  0
C  C62  1  0.01773594  0.41031693  0.95980544  1  -0.098899  0  -0.09175  -0.213099  0  3.658349  0
C  C63  1  0.98226271  0.58968229  0.04019360  1  -0.098899  0  -0.09174  -0.213092  0  3.658415  0
C  C64  1  0.55371015  0.05902127  0.10517466  1  0.045144  0  -0.012756  -0.126538  0  3.678348  0
C  C65  1  0.44627967  0.94097622  0.89482157  1  0.044947  0  -0.012741  -0.126511  0  3.678293  0
C  C66  1  0.94100283  0.44825719  0.89480152  1  0.036985  0  -0.012345  -0.126908  0  3.67878  0
C  C67  1  0.05899802  0.55174334  0.10519904  1  0.03706  0  -0.012371  -0.126954  0  3.678819  0
C  C68  1  0.58842275  0.98015349  0.03665827  1  0.583153  0  0.084525  0.173196  0  3.724522  0
C  C69  1  0.41156855  0.01984441  0.96333819  1  0.583469  0  0.084542  0.173238  0  3.724574  0
C  C70  1  0.90264905  0.48747029  0.97106421  1  0.581118  0  0.081976  0.169586  0  3.736254  0
C  C71  1  0.09735107  0.51252933  0.02893506  1  0.581126  0  0.081963  0.169585  0  3.736231  0
C  C72  1  0.49467389  0.78369096  0.01751573  1  0.416741  0  -0.138141  -0.173259  0  3.929838  0
C  C73  1  0.50531372  0.21631017  0.98248812  1  0.416089  0  -0.138047  -0.173185  0  3.929887  0
C  C74  1  0.89745068  0.30806684  0.01131418  1  0.347681  0  -0.136875  -0.168261  0  3.92908  0
C  C75  1  0.10254870  0.69193328  0.98868616  1  0.34742  0  -0.136898  -0.16832  0  3.929065  0
C  C76  1  0.70221026  0.89634350  0.00914728  1  0.386934  0  -0.137535  -0.16903  0  3.932047  0
C  C77  1  0.29778251  0.10365480  0.99085057  1  0.386736  0  -0.137592  -0.169122  0  3.932135  0
C  C78  1  0.78378142  0.52274657  0.01762094  1  0.408226  0  -0.137361  -0.170163  0  3.927633  0
C  C79  1  0.21621796  0.47725285  0.98237792  1  0.408126  0  -0.137325  -0.170069  0  3.927545  0
O  O80  1  0.24928012  0.75030847  0.50001838  1  -1.211384  0  -0.570901  -1.039626  0  2.534731  0
O  O81  1  0.93588088  0.35693306  0.73840070  1  -1.165023  0  -0.315368  -0.550491  0  2.314552  0
O  O82  1  0.34888458  0.79322784  0.73308223  1  -1.153232  0  -0.308777  -0.533364  0  2.334836  0
O  O83  1  0.65110819  0.20677047  0.26691562  1  -1.153262  0  -0.308778  -0.533427  0  2.334945  0
O  O84  1  0.40127177  0.63214163  0.45056556  1  -1.127357  0  -0.300589  -0.524542  0  2.276532  0
O  O85  1  0.59872761  0.36785636  0.54943736  1  -1.12738  0  -0.300625  -0.524602  0  2.2763  0
O  O86  1  0.18338442  0.95182950  0.56890987  1  -1.146773  0  -0.301517  -0.528135  0  2.269041  0
O  O87  1  0.81661716  0.04817334  0.43109669  1  -1.146812  0  -0.301565  -0.528216  0  2.269112  0
O  O88  1  0.75071853  0.24969074  0.49998182  1  -1.211426  0  -0.570908  -1.03961  0  2.534652  0
O  O89  1  0.38132124  0.81883842  0.43128950  1  -1.137883  0  -0.300845  -0.526819  0  2.275391  0
O  O90  1  0.61868327  0.18116595  0.56871899  1  -1.137917  0  -0.300904  -0.526987  0  2.275021  0
O  O91  1  0.38011248  0.95235179  0.56409766  1  -1.144523  0  -0.301001  -0.5273  0  2.270392  0
O  O92  1  0.61988395  0.04765248  0.43590728  1  -1.144256  0  -0.301053  -0.52743  0  2.27041  0
O  O93  1  0.04470519  0.61705431  0.43032406  1  -1.136691  0  -0.299213  -0.52578  0  2.267705  0
O  O94  1  0.95529419  0.38294511  0.56967714  1  -1.136626  0  -0.299176  -0.525777  0  2.267615  0
O  O95  1  0.17878082  0.59918374  0.54762263  1  -1.142011  0  -0.299462  -0.522399  0  2.282931  0
O  O96  1  0.82122224  0.40081244  0.45237584  1  -1.141966  0  -0.299397  -0.522355  0  2.283346  0
O  O97  1  0.38384872  0.61482262  0.56822742  1  -1.1286  0  -0.300955  -0.526799  0  2.272308  0
O  O98  1  0.61615066  0.38518033  0.43177823  1  -1.12857  0  -0.300847  -0.526641  0  2.272629  0
O  O99  1  0.04964595  0.81844884  0.43764555  1  -1.152055  0  -0.300732  -0.526594  0  2.276479  0
O  O100  1  0.95035490  0.18155522  0.56235537  1  -1.152062  0  -0.300726  -0.526633  0  2.276207  0
O  O101  1  0.20677959  0.61701947  0.26701029  1  -1.170085  0  -0.309232  -0.534131  0  2.333954  0
O  O102  1  0.79321906  0.38298258  0.73298939  1  -1.169924  0  -0.309262  -0.53411  0  2.333878  0
O  O103  1  0.38011181  0.93598927  0.73840942  1  -1.163506  0  -0.315436  -0.550369  0  2.313059  0
O  O104  1  0.61988464  0.06400721  0.26158749  1  -1.163567  0  -0.315416  -0.550387  0  2.313091  0
O  O105  1  0.06411924  0.64306727  0.26159946  1  -1.165043  0  -0.31538  -0.550511  0  2.314525  0
O  O106  1  0.46361336  0.80374012  0.93604037  1  -1.067662  0  -0.211325  -0.190089  0  2.532357  0
O  O107  1  0.53638234  0.19625829  0.06395997  1  -1.067427  0  -0.211376  -0.190098  0  2.532287  0
O  O108  1  0.96825104  0.40300300  0.08434106  1  -1.06558  0  -0.215628  -0.20081  0  2.513564  0
O  O109  1  0.03174908  0.59699732  0.91565910  1  -1.065567  0  -0.215628  -0.200815  0  2.513571  0
O  O110  1  0.68055580  0.96746573  0.08269137  1  -1.069761  0  -0.215665  -0.200326  0  2.518936  0
O  O111  1  0.31943696  0.03253399  0.91730826  1  -1.069879  0  -0.215686  -0.200296  0  2.519055  0
O  O112  1  0.80397681  0.47225701  0.93623041  1  -1.070808  0  -0.211384  -0.188929  0  2.535254  0
O  O113  1  0.19602258  0.52774169  0.06376814  1  -1.070792  0  -0.211372  -0.188931  0  2.535254  0
