# generated using pymatgen
data_ZnH6C17N5O6
_symmetry_space_group_name_H-M   'P 1'
_cell_length_a   10.99288906
_cell_length_b   13.14542283
_cell_length_c   14.31243973
_cell_angle_alpha   89.83406122
_cell_angle_beta   89.88529578
_cell_angle_gamma   89.32222083
_symmetry_Int_Tables_number   1
_chemical_formula_structural   ZnH6C17N5O6
_chemical_formula_sum   'Zn2 H12 C34 N10 O12'
_cell_volume   2068.07853036
_cell_formula_units_Z   2
loop_
 _symmetry_equiv_pos_site_id
 _symmetry_equiv_pos_as_xyz
  1  'x, y, z'
loop_
 _atom_site_type_symbol
 _atom_site_label
 _atom_site_symmetry_multiplicity
 _atom_site_fract_x
 _atom_site_fract_y
 _atom_site_fract_z
 _atom_site_occupancy
 _atom_site_pbe_bader_charge
 _atom_site_pbe_bader_spin_density
 _atom_site_pbe_cm5_charge
 _atom_site_pbe_ddec_charge
 _atom_site_pbe_ddec_spin_density
 _atom_site_pbe_ddec_sum_bond_order
 _atom_site_pbe_magmom
Zn  Zn0  1  0.49995655  0.39128085  0.50862720  1  1.325069  0  0.71261  0.896287  0  2.38462  0
Zn  Zn1  1  0.50052873  0.60599653  0.49501690  1  1.325906  0  0.707606  0.887002  0  2.41361  0
H  H2  1  0.21600370  0.66990507  0.76465992  1  0.076833  0  0.115426  0.127338  0  0.951551  0
H  H3  1  0.90520458  0.82410960  0.56375666  1  0.080534  0  0.106281  0.11294  0  0.982056  0
H  H4  1  0.94721105  0.76007718  0.67027833  1  0.067854  0  0.108342  0.111513  0  1.012233  0
H  H5  1  0.79190780  0.79656920  0.65058720  1  0.077054  0  0.102215  0.102255  0  0.9801  0
H  H6  1  0.28598121  0.69372129  0.65299152  1  0.04835  0  0.093628  0.096754  0  1.02505  0
H  H7  1  0.26955455  0.56629769  0.69617526  1  0.052307  0  0.094323  0.095757  0  1.047513  0
H  H8  1  0.10592219  0.82741092  0.45760546  1  0.082733  0  0.11572  0.128377  0  0.95885  0
H  H9  1  0.23807896  0.75417484  0.49014639  1  0.07173  0  0.090389  0.092292  0  1.044729  0
H  H10  1  0.13846755  0.80609458  0.57889144  1  0.051417  0  0.100466  0.096554  0  1.009249  0
H  H11  1  0.72880626  0.60264627  0.69650478  1  0.08357  0  0.095477  0.104626  0  1.04398  0
H  H12  1  0.83375114  0.64137380  0.78529876  1  0.046768  0  0.102761  0.106735  0  0.971555  0
H  H13  1  0.78662425  0.51126741  0.77930155  1  0.107975  0  0.1075  0.121293  0  0.992492  0
C  C14  1  0.49674573  0.48675624  0.32508929  1  1.627002  0  0.230363  0.659985  0  4.230935  0
C  C15  1  0.73443211  0.49809655  0.51070403  1  1.618763  0  0.218769  0.582848  0  4.150423  0
C  C16  1  0.49929638  0.50674921  0.68092547  1  1.631612  0  0.221109  0.642719  0  4.266907  0
C  C17  1  0.07507329  0.41087595  0.57602534  1  0.169936  0  0.062714  0.050194  0  3.774803  0
C  C18  1  0.07212105  0.50727450  0.41779934  1  0.149191  0  0.063494  0.056373  0  3.800854  0
C  C19  1  0.92847956  0.40008455  0.55861565  1  0.172963  0  0.06154  0.054181  0  3.793345  0
C  C20  1  0.92585467  0.52652915  0.41776536  1  0.215978  0  0.065226  0.055371  0  3.788827  0
C  C21  1  0.06518066  0.60905722  0.57091784  1  1.08756  0  0.169611  0.274742  0  3.824166  0
C  C22  1  0.91949500  0.59015793  0.58907795  1  1.088628  0  0.166554  0.270385  0  3.865917  0
C  C23  1  0.12115650  0.50891212  0.52280081  1  0.006113  0  0.009494  -0.15146  0  3.608681  0
C  C24  1  0.87551657  0.50400401  0.51948152  1  0.036716  0  0.010489  -0.144484  0  3.621936  0
C  C25  1  0.49870677  0.49853511  0.95999707  1  0.0546  0  0.005063  -0.004717  0  4.175636  0
C  C26  1  0.49732266  0.48179936  0.22493357  1  0.237801  0  0.009572  -0.098642  0  3.80287  0
C  C27  1  0.49767194  0.48559527  0.13933858  1  -0.187285  0  0.003468  0.034809  0  4.216031  0
C  C28  1  0.49815521  0.49138727  0.04595068  1  -0.079722  0  0.015423  0.019279  0  4.165751  0
C  C29  1  0.10433134  0.41930714  0.67628985  1  0.902075  0  0.183528  0.222654  0  3.93395  0
C  C30  1  0.13293280  0.58324653  0.35874765  1  0.916725  0  0.179157  0.219704  0  3.95208  0
C  C31  1  0.87083715  0.36888902  0.64724175  1  0.912254  0  0.177132  0.228352  0  3.974204  0
C  C32  1  0.89507449  0.63057588  0.38557960  1  0.917846  0  0.18101  0.236996  0  3.961102  0
C  C33  1  0.13470580  0.31301115  0.55138456  1  0.921202  0  0.177229  0.230448  0  3.957745  0
C  C34  1  0.10181136  0.40984903  0.37182036  1  0.874157  0  0.17178  0.189136  0  3.945386  0
C  C35  1  0.90300757  0.31388815  0.49613497  1  0.884513  0  0.171341  0.199502  0  3.963747  0
C  C36  1  0.49948454  0.50502477  0.86664987  1  -0.338819  0  0.001187  0.045492  0  4.231529  0
C  C37  1  0.86743722  0.46195894  0.34708787  1  0.852813  0  0.173538  0.195345  0  3.934373  0
C  C38  1  0.22807030  0.64228445  0.69302460  1  0.406254  0  -0.142236  -0.157357  0  3.881046  0
C  C39  1  0.14356185  0.77319420  0.50853221  1  0.378065  0  -0.141654  -0.162762  0  3.903477  0
C  C40  1  0.80788474  0.57934246  0.73824055  1  0.342068  0  -0.142773  -0.162928  0  3.856363  0
C  C41  1  0.87623651  0.76943104  0.61717628  1  0.338749  0  -0.137347  -0.163384  0  3.870229  0
C  C42  1  0.50036765  0.51016827  0.78100986  1  0.234033  0  -0.008857  -0.142318  0  3.853535  0
C  C43  1  0.50982394  0.85043021  0.48813343  1  0.891185  0  0.282405  0.364139  0  4.005244  0
C  C44  1  0.50168693  0.14846978  0.50154198  1  0.928927  0  0.292338  0.373829  0  3.979905  0
C  C45  1  0.50889873  0.95324940  0.48954314  1  0.290113  0  0.083618  0.014768  0  3.988689  0
C  C46  1  0.50542564  0.04595879  0.49410962  1  0.060113  0  0.096327  0.039674  0  3.971166  0
C  C47  1  0.26237771  0.50840737  0.51319861  1  1.627116  0  0.216715  0.577052  0  4.16255  0
N  N48  1  0.50830044  0.76176465  0.48920610  1  -1.028996  0  -0.21289  -0.209171  0  2.970939  0
N  N49  1  0.81698382  0.41688313  0.28924990  1  -1.018279  0  -0.25331  -0.251453  0  2.660222  0
N  N50  1  0.49870187  0.23656050  0.50957524  1  -0.974156  0  -0.204164  -0.193413  0  2.968298  0
N  N51  1  0.13888538  0.41821303  0.75316401  1  -1.046789  0  -0.265205  -0.273561  0  2.653881  0
N  N52  1  0.18390538  0.63484406  0.30555204  1  -1.052214  0  -0.274007  -0.280119  0  2.654048  0
N  N53  1  0.83026224  0.33185906  0.71436313  1  -1.059164  0  -0.289581  -0.309186  0  2.663821  0
N  N54  1  0.86970842  0.70727035  0.34922243  1  -1.058397  0  -0.287903  -0.302345  0  2.644235  0
N  N55  1  0.17175004  0.22996045  0.54437407  1  -1.063239  0  -0.292701  -0.314841  0  2.666155  0
N  N56  1  0.12717172  0.33630116  0.33063023  1  -1.013897  0  -0.251525  -0.245214  0  2.648767  0
N  N57  1  0.87972387  0.24164214  0.45315475  1  -1.038119  0  -0.271583  -0.277871  0  2.664748  0
O  O58  1  0.51863216  0.40456536  0.37012306  1  -1.128539  0  -0.304228  -0.532745  0  2.281751  0
O  O59  1  0.06849621  0.68548531  0.50117857  1  -1.066061  0  -0.202833  -0.236695  0  2.651203  0
O  O60  1  0.91076483  0.55223256  0.68066594  1  -1.040171  0  -0.20288  -0.231101  0  2.624315  0
O  O61  1  0.84820810  0.67487907  0.57166996  1  -1.056255  0  -0.202139  -0.205155  0  2.623792  0
O  O62  1  0.47408298  0.57424013  0.35954819  1  -1.114885  0  -0.30072  -0.522681  0  2.288756  0
O  O63  1  0.31118976  0.42281437  0.49813924  1  -1.136969  0  -0.28323  -0.511854  0  2.377705  0
O  O64  1  0.31380578  0.59366708  0.51619262  1  -1.145356  0  -0.288428  -0.517071  0  2.422817  0
O  O65  1  0.68555959  0.41559487  0.53511608  1  -1.14151  0  -0.284901  -0.511839  0  2.348474  0
O  O66  1  0.68244455  0.57554499  0.47644512  1  -1.146322  0  -0.292711  -0.516277  0  2.411399  0
O  O67  1  0.47355381  0.42101160  0.64528831  1  -1.11731  0  -0.299969  -0.514811  0  2.277615  0
O  O68  1  0.52327592  0.58885208  0.63640960  1  -1.145626  0  -0.311307  -0.557301  0  2.2982  0
O  O69  1  0.10582579  0.63894357  0.65748059  1  -1.07509  0  -0.203856  -0.214946  0  2.653653  0
