# generated using pymatgen
data_AgH12C13S2N3
_symmetry_space_group_name_H-M   'P 1'
_cell_length_a   5.78020515
_cell_length_b   15.90949478
_cell_length_c   15.56687344
_cell_angle_alpha   88.19702054
_cell_angle_beta   79.30052523
_cell_angle_gamma   80.24305280
_symmetry_Int_Tables_number   1
_chemical_formula_structural   AgH12C13S2N3
_chemical_formula_sum   'Ag4 H48 C52 S8 N12'
_cell_volume   1386.29764092
_cell_formula_units_Z   4
loop_
 _symmetry_equiv_pos_site_id
 _symmetry_equiv_pos_as_xyz
  1  'x, y, z'
loop_
 _atom_site_type_symbol
 _atom_site_label
 _atom_site_symmetry_multiplicity
 _atom_site_fract_x
 _atom_site_fract_y
 _atom_site_fract_z
 _atom_site_occupancy
 _atom_site_hle17_bader_spin_density
 _atom_site_hle17_ddec_charge
 _atom_site_hle17_ddec_spin_density
 _atom_site_hle17_ddec_sum_bond_order
 _atom_site_hle17_magmom
 _atom_site_hse06_10hf_bader_spin_density
 _atom_site_hse06_10hf_ddec_charge
 _atom_site_hse06_10hf_ddec_spin_density
 _atom_site_hse06_10hf_ddec_sum_bond_order
 _atom_site_hse06_10hf_magmom
 _atom_site_hse06_bader_spin_density
 _atom_site_hse06_ddec_charge
 _atom_site_hse06_ddec_spin_density
 _atom_site_hse06_ddec_sum_bond_order
 _atom_site_hse06_magmom
 _atom_site_pbe_bader_charge
 _atom_site_pbe_bader_spin_density
 _atom_site_pbe_cm5_charge
 _atom_site_pbe_ddec_charge
 _atom_site_pbe_ddec_spin_density
 _atom_site_pbe_ddec_sum_bond_order
 _atom_site_pbe_magmom
Ag  Ag0  1  0.77586174  0.96964578  0.91277229  1  0  0.287993  0  2.112442  0  0  0.220332  0  2.59864  0  0  0.237555  0  2.556104  0  0.3783  0  0.283726  0.208998  0  2.627282  0
Ag  Ag1  1  0.65247377  0.03189415  0.08881662  1  0  0.286474  0  2.110569  0  0  0.217515  0  2.59681  0  0  0.235116  0  2.554143  0  0.377696  0  0.282181  0.205927  0  2.625532  0
Ag  Ag2  1  0.26651749  0.08542514  0.96745634  1  0  0.284797  0  2.142209  0  0  0.21985  0  2.628673  0  0  0.236182  0  2.586927  0  0.375088  0  0.285063  0.209162  0  2.656737  0
Ag  Ag3  1  0.31012464  0.91360842  0.03323105  1  0  0.287196  0  2.119784  0  0  0.220029  0  2.6051  0  0  0.236681  0  2.563505  0  0.379062  0  0.284663  0.209091  0  2.633089  0
H  H4  1  0.11141923  0.74215045  0.16054538  1  0  0.08926  0  0.953591  0  0  0.105002  0  1.018293  0  0  0.106039  0  1.017584  0  0.099618  0  0.103529  0.104207  0  1.018807  0
H  H5  1  0.03062717  0.25637037  0.83839386  1  0  0.09035  0  0.95486  0  0  0.105648  0  1.019776  0  0  0.106594  0  1.019226  0  0.081968  0  0.103298  0.104904  0  1.0202  0
H  H6  1  0.14315600  0.83905051  0.74134384  1  0  0.089093  0  0.955534  0  0  0.105364  0  1.01941  0  0  0.106307  0  1.018849  0  0.094724  0  0.103366  0.104633  0  1.019815  0
H  H7  1  0.72523681  0.15973893  0.25605712  1  0  0.090592  0  0.954485  0  0  0.106114  0  1.0188  0  0  0.107124  0  1.018171  0  0.106992  0  0.103364  0.105333  0  1.019305  0
H  H8  1  0.15132506  0.63229577  0.13335961  1  0  0.0866  0  0.945872  0  0  0.097663  0  1.017558  0  0  0.099384  0  1.0159  0  0.103184  0  0.109382  0.096344  0  1.018844  0
H  H9  1  0.94586637  0.36660405  0.86447675  1  0  0.086126  0  0.950365  0  0  0.096511  0  1.022954  0  0  0.098351  0  1.021085  0  0.101858  0  0.108634  0.095124  0  1.024333  0
H  H10  1  0.20973709  0.86324677  0.62824346  1  0  0.084403  0  0.961  0  0  0.095038  0  1.033764  0  0  0.096771  0  1.032116  0  0.108034  0  0.108686  0.093648  0  1.035088  0
H  H11  1  0.69693026  0.13664483  0.36952556  1  0  0.085643  0  0.960158  0  0  0.095845  0  1.032755  0  0  0.097689  0  1.030995  0  0.091435  0  0.108669  0.094468  0  1.034072  0
H  H12  1  0.10493421  0.58750252  0.28503745  1  0  0.071614  0  0.9616  0  0  0.07467  0  1.035926  0  0  0.07767  0  1.033698  0  0.107388  0  0.104435  0.072469  0  1.037608  0
H  H13  1  0.99971900  0.41264822  0.71399986  1  0  0.072736  0  0.961233  0  0  0.075867  0  1.034409  0  0  0.078916  0  1.032164  0  0.092584  0  0.10488  0.07362  0  1.036122  0
H  H14  1  0.28905357  0.71483825  0.58680778  1  0  0.071955  0  0.962995  0  0  0.074943  0  1.037217  0  0  0.077932  0  1.03502  0  0.087378  0  0.104846  0.072733  0  1.038905  0
H  H15  1  0.60139533  0.28419533  0.41300292  1  0  0.0716  0  0.96385  0  0  0.074365  0  1.038226  0  0  0.077411  0  1.035982  0  0.098344  0  0.104363  0.072129  0  1.039937  0
H  H16  1  0.44070172  0.62742067  0.44602216  1  0  0.08293  0  0.928325  0  0  0.09107  0  0.989374  0  0  0.09416  0  0.986674  0  0.119111  0  0.114514  0.088804  0  0.991462  0
H  H17  1  0.52857742  0.37225385  0.55527191  1  0  0.082674  0  0.926406  0  0  0.090837  0  0.987222  0  0  0.094041  0  0.984342  0  0.090004  0  0.114731  0.088517  0  0.989388  0
H  H18  1  0.90689019  0.55806128  0.62821601  1  0  0.083337  0  0.926941  0  0  0.09129  0  0.9883  0  0  0.094377  0  0.985549  0  0.120634  0  0.114382  0.089026  0  0.990406  0
H  H19  1  0.11684573  0.44010444  0.37046631  1  0  0.082618  0  0.921867  0  0  0.091628  0  0.980871  0  0  0.094507  0  0.978505  0  0.087545  0  0.11541  0.089545  0  0.982655  0
H  H20  1  0.26513485  0.72564775  0.33595521  1  0  0.096237  0  0.963773  0  0  0.106932  0  1.021717  0  0  0.10924  0  1.022971  0  0.055368  0  0.100026  0.105236  0  1.021051  0
H  H21  1  0.34158812  0.27230294  0.66519308  1  0  0.097089  0  0.962703  0  0  0.107639  0  1.020881  0  0  0.1099  0  1.02222  0  0.081638  0  0.100503  0.105976  0  1.020147  0
H  H22  1  0.99685928  0.66745632  0.72525818  1  0  0.098291  0  0.959803  0  0  0.108738  0  1.017683  0  0  0.111005  0  1.01899  0  0.071483  0  0.101328  0.107119  0  1.016899  0
H  H23  1  0.40105209  0.33142202  0.27121640  1  0  0.096419  0  0.965616  0  0  0.10646  0  1.024993  0  0  0.108642  0  1.026477  0  0.083024  0  0.099891  0.104872  0  1.024148  0
H  H24  1  0.53142959  0.75607872  0.19605674  1  0  0.098513  0  0.948984  0  0  0.10913  0  1.012416  0  0  0.111751  0  1.010601  0  0.063275  0  0.098704  0.107192  0  1.013807  0
H  H25  1  0.50182485  0.24164738  0.80398278  1  0  0.097086  0  0.949751  0  0  0.108016  0  1.013105  0  0  0.110632  0  1.011274  0  0.078092  0  0.098079  0.10609  0  1.014492  0
H  H26  1  0.71007353  0.80503851  0.75426728  1  0  0.097754  0  0.94947  0  0  0.108816  0  1.012847  0  0  0.111383  0  1.011144  0  0.072207  0  0.098138  0.106914  0  1.014167  0
H  H27  1  0.26874976  0.19459448  0.24205302  1  0  0.097979  0  0.950165  0  0  0.108561  0  1.014384  0  0  0.111152  0  1.012585  0  0.081076  0  0.097466  0.106605  0  1.01582  0
H  H28  1  0.65965468  0.66657136  0.01198726  1  0  0.086384  0  0.942454  0  0  0.10265  0  1.005404  0  0  0.103211  0  1.005271  0  0.105401  0  0.10579  0.102094  0  1.005601  0
H  H29  1  0.35478182  0.33420226  0.97961096  1  0  0.086146  0  0.936762  0  0  0.102099  0  0.999888  0  0  0.102722  0  0.999548  0  0.063115  0  0.106192  0.101575  0  1.00015  0
H  H30  1  0.67837219  0.98098957  0.65909485  1  0  0.085884  0  0.936115  0  0  0.101965  0  0.999333  0  0  0.102592  0  0.999155  0  0.090379  0  0.106448  0.101414  0  0.999539  0
H  H31  1  0.30949507  0.02222886  0.34220184  1  0  0.084914  0  0.934332  0  0  0.100707  0  0.998581  0  0  0.101305  0  0.998348  0  0.099174  0  0.106138  0.100165  0  0.998803  0
H  H32  1  0.80506402  0.59408890  0.08136969  1  0  0.083041  0  0.936289  0  0  0.09882  0  1.00039  0  0  0.098711  0  1.001955  0  0.079188  0  0.11248  0.098798  0  0.999396  0
H  H33  1  0.51335511  0.40625596  0.91427462  1  0  0.081243  0  0.938906  0  0  0.097116  0  1.00389  0  0  0.097046  0  1.005216  0  0.074083  0  0.112206  0.097053  0  1.003119  0
H  H34  1  0.58294565  0.91809376  0.58511521  1  0  0.082042  0  0.938028  0  0  0.097902  0  1.003073  0  0  0.097853  0  1.004579  0  0.063533  0  0.111915  0.097828  0  1.002175  0
H  H35  1  0.07494481  0.08356532  0.41494327  1  0  0.080112  0  0.940081  0  0  0.096591  0  1.005309  0  0  0.096563  0  1.006643  0  0.08477  0  0.111895  0.096493  0  1.004501  0
H  H36  1  0.81027251  0.50858426  0.93653108  1  0  0.062046  0  0.960646  0  0  0.070075  0  1.029065  0  0  0.071906  0  1.028986  0  0.054795  0  0.101241  0.06874  0  1.029143  0
H  H37  1  0.25361643  0.48735525  0.05864842  1  0  0.064411  0  0.956047  0  0  0.072588  0  1.023266  0  0  0.074396  0  1.023352  0  0.05801  0  0.102172  0.071255  0  1.023291  0
H  H38  1  0.68671493  0.06436461  0.50727514  1  0  0.061455  0  0.964717  0  0  0.069994  0  1.033221  0  0  0.071826  0  1.033049  0  0.049823  0  0.101906  0.068667  0  1.033349  0
H  H39  1  0.25853826  0.93696689  0.49074166  1  0  0.061427  0  0.962317  0  0  0.069783  0  1.030739  0  0  0.071589  0  1.030711  0  0.051303  0  0.101462  0.068451  0  1.03084  0
H  H40  1  0.42921765  0.49988770  0.75110310  1  0  0.078238  0  0.949751  0  0  0.085  0  1.015326  0  0  0.086403  0  1.015911  0  0.098862  0  0.110495  0.083921  0  1.015067  0
H  H41  1  0.63984557  0.50346001  0.25502157  1  0  0.077722  0  0.951893  0  0  0.084774  0  1.016788  0  0  0.086144  0  1.017431  0  0.107278  0  0.110613  0.083719  0  1.016491  0
H  H42  1  0.09204839  0.24977324  0.50244062  1  0  0.078589  0  0.948042  0  0  0.08576  0  1.012714  0  0  0.087113  0  1.013489  0  0.10909  0  0.110913  0.084723  0  1.012316  0
H  H43  1  0.84295003  0.74767927  0.49903912  1  0  0.077934  0  0.949141  0  0  0.08515  0  1.014118  0  0  0.086484  0  1.014848  0  0.104264  0  0.111088  0.084158  0  1.013651  0
H  H44  1  0.53551197  0.62570634  0.81785155  1  0  0.09645  0  0.983208  0  0  0.106373  0  1.043333  0  0  0.108336  0  1.045121  0  0.111819  0  0.09968  0.104944  0  1.04225  0
H  H45  1  0.95434523  0.38291730  0.19114703  1  0  0.097932  0  0.98291  0  0  0.107862  0  1.042798  0  0  0.109631  0  1.044909  0  0.118438  0  0.100738  0.106567  0  1.041493  0
H  H46  1  0.85213928  0.18057692  0.62638484  1  0  0.099186  0  0.978902  0  0  0.109168  0  1.038885  0  0  0.11117  0  1.040604  0  0.118972  0  0.101004  0.107702  0  1.03785  0
H  H47  1  0.65002182  0.81590122  0.37745169  1  0  0.098582  0  0.979373  0  0  0.108619  0  1.039169  0  0  0.110635  0  1.040893  0  0.106864  0  0.100574  0.107136  0  1.038138  0
H  H48  1  0.25956994  0.69674658  0.94820323  1  0  0.102672  0  0.949673  0  0  0.110699  0  1.017228  0  0  0.113552  0  1.015244  0  0.091458  0  0.09978  0.108569  0  1.018746  0
H  H49  1  0.90827916  0.31036067  0.05605954  1  0  0.104119  0  0.944549  0  0  0.112262  0  1.010871  0  0  0.115163  0  1.00899  0  0.075372  0  0.101025  0.110094  0  1.012352  0
H  H50  1  0.04391727  0.04806999  0.69372690  1  0  0.103042  0  0.947687  0  0  0.11112  0  1.015279  0  0  0.114031  0  1.013179  0  0.095221  0  0.099639  0.108942  0  1.016896  0
H  H51  1  0.77352302  0.95005109  0.30945719  1  0  0.103207  0  0.947228  0  0  0.111282  0  1.01475  0  0  0.114211  0  1.012687  0  0.100757  0  0.099633  0.109074  0  1.016341  0
C  C52  1  0.83987380  0.79681777  0.05119495  1  0  0.238071  0  3.725999  0  0  0.208027  0  4.030531  0  0  0.234464  0  4.039039  0  0.26152  0  0.11648  0.190277  0  4.024018  0
C  C53  1  0.70079586  0.20389563  0.94944210  1  0  0.238079  0  3.724306  0  0  0.208636  0  4.028536  0  0  0.23509  0  4.0371  0  0.221565  0  0.115943  0.190894  0  4.021973  0
C  C54  1  0.36029335  0.94842498  0.79448175  1  0  0.235018  0  3.724442  0  0  0.205768  0  4.028825  0  0  0.232099  0  4.03748  0  0.260149  0  0.11559  0.188117  0  4.022206  0
C  C55  1  0.10148488  0.05088127  0.20545382  1  0  0.234812  0  3.725274  0  0  0.205748  0  4.028399  0  0  0.232149  0  4.036965  0  0.226498  0  0.115907  0.188046  0  4.021825  0
C  C56  1  0.01707240  0.69014863  0.14930732  1  0  -0.048874  0  3.67426  0  0  -0.116903  0  3.922226  0  0  -0.112484  0  3.933141  0  0.263665  0  -0.06013  -0.11966  0  3.914848  0
C  C57  1  0.87838466  0.30904924  0.84961623  1  0  -0.050077  0  3.673661  0  0  -0.117881  0  3.922725  0  0  -0.113297  0  3.933429  0  0.281364  0  -0.060923  -0.120725  0  3.915451  0
C  C58  1  0.28807919  0.84938131  0.68741554  1  0  -0.049017  0  3.675799  0  0  -0.117071  0  3.92469  0  0  -0.112543  0  3.935429  0  0.265167  0  -0.061195  -0.119831  0  3.917389  0
C  C59  1  0.82336321  0.14999957  0.31069474  1  0  -0.050762  0  3.673333  0  0  -0.118329  0  3.921155  0  0  -0.113931  0  3.931953  0  0.264285  0  -0.060727  -0.121128  0  3.913956  0
C  C60  1  0.84137891  0.67487978  0.23062733  1  0  0.017783  0  3.746814  0  0  0.042596  0  3.984648  0  0  0.038244  0  4.01004  0  -0.028239  0  -0.014488  0.04527  0  3.967533  0
C  C61  1  0.76715317  0.32422948  0.76888264  1  0  0.015525  0  3.750729  0  0  0.041031  0  3.987348  0  0  0.036538  0  4.012845  0  0.018349  0  -0.014934  0.043799  0  3.970149  0
C  C62  1  0.47479923  0.76990681  0.67308195  1  0  0.019078  0  3.743625  0  0  0.043864  0  3.982393  0  0  0.039478  0  4.007732  0  -0.074531  0  -0.0139  0.046562  0  3.965285  0
C  C63  1  0.92178933  0.22946320  0.32495969  1  0  0.015481  0  3.748297  0  0  0.04228  0  3.983293  0  0  0.037883  0  4.008761  0  -0.007377  0  -0.01488  0.04501  0  3.966117  0
C  C64  1  0.91975962  0.62049833  0.29581854  1  0  0.044886  0  3.744491  0  0  0.01686  0  4.003614  0  0  0.021086  0  4.020283  0  0.484494  0  0.035702  0.014259  0  3.992221  0
C  C65  1  0.85620597  0.37933886  0.70377839  1  0  0.04352  0  3.748418  0  0  0.015381  0  4.007906  0  0  0.019568  0  4.024643  0  0.491665  0  0.034799  0.01281  0  3.996451  0
C  C66  1  0.44317260  0.70497912  0.61969299  1  0  0.044032  0  3.744392  0  0  0.015757  0  4.004638  0  0  0.020002  0  4.021296  0  0.557982  0  0.035446  0.013143  0  3.993251  0
C  C67  1  0.77863194  0.29400953  0.37946526  1  0  0.045492  0  3.747279  0  0  0.017128  0  4.006312  0  0  0.021312  0  4.023016  0  0.492692  0  0.035757  0.014547  0  3.9949  0
C  C68  1  0.54995898  0.64205351  0.38401540  1  0  0.104542  0  3.730726  0  0  0.0784  0  3.991265  0  0  0.083155  0  4.007981  0  0.49806  0  0.040733  0.075368  0  3.979903  0
C  C69  1  0.59215722  0.35739264  0.61673344  1  0  0.108546  0  3.729931  0  0  0.082325  0  3.990029  0  0  0.087118  0  4.006737  0  0.469882  0  0.04246  0.079265  0  3.978654  0
C  C70  1  0.78766786  0.61903124  0.64213119  1  0  0.105255  0  3.727802  0  0  0.078935  0  3.988332  0  0  0.083852  0  4.004812  0  0.469828  0  0.041996  0.075783  0  3.977132  0
C  C71  1  0.06640708  0.37954070  0.35634454  1  0  0.105737  0  3.732488  0  0  0.079759  0  3.993594  0  0  0.084749  0  4.009802  0  0.484137  0  0.041801  0.076554  0  3.98258  0
C  C72  1  0.45301732  0.69652682  0.32269901  1  0  -0.12817  0  3.766386  0  0  -0.134804  0  4.011974  0  0  -0.140606  0  4.033814  0  -0.045364  0  -0.091164  -0.13101  0  3.99723  0
C  C73  1  0.48861646  0.30200472  0.67798642  1  0  -0.13038  0  3.766905  0  0  -0.137141  0  4.012889  0  0  -0.143007  0  4.034825  0  -0.017745  0  -0.091714  -0.133305  0  3.998096  0
C  C74  1  0.83715559  0.68006269  0.69587906  1  0  -0.130366  0  3.76662  0  0  -0.136633  0  4.012827  0  0  -0.142341  0  4.034404  0  -0.077968  0  -0.09183  -0.132935  0  3.998271  0
C  C75  1  0.22415642  0.31894182  0.30131466  1  0  -0.128312  0  3.767115  0  0  -0.135324  0  4.013778  0  0  -0.141021  0  4.035535  0  -0.025343  0  -0.090915  -0.131621  0  3.999072  0
C  C76  1  0.60140501  0.71335602  0.24487071  1  0  -0.073909  0  3.720644  0  0  -0.101654  0  3.970621  0  0  -0.100187  0  3.989833  0  -0.074818  0  -0.081831  -0.102327  0  3.957533  0
C  C77  1  0.57784414  0.28508564  0.75524203  1  0  -0.070607  0  3.717607  0  0  -0.098189  0  3.966908  0  0  -0.096677  0  3.986161  0  -0.153611  0  -0.080805  -0.098902  0  3.953797  0
C  C78  1  0.67762369  0.75663312  0.71183200  1  0  -0.071445  0  3.715856  0  0  -0.100067  0  3.967169  0  0  -0.098574  0  3.986475  0  -0.046854  0  -0.08137  -0.100768  0  3.954037  0
C  C79  1  0.15029186  0.24277651  0.28523423  1  0  -0.070341  0  3.715139  0  0  -0.098499  0  3.964514  0  0  -0.097077  0  3.983885  0  -0.106448  0  -0.081485  -0.099111  0  3.951279  0
C  C80  1  0.83267797  0.64412217  0.03189151  1  0  -0.041573  0  3.679018  0  0  -0.109043  0  3.92665  0  0  -0.104132  0  3.937838  0  0.284076  0  -0.055726  -0.112034  0  3.918942  0
C  C81  1  0.52810816  0.35642235  0.96455039  1  0  -0.042404  0  3.683249  0  0  -0.109733  0  3.931929  0  0  -0.104685  0  3.94312  0  0.312116  0  -0.056064  -0.11292  0  3.924288  0
C  C82  1  0.51915229  0.96513345  0.63820801  1  0  -0.042301  0  3.682937  0  0  -0.109378  0  3.930985  0  0  -0.104614  0  3.942424  0  0.300616  0  -0.055196  -0.112367  0  3.92322  0
C  C83  1  0.11398211  0.03596489  0.36219434  1  0  -0.038484  0  3.680037  0  0  -0.106893  0  3.929472  0  0  -0.101904  0  3.940696  0  0.268937  0  -0.054895  -0.10997  0  3.921746  0
C  C84  1  0.01250873  0.60740427  0.95330383  1  0  0.020269  0  3.748366  0  0  0.043544  0  3.987982  0  0  0.039606  0  4.012082  0  -0.10047  0  -0.012657  0.045885  0  3.971755  0
C  C85  1  0.57642494  0.39388752  0.04620941  1  0  0.021457  0  3.752821  0  0  0.044448  0  3.992928  0  0  0.0405  0  4.017092  0  -0.008171  0  -0.012422  0.046833  0  3.976644  0
C  C86  1  0.38204788  0.04503227  0.60461151  1  0  0.021049  0  3.752957  0  0  0.045086  0  3.991548  0  0  0.04116  0  4.015764  0  -0.035176  0  -0.012708  0.047427  0  3.97528  0
C  C87  1  0.02511295  0.95487888  0.39602358  1  0  0.019194  0  3.75435  0  0  0.04292  0  3.994269  0  0  0.038905  0  4.018525  0  -0.131122  0  -0.013188  0.04533  0  3.977927  0
C  C88  1  0.97084389  0.53615118  0.91140464  1  0  0.051669  0  3.741614  0  0  0.024346  0  3.995713  0  0  0.028825  0  4.012665  0  0.540054  0  0.03322  0.021543  0  3.984165  0
C  C89  1  0.41192249  0.46261065  0.08677887  1  0  0.050587  0  3.738217  0  0  0.02289  0  3.993876  0  0  0.027348  0  4.010803  0  0.486181  0  0.032423  0.020084  0  3.982325  0
C  C90  1  0.49993477  0.08881084  0.53500745  1  0  0.051063  0  3.740594  0  0  0.022207  0  3.995849  0  0  0.026696  0  4.012862  0  0.524973  0  0.032193  0.019403  0  3.984253  0
C  C91  1  0.12162489  0.91148846  0.46436458  1  0  0.051702  0  3.737608  0  0  0.023595  0  3.992158  0  0  0.028051  0  4.009196  0  0.571039  0  0.032648  0.020791  0  3.980534  0
C  C92  1  0.31430952  0.53089497  0.80909319  1  0  0.099381  0  3.743444  0  0  0.073897  0  4.002679  0  0  0.078487  0  4.020692  0  0.489789  0  0.035516  0.070937  0  3.99046  0
C  C93  1  0.62629759  0.47205669  0.19519051  1  0  0.097759  0  3.742752  0  0  0.072325  0  4.00259  0  0  0.076841  0  4.020613  0  0.465132  0  0.035303  0.069426  0  3.990363  0
C  C94  1  0.17050763  0.19123827  0.53206882  1  0  0.096232  0  3.746408  0  0  0.070382  0  4.006505  0  0  0.074973  0  4.024359  0  0.425825  0  0.035273  0.067419  0  3.994411  0
C  C95  1  0.89101318  0.80689029  0.46918864  1  0  0.09784  0  3.74247  0  0  0.071572  0  4.003156  0  0  0.076183  0  4.021109  0  0.46835  0  0.035246  0.068608  0  3.991005  0
C  C96  1  0.37312519  0.60132980  0.84625462  1  0  -0.120219  0  3.76001  0  0  -0.12884  0  4.005588  0  0  -0.134893  0  4.028705  0  -0.077538  0  -0.089667  -0.124959  0  3.99006  0
C  C97  1  0.80147524  0.40440022  0.15963405  1  0  -0.119835  0  3.757087  0  0  -0.128063  0  4.001998  0  0  -0.133886  0  4.024923  0  -0.061886  0  -0.089283  -0.124333  0  3.986591  0
C  C98  1  0.03680886  0.15251813  0.60133031  1  0  -0.118849  0  3.754558  0  0  -0.127708  0  4.000816  0  0  -0.133533  0  4.023362  0  -0.008157  0  -0.089409  -0.123976  0  3.985692  0
C  C99  1  0.78348534  0.84507667  0.40123271  1  0  -0.118173  0  3.752547  0  0  -0.126811  0  3.99856  0  0  -0.132656  0  4.02112  0  -0.07894  0  -0.08829  -0.12306  0  3.983443  0
C  C100  1  0.21940256  0.64054706  0.91916995  1  0  -0.068429  0  3.713064  0  0  -0.096123  0  3.962917  0  0  -0.095191  0  3.982794  0  -0.040322  0  -0.078146  -0.096444  0  3.94946  0
C  C101  1  0.77587870  0.36440878  0.08416058  1  0  -0.070662  0  3.715087  0  0  -0.098102  0  3.965557  0  0  -0.097232  0  3.985154  0  -0.05762  0  -0.078966  -0.098379  0  3.952234  0
C  C102  1  0.14418850  0.07842772  0.63846624  1  0  -0.069266  0  3.710337  0  0  -0.097211  0  3.960684  0  0  -0.096342  0  3.98048  0  -0.118494  0  -0.078574  -0.097488  0  3.94729  0
C  C103  1  0.85199617  0.92007648  0.36377709  1  0  -0.068948  0  3.711584  0  0  -0.096755  0  3.962048  0  0  -0.095918  0  3.981796  0  -0.007202  0  -0.078773  -0.096987  0  3.948689  0
S  S104  1  0.69373116  0.81708878  0.96387964  1  0  -0.332042  0  2.431727  0  0  -0.294867  0  2.838097  0  0  -0.313652  0  2.828099  0  -0.180152  0  -0.201886  -0.282108  0  2.844454  0
S  S105  1  0.48332471  0.18514658  0.03617426  1  0  -0.330736  0  2.42386  0  0  -0.294826  0  2.827846  0  0  -0.313472  0  2.818138  0  -0.167742  0  -0.200991  -0.282183  0  2.834014  0
S  S106  1  0.48909294  0.03466053  0.81318047  1  0  -0.325961  0  2.446593  0  0  -0.288509  0  2.854171  0  0  -0.306955  0  2.844139  0  -0.182748  0  -0.200955  -0.276034  0  2.860585  0
S  S107  1  0.33250771  0.96559319  0.18817310  1  0  -0.324782  0  2.443609  0  0  -0.286812  0  2.84963  0  0  -0.305249  0  2.839583  0  -0.163564  0  -0.200526  -0.274357  0  2.85606  0
S  S108  1  0.90584404  0.87537114  0.11088218  1  0  -0.354799  0  2.444929  0  0  -0.322195  0  2.860322  0  0  -0.34107  0  2.848338  0  -0.186582  0  -0.208793  -0.309238  0  2.868031  0
S  S109  1  0.90056557  0.12462771  0.89095712  1  0  -0.353038  0  2.45555  0  0  -0.320673  0  2.872712  0  0  -0.339363  0  2.860355  0  -0.183599  0  -0.209043  -0.307873  0  2.880693  0
S  S110  1  0.21089923  0.89215824  0.87575861  1  0  -0.348258  0  2.4884  0  0  -0.315426  0  2.909051  0  0  -0.333856  0  2.896487  0  -0.179124  0  -0.208554  -0.302847  0  2.917191  0
S  S111  1  0.98519684  0.10657493  0.12290083  1  0  -0.346579  0  2.503722  0  0  -0.313174  0  2.925027  0  0  -0.331752  0  2.912344  0  -0.164127  0  -0.209316  -0.300505  0  2.933228  0
N  N112  1  0.90077685  0.71415047  0.07436209  1  0  -0.126021  0  3.44161  0  0  -0.02897  0  3.665761  0  0  -0.047055  0  3.688226  0  -1.164432  0  -0.266247  -0.017021  0  3.650325  0
N  N113  1  0.70968413  0.28631741  0.92535055  1  0  -0.127155  0  3.435136  0  0  -0.03072  0  3.660024  0  0  -0.049064  0  3.682645  0  -1.125545  0  -0.266117  -0.01859  0  3.644486  0
N  N114  1  0.38263940  0.92351308  0.71028326  1  0  -0.124606  0  3.442954  0  0  -0.029443  0  3.669167  0  0  -0.04743  0  3.691648  0  -1.134449  0  -0.266911  -0.017544  0  3.653681  0
N  N115  1  0.01072152  0.07572632  0.28927510  1  0  -0.124862  0  3.438491  0  0  -0.028774  0  3.663492  0  0  -0.046836  0  3.686033  0  -1.147471  0  -0.266702  -0.016843  0  3.648045  0
N  N116  1  0.78011868  0.60448375  0.37122859  1  0  -0.292747  0  3.069501  0  0  -0.261679  0  3.34245  0  0  -0.270875  0  3.356054  0  -1.188713  0  -0.323007  -0.255314  0  3.332995  0
N  N117  1  0.77369247  0.39561880  0.62901424  1  0  -0.293252  0  3.071724  0  0  -0.261186  0  3.344201  0  0  -0.270619  0  3.357966  0  -1.164268  0  -0.321346  -0.254661  0  3.334654  0
N  N118  1  0.59309277  0.63085015  0.60464158  1  0  -0.293625  0  3.073395  0  0  -0.261818  0  3.347287  0  0  -0.271215  0  3.361  0  -1.191823  0  -0.32144  -0.255315  0  3.337767  0
N  N119  1  0.84622707  0.36772875  0.39483702  1  0  -0.293352  0  3.076667  0  0  -0.262095  0  3.350687  0  0  -0.271434  0  3.364316  0  -1.196598  0  -0.32154  -0.255631  0  3.341235  0
N  N120  1  0.11559780  0.49815662  0.84111872  1  0  -0.318132  0  3.115566  0  0  -0.277811  0  3.385875  0  0  -0.288594  0  3.401334  0  -1.209904  0  -0.324641  -0.270389  0  3.375221  0
N  N121  1  0.43325407  0.50142432  0.15933201  1  0  -0.318273  0  3.112213  0  0  -0.278771  0  3.384471  0  0  -0.289427  0  3.399847  0  -1.211657  0  -0.325234  -0.271441  0  3.373893  0
N  N122  1  0.39992618  0.15996852  0.49886523  1  0  -0.313877  0  3.120389  0  0  -0.27311  0  3.391123  0  0  -0.284011  0  3.406874  0  -1.208835  0  -0.322952  -0.265608  0  3.380279  0
N  N123  1  0.05849518  0.83948223  0.50077027  1  0  -0.314698  0  3.119776  0  0  -0.273924  0  3.390756  0  0  -0.284805  0  3.406444  0  -1.212737  0  -0.323266  -0.266419  0  3.379937  0
