# generated using pymatgen
data_Cd3H44C52S2(N7O8)2
_symmetry_space_group_name_H-M   'P 1'
_cell_length_a   10.18318527
_cell_length_b   13.54031328
_cell_length_c   13.66492887
_cell_angle_alpha   73.11326133
_cell_angle_beta   81.50112063
_cell_angle_gamma   81.13999708
_symmetry_Int_Tables_number   1
_chemical_formula_structural   Cd3H44C52S2(N7O8)2
_chemical_formula_sum   'Cd3 H44 C52 S2 N14 O16'
_cell_volume   1770.79857263
_cell_formula_units_Z   1
loop_
 _symmetry_equiv_pos_site_id
 _symmetry_equiv_pos_as_xyz
  1  'x, y, z'
loop_
 _atom_site_type_symbol
 _atom_site_label
 _atom_site_symmetry_multiplicity
 _atom_site_fract_x
 _atom_site_fract_y
 _atom_site_fract_z
 _atom_site_occupancy
 _atom_site_pbe_bader_charge
 _atom_site_pbe_bader_spin_density
 _atom_site_pbe_cm5_charge
 _atom_site_pbe_ddec_charge
 _atom_site_pbe_ddec_spin_density
 _atom_site_pbe_ddec_sum_bond_order
 _atom_site_pbe_magmom
Cd  Cd0  1  0.66299523  0.40621606  0.54720865  1  1.279616  0  0.774066  0.874116  0  2.258132  0
Cd  Cd1  1  0.33700506  0.59378486  0.45279316  1  1.279685  0  0.774081  0.87414  0  2.258101  0
Cd  Cd2  1  0.99999870  0.99999897  0.00000089  1  1.322482  0  0.800957  0.937692  0  2.221914  0
H  H3  1  0.98256241  0.10409028  0.68884786  1  0.150876  0  0.110889  0.123838  0  1.014566  0
H  H4  1  0.01743502  0.89590987  0.31115227  1  0.150875  0  0.110863  0.123806  0  1.014638  0
H  H5  1  0.40245877  0.12764714  0.67879646  1  0.096316  0  0.10776  0.109966  0  1.042274  0
H  H6  1  0.59753854  0.87235379  0.32120419  1  0.096291  0  0.107755  0.109958  0  1.042248  0
H  H7  1  0.13814774  0.39353972  0.53174023  1  0.125777  0  0.108851  0.129814  0  1.017128  0
H  H8  1  0.86185064  0.60646044  0.46826419  1  0.125773  0  0.108858  0.129816  0  1.017166  0
H  H9  1  0.66141716  0.24258552  0.42491273  1  0.115863  0  0.1317  0.108  0  0.953753  0
H  H10  1  0.33858326  0.75741463  0.57508709  1  0.115867  0  0.131706  0.108014  0  0.953733  0
H  H11  1  0.66150361  0.22679990  0.24566430  1  0.180654  0  0.115766  0.141044  0  1.03402  0
H  H12  1  0.33849547  0.77320258  0.75433572  1  0.180605  0  0.115771  0.141068  0  1.034002  0
H  H13  1  0.70402855  0.55511967  0.13265674  1  0.114877  0  0.108523  0.115619  0  1.022388  0
H  H14  1  0.29597149  0.44488281  0.86734611  1  0.114925  0  0.108511  0.115622  0  1.022424  0
H  H15  1  0.70448299  0.55652075  0.31616568  1  0.080731  0  0.116268  0.087485  0  1.013181  0
H  H16  1  0.29551418  0.44348096  0.68383769  1  0.080793  0  0.11628  0.087468  0  1.013198  0
H  H17  1  0.64959935  0.28285355  0.95727097  1  0.108479  0  0.113462  0.120123  0  1.02403  0
H  H18  1  0.35040665  0.71714891  0.04273127  1  0.108608  0  0.113481  0.12013  0  1.02408  0
H  H19  1  0.64522670  0.27691595  0.77380817  1  0.120131  0  0.121235  0.096153  0  1.020648  0
H  H20  1  0.35477830  0.72308651  0.22619417  1  0.12002  0  0.12121  0.096125  0  1.020635  0
H  H21  1  0.66805723  0.59194522  0.65861301  1  0.125992  0  0.123369  0.104694  0  0.990287  0
H  H22  1  0.33194358  0.40805881  0.34138931  1  0.126064  0  0.123385  0.104713  0  0.990274  0
H  H23  1  0.67450602  0.61184492  0.83734662  1  0.10204  0  0.118634  0.132501  0  0.97479  0
H  H24  1  0.32549291  0.38815834  0.16265613  1  0.102123  0  0.118665  0.132571  0  0.974769  0
H  H25  1  0.00790012  0.21780948  0.82242669  1  0.126313  0  0.118024  0.090986  0  1.023178  0
H  H26  1  0.99210389  0.78218677  0.17756949  1  0.126386  0  0.117996  0.090967  0  1.02318  0
H  H27  1  0.00421822  0.40849968  0.80635159  1  0.094352  0  0.120588  0.137812  0  0.974462  0
H  H28  1  0.99578370  0.59149736  0.19364458  1  0.094347  0  0.120588  0.137796  0  0.974479  0
H  H29  1  0.03855925  0.32504521  0.13272778  1  0.117426  0  0.119406  0.131844  0  0.989487  0
H  H30  1  0.96144640  0.67495336  0.86726829  1  0.117397  0  0.119397  0.131844  0  0.989481  0
H  H31  1  0.04238888  0.13822531  0.13540729  1  0.16731  0  0.12421  0.111319  0  1.014584  0
H  H32  1  0.95760695  0.86177252  0.86459001  1  0.167282  0  0.124212  0.111358  0  1.014625  0
H  H33  1  0.57958167  0.99675224  0.74551848  1  0.08146  0  0.106693  0.137014  0  1.000082  0
H  H34  1  0.42041271  0.00324171  0.25448302  1  0.081531  0  0.106732  0.137087  0  0.999916  0
H  H35  1  0.64100443  0.12016676  0.68439406  1  0.118881  0  0.109862  0.146583  0  0.997123  0
H  H36  1  0.35899752  0.87982328  0.31560338  1  0.118864  0  0.109858  0.146595  0  0.997098  0
H  H37  1  0.75433339  0.01098102  0.74009957  1  0.108748  0  0.114618  0.139693  0  0.985631  0
H  H38  1  0.24566388  0.98900671  0.25990341  1  0.108794  0  0.114646  0.139717  0  0.985605  0
H  H39  1  0.42248657  0.04925202  0.88236248  1  0.086052  0  0.105343  0.128155  0  1.018282  0
H  H40  1  0.57750586  0.95075592  0.11762715  1  0.086122  0  0.105327  0.128152  0  1.018274  0
H  H41  1  0.48195576  0.12036986  0.95584742  1  0.046794  0  0.107393  0.119579  0  0.992862  0
H  H42  1  0.51804162  0.87963107  0.04414736  1  0.046697  0  0.107391  0.119628  0  0.992808  0
H  H43  1  0.45166994  0.18087033  0.82454056  1  0.081925  0  0.103722  0.122391  0  1.002054  0
H  H44  1  0.54833778  0.81913445  0.17545425  1  0.082024  0  0.103771  0.122451  0  1.002023  0
H  H45  1  0.69057714  0.08777064  0.97672811  1  0.09612  0  0.117553  0.048597  0  1.022885  0
H  H46  1  0.30941923  0.91223029  0.02326825  1  0.09612  0  0.117565  0.048646  0  1.02286  0
C  C47  1  0.04812024  0.25332518  0.60716011  1  -0.064348  0  -0.016783  -0.020272  0  3.963623  0
C  C48  1  0.95187918  0.74667497  0.39283982  1  -0.064313  0  -0.016779  -0.020302  0  3.963629  0
C  C49  1  0.06748198  0.14898016  0.66444184  1  -0.025737  0  -0.072142  -0.094884  0  3.92032  0
C  C50  1  0.93251844  0.85101998  0.33555798  1  -0.025758  0  -0.072123  -0.094852  0  3.920363  0
C  C51  1  0.19516687  0.10469039  0.69097471  1  -0.205977  0  -0.019717  -0.08283  0  3.968775  0
C  C52  1  0.80483353  0.89530975  0.30902658  1  -0.205926  0  -0.019708  -0.08278  0  3.968652  0
C  C53  1  0.30297077  0.16277961  0.65945918  1  0.062413  0  -0.079475  -0.099296  0  3.949791  0
C  C54  1  0.69702863  0.83722054  0.34054221  1  0.06242  0  -0.079481  -0.099304  0  3.949722  0
C  C55  1  0.28378579  0.26689722  0.60149472  1  -0.058163  0  -0.026759  -0.046478  0  4.007246  0
C  C56  1  0.71621462  0.73310292  0.39850583  1  -0.058127  0  -0.026785  -0.046577  0  4.007291  0
C  C57  1  0.15608374  0.31221090  0.57542657  1  -0.024513  0  -0.077506  -0.110677  0  3.909611  0
C  C58  1  0.84391556  0.68779002  0.42457461  1  -0.024527  0  -0.077509  -0.110613  0  3.909685  0
C  C59  1  0.91057468  0.30390068  0.58259827  1  1.576554  0  0.179537  0.544923  0  4.255729  0
C  C60  1  0.08942517  0.69609636  0.41740470  1  1.576248  0  0.179525  0.54486  0  4.255644  0
C  C61  1  0.39977284  0.32944172  0.57064963  1  1.550769  0  0.198244  0.565412  0  4.246009  0
C  C62  1  0.60022647  0.67055921  0.42935008  1  1.550721  0  0.198293  0.565535  0  4.245931  0
C  C63  1  0.66981000  0.30989359  0.35799373  1  0.509276  0  0.063059  0.115233  0  3.899156  0
C  C64  1  0.33019041  0.69010656  0.64200756  1  0.509325  0  0.063074  0.115249  0  3.899088  0
C  C65  1  0.66997936  0.30117995  0.25886118  1  0.007086  0  -0.059208  -0.156134  0  3.848821  0
C  C66  1  0.33001982  0.69882175  0.74113978  1  0.007094  0  -0.059234  -0.156218  0  3.848808  0
C  C67  1  0.68077333  0.39081689  0.17667741  1  0.263367  0  0.101469  0.185238  0  4.041805  0
C  C68  1  0.31922683  0.60918481  0.82332492  1  0.263433  0  0.10152  0.185413  0  4.041639  0
C  C69  1  0.69418350  0.48502276  0.19579677  1  0.049565  0  -0.077181  -0.191305  0  3.953378  0
C  C70  1  0.30581765  0.51497893  0.80420546  1  0.049407  0  -0.077124  -0.191317  0  3.953415  0
C  C71  1  0.69410108  0.48564400  0.29695376  1  0.480951  0  0.048931  0.102486  0  3.948318  0
C  C72  1  0.30589808  0.51435771  0.70304867  1  0.481022  0  0.048879  0.102476  0  3.948481  0
C  C73  1  0.66270278  0.44833229  0.90921741  1  0.310041  0  0.099073  0.192096  0  4.049228  0
C  C74  1  0.33730013  0.55167096  0.09078420  1  0.309888  0  0.099155  0.192341  0  4.049317  0
C  C75  1  0.65372311  0.35220981  0.89248618  1  0.043698  0  -0.077768  -0.193004  0  3.932582  0
C  C76  1  0.34628092  0.64779266  0.10751480  1  0.043561  0  -0.077827  -0.193046  0  3.932686  0
C  C77  1  0.65047990  0.34912584  0.79238450  1  0.47778  0  0.047559  0.095481  0  3.943185  0
C  C78  1  0.34952400  0.65087740  0.20761700  1  0.477019  0  0.04756  0.095481  0  3.943221  0
C  C79  1  0.66462587  0.52613142  0.72725967  1  0.51935  0  0.055893  0.109418  0  3.925906  0
C  C80  1  0.33537604  0.47387183  0.27274276  1  0.519072  0  0.055888  0.109446  0  3.925572  0
C  C81  1  0.66823514  0.53669653  0.82525232  1  -0.044779  0  -0.072086  -0.185786  0  3.916069  0
C  C82  1  0.33176578  0.46330672  0.17474948  1  -0.044565  0  -0.072188  -0.186048  0  3.916056  0
C  C83  1  0.01506030  0.24506145  0.88892111  1  0.48762  0  0.054586  0.108554  0  3.927476  0
C  C84  1  0.98494050  0.75493637  0.11107568  1  0.487636  0  0.05458  0.108576  0  3.927479  0
C  C85  1  0.01296923  0.35029860  0.88014464  1  0.045802  0  -0.071039  -0.182502  0  3.902765  0
C  C86  1  0.98703267  0.64969843  0.11985226  1  0.045762  0  -0.070922  -0.182371  0  3.902742  0
C  C87  1  0.01888817  0.38009421  0.96927358  1  0.275048  0  0.099406  0.185514  0  4.048936  0
C  C88  1  0.98111486  0.61990204  0.03072270  1  0.275416  0  0.099411  0.185462  0  4.048857  0
C  C89  1  0.03265852  0.30359437  0.06281215  1  -0.00047  0  -0.071773  -0.177105  0  3.904875  0
C  C90  1  0.96734539  0.69640266  0.93718308  1  -0.000786  0  -0.071803  -0.177143  0  3.904802  0
C  C91  1  0.03588823  0.20046023  0.06421991  1  0.489381  0  0.054117  0.110217  0  3.914522  0
C  C92  1  0.96411157  0.79953759  0.93577772  1  0.489348  0  0.054129  0.110152  0  3.914604  0
C  C93  1  0.65166813  0.04854453  0.74764188  1  0.199726  0  -0.132528  -0.281781  0  3.831392  0
C  C94  1  0.34832815  0.95145020  0.25235700  1  0.199619  0  -0.132587  -0.281854  0  3.831221  0
C  C95  1  0.48757356  0.10793202  0.87941002  1  0.244646  0  -0.13237  -0.286982  0  3.904583  0
C  C96  1  0.51242481  0.89206891  0.12058540  1  0.244574  0  -0.13242  -0.287094  0  3.904654  0
C  C97  1  0.72381280  0.06889541  0.90286097  1  1.361694  0  0.168114  0.282525  0  4.110953  0
C  C98  1  0.27618402  0.93110241  0.09713696  1  1.361694  0  0.168121  0.282539  0  4.110863  0
S  S99  1  0.21921778  0.97480329  0.77276825  1  3.187278  0  0.495053  1.172976  0  6.217777  0
S  S100  1  0.78077855  0.02519765  0.22723177  1  3.187237  0  0.495057  1.173016  0  6.217802  0
N  N101  1  0.68099940  0.40014711  0.37669915  1  -1.224797  0  -0.31619  -0.221354  0  3.497367  0
N  N102  1  0.31900010  0.59985226  0.62330392  1  -1.224841  0  -0.316201  -0.221358  0  3.497341  0
N  N103  1  0.67907393  0.37852110  0.07767610  1  -0.436536  0  -0.125236  -0.094492  0  3.236057  0
N  N104  1  0.32092601  0.62148215  0.92232581  1  -0.436687  0  -0.125273  -0.094596  0  3.236129  0
N  N105  1  0.66493803  0.46293932  0.00759056  1  -0.465424  0  -0.138722  -0.128404  0  3.245679  0
N  N106  1  0.33506167  0.53706549  0.99241166  1  -0.465326  0  -0.138735  -0.128484  0  3.245939  0
N  N107  1  0.65483706  0.43438349  0.71144154  1  -1.224761  0  -0.317474  -0.219241  0  3.471221  0
N  N108  1  0.34516485  0.56561976  0.28856090  1  -1.223842  0  -0.317452  -0.21923  0  3.471087  0
N  N109  1  0.02540213  0.17198010  0.97913362  1  -1.220038  0  -0.322745  -0.232126  0  3.485056  0
N  N110  1  0.97459767  0.82801772  0.02086401  1  -1.219998  0  -0.3228  -0.232184  0  3.485116  0
N  N111  1  0.01085317  0.48815781  0.95780956  1  -0.442053  0  -0.129267  -0.113165  0  3.251927  0
N  N112  1  0.98914985  0.51183845  0.04218672  1  -0.487635  0  -0.129239  -0.112919  0  3.251854  0
N  N113  1  0.62547679  0.07389246  0.84623283  1  -1.197282  0  -0.279221  0.037652  0  3.720858  0
N  N114  1  0.37452136  0.92610304  0.15376564  1  -1.197235  0  -0.2792  0.037611  0  3.720834  0
O  O115  1  0.89655421  0.40117129  0.53721110  1  -1.162841  0  -0.34361  -0.558101  0  2.176195  0
O  O116  1  0.10344352  0.59882653  0.46279406  1  -1.162841  0  -0.343655  -0.558128  0  2.176058  0
O  O117  1  0.81388152  0.24864075  0.61013888  1  -1.175783  0  -0.342319  -0.568235  0  2.164627  0
O  O118  1  0.18611957  0.75135473  0.38986294  1  -1.175618  0  -0.342254  -0.568141  0  2.164669  0
O  O119  1  0.38992826  0.41465951  0.49984991  1  -1.202643  0  -0.341236  -0.60071  0  2.370665  0
O  O120  1  0.61007118  0.58534063  0.50014855  1  -1.202635  0  -0.341247  -0.600718  0  2.370557  0
O  O121  1  0.50390555  0.29384022  0.61746072  1  -1.160093  0  -0.3248  -0.552765  0  2.27173  0
O  O122  1  0.49609355  0.70616226  0.38253784  1  -1.16012  0  -0.324822  -0.552842  0  2.271739  0
O  O123  1  0.36107704  0.93707687  0.75622151  1  -1.344732  0  -0.360066  -0.611226  0  2.139254  0
O  O124  1  0.63892039  0.06292329  0.24377935  1  -1.344718  0  -0.360075  -0.611277  0  2.139396  0
O  O125  1  0.12665534  0.91633839  0.74718757  1  -1.334638  0  -0.351859  -0.594869  0  2.142795  0
O  O126  1  0.87334188  0.08366332  0.25281140  1  -1.33463  0  -0.351864  -0.594866  0  2.142812  0
O  O127  1  0.18557617  0.98890271  0.87884598  1  -1.332382  0  -0.375292  -0.664235  0  2.316063  0
O  O128  1  0.81442038  0.01109668  0.12115519  1  -1.332413  0  -0.375273  -0.664248  0  2.316018  0
O  O129  1  0.84542375  0.04362638  0.87742538  1  -1.159189  0  -0.30909  -0.466023  0  2.340723  0
O  O130  1  0.15457426  0.95636989  0.12257508  1  -1.159222  0  -0.309129  -0.466083  0  2.340753  0
