# generated using pymatgen
data_YH7C11N3O7
_symmetry_space_group_name_H-M   'P 1'
_cell_length_a   8.20564070
_cell_length_b   11.54105160
_cell_length_c   14.71194132
_cell_angle_alpha   89.99986925
_cell_angle_beta   89.99971404
_cell_angle_gamma   91.95993524
_symmetry_Int_Tables_number   1
_chemical_formula_structural   YH7C11N3O7
_chemical_formula_sum   'Y4 H28 C44 N12 O28'
_cell_volume   1392.43111917
_cell_formula_units_Z   4
loop_
 _symmetry_equiv_pos_site_id
 _symmetry_equiv_pos_as_xyz
  1  'x, y, z'
loop_
 _atom_site_type_symbol
 _atom_site_label
 _atom_site_symmetry_multiplicity
 _atom_site_fract_x
 _atom_site_fract_y
 _atom_site_fract_z
 _atom_site_occupancy
 _atom_site_pbe_bader_charge
 _atom_site_pbe_bader_spin_density
 _atom_site_pbe_cm5_charge
 _atom_site_pbe_ddec_charge
 _atom_site_pbe_ddec_spin_density
 _atom_site_pbe_ddec_sum_bond_order
 _atom_site_pbe_magmom
Y  Y0  1  0.27525159  0.92647323  0.86861156  1  2.297444  0  1.284117  1.766506  0  2.481379  0
Y  Y1  1  0.72475032  0.57352709  0.36861130  1  2.297482  0  1.284155  1.76642  0  2.481434  0
Y  Y2  1  0.72475331  0.07352476  0.13138608  1  2.297528  0  1.284193  1.766441  0  2.481356  0
Y  Y3  1  0.27524613  0.42647343  0.63138770  1  2.297393  0  1.284093  1.766513  0  2.481388  0
H  H4  1  0.66535711  0.85026771  0.55556811  1  0.505942  0  0.348542  0.31691  0  0.879534  0
H  H5  1  0.33464636  0.64973099  0.05556675  1  0.50595  0  0.348583  0.316937  0  0.879457  0
H  H6  1  0.33464654  0.14972940  0.44443158  1  0.505975  0  0.348553  0.316898  0  0.879505  0
H  H7  1  0.66535369  0.35026783  0.94443226  1  0.505955  0  0.348552  0.316912  0  0.879511  0
H  H8  1  0.74934282  0.28114181  0.58107091  1  0.127394  0  0.122943  0.09975  0  1.005114  0
H  H9  1  0.25065839  0.21885914  0.08107442  1  0.127358  0  0.122944  0.099796  0  1.005153  0
H  H10  1  0.25065244  0.71885957  0.41892877  1  0.127315  0  0.122958  0.099767  0  1.005086  0
H  H11  1  0.74934650  0.78113884  0.91893342  1  0.12735  0  0.122947  0.099771  0  1.005073  0
H  H12  1  0.58257598  0.09913527  0.55897157  1  0.099823  0  0.108898  0.115682  0  1.005801  0
H  H13  1  0.41742787  0.40086578  0.05897565  1  0.100077  0  0.1089  0.115664  0  1.005844  0
H  H14  1  0.41742651  0.90086356  0.44102676  1  0.099811  0  0.108883  0.115659  0  1.005805  0
H  H15  1  0.58257102  0.59913476  0.94103015  1  0.099751  0  0.10885  0.115623  0  1.005789  0
H  H16  1  0.75175304  0.98465975  0.82113241  1  0.105465  0  0.121175  0.132745  0  0.996475  0
H  H17  1  0.24824692  0.51534243  0.32113493  1  0.105431  0  0.121168  0.132763  0  0.996474  0
H  H18  1  0.24825069  0.01533996  0.17886523  1  0.105467  0  0.121171  0.132754  0  0.996445  0
H  H19  1  0.75174596  0.48466067  0.67886815  1  0.105547  0  0.121176  0.132762  0  0.996438  0
H  H20  1  0.91356579  0.17238542  0.83267048  1  0.105567  0  0.124898  0.100658  0  0.974475  0
H  H21  1  0.08643073  0.32761646  0.33267221  1  0.105516  0  0.124919  0.100704  0  0.974429  0
H  H22  1  0.08643431  0.82761513  0.16732852  1  0.105557  0  0.124886  0.100644  0  0.974494  0
H  H23  1  0.91356697  0.67238494  0.66733088  1  0.10559  0  0.124894  0.100677  0  0.974485  0
H  H24  1  0.03971568  0.96285924  0.72528339  1  0.646971  0  0.31549  0.397712  0  0.906901  0
H  H25  1  0.96027892  0.53713886  0.22528390  1  0.646979  0  0.315499  0.397703  0  0.906933  0
H  H26  1  0.96028298  0.03713436  0.27471630  1  0.646903  0  0.315476  0.39766  0  0.906971  0
H  H27  1  0.03971396  0.46286423  0.77471646  1  0.646905  0  0.315469  0.397634  0  0.907011  0
H  H28  1  0.96855847  0.84101390  0.77285174  1  0.638915  0  0.284756  0.337124  0  1.032427  0
H  H29  1  0.03143941  0.65898581  0.27284915  1  0.638974  0  0.284755  0.337096  0  1.032454  0
H  H30  1  0.03144510  0.15898061  0.22715067  1  0.638781  0  0.284723  0.337078  0  1.03249  0
H  H31  1  0.96855350  0.34101815  0.72715053  1  0.638747  0  0.284726  0.33706  0  1.032512  0
C  C32  1  0.50333968  0.73806815  0.62614171  1  0.384626  0  0.097901  0.007427  0  3.90949  0
C  C33  1  0.49665601  0.76193547  0.12614175  1  0.384167  0  0.097864  0.00738  0  3.909508  0
C  C34  1  0.49666159  0.26193068  0.37385865  1  0.384245  0  0.097901  0.007326  0  3.909478  0
C  C35  1  0.50334291  0.23806594  0.87385590  1  0.384541  0  0.097862  0.007341  0  3.909381  0
C  C36  1  0.31022931  0.67998472  0.76398380  1  1.654617  0  0.226702  0.60277  0  4.226385  0
C  C37  1  0.68976511  0.82001847  0.26398456  1  1.654859  0  0.226788  0.602925  0  4.226273  0
C  C38  1  0.68977074  0.32001410  0.23601249  1  1.654605  0  0.226677  0.602813  0  4.226361  0
C  C39  1  0.31023750  0.17998383  0.73601377  1  1.654817  0  0.226778  0.602883  0  4.226201  0
C  C40  1  0.42467744  0.75460966  0.70867816  1  0.410349  0  0.097791  0.015532  0  3.960133  0
C  C41  1  0.57531626  0.74539369  0.20867869  1  0.410306  0  0.097806  0.015472  0  3.960231  0
C  C42  1  0.57532507  0.24539004  0.29132152  1  0.410434  0  0.097732  0.015495  0  3.960058  0
C  C43  1  0.42468146  0.25460857  0.79131964  1  0.41032  0  0.097795  0.015549  0  3.96015  0
C  C44  1  0.53822575  0.63814534  0.56669345  1  1.66319  0  0.239178  0.61371  0  4.229922  0
C  C45  1  0.46178040  0.86186374  0.06669884  1  1.663461  0  0.239116  0.613648  0  4.230044  0
C  C46  1  0.46178059  0.36185959  0.43330012  1  1.663391  0  0.239177  0.613757  0  4.229889  0
C  C47  1  0.53823215  0.13814470  0.93330560  1  1.663291  0  0.239184  0.613754  0  4.229878  0
C  C48  1  0.56502572  0.91487746  0.68004938  1  0.986616  0  0.238326  0.317688  0  3.975294  0
C  C49  1  0.43497307  0.58512428  0.18005058  1  0.986686  0  0.238314  0.317658  0  3.975256  0
C  C50  1  0.43497796  0.08512052  0.31994962  1  0.986618  0  0.238311  0.317665  0  3.97532  0
C  C51  1  0.56501987  0.41488055  0.81995182  1  0.986569  0  0.23828  0.317722  0  3.975328  0
C  C52  1  0.74630028  0.21394328  0.63325172  1  0.484255  0  0.060946  0.110397  0  3.918519  0
C  C53  1  0.25370049  0.28605838  0.13325441  1  0.484059  0  0.061001  0.110412  0  3.918577  0
C  C54  1  0.25369742  0.78605811  0.36674729  1  0.484362  0  0.06095  0.110411  0  3.91846  0
C  C55  1  0.74630203  0.71394132  0.86675139  1  0.484256  0  0.060967  0.110387  0  3.918468  0
C  C56  1  0.65506343  0.11108524  0.62049291  1  0.016459  0  -0.077191  -0.159341  0  3.930045  0
C  C57  1  0.34493983  0.38891474  0.12049585  1  0.016252  0  -0.077198  -0.159332  0  3.930081  0
C  C58  1  0.34493784  0.88891358  0.37950542  1  0.016528  0  -0.077195  -0.159387  0  3.93012  0
C  C59  1  0.65506025  0.61108494  0.87950927  1  0.016415  0  -0.077118  -0.159274  0  3.930012  0
C  C60  1  0.74859409  0.04841722  0.76685897  1  -0.069339  0  -0.073883  -0.157921  0  3.961243  0
C  C61  1  0.25140669  0.45158489  0.26686002  1  -0.068813  0  -0.073887  -0.158051  0  3.961335  0
C  C62  1  0.25140965  0.95158249  0.23314003  1  -0.068724  0  -0.07388  -0.157995  0  3.961178  0
C  C63  1  0.74858621  0.54841907  0.73314238  1  -0.06889  0  -0.073844  -0.157936  0  3.961215  0
C  C64  1  0.65450207  0.02651740  0.68884426  1  0.027712  0  0.015707  0.049443  0  4.008801  0
C  C65  1  0.34550059  0.47348324  0.18884502  1  0.027047  0  0.015772  0.049548  0  4.008773  0
C  C66  1  0.34550402  0.97347973  0.31115610  1  0.027128  0  0.015772  0.049552  0  4.008764  0
C  C67  1  0.65449351  0.52651986  0.81115739  1  0.02733  0  0.015712  0.049441  0  4.008755  0
C  C68  1  0.83685013  0.15308069  0.77352817  1  0.517128  0  0.0519  0.085557  0  3.944963  0
C  C69  1  0.16314690  0.34692051  0.27352965  1  0.517133  0  0.051973  0.085654  0  3.945032  0
C  C70  1  0.16314995  0.84691899  0.22647151  1  0.517074  0  0.051949  0.085597  0  3.944974  0
C  C71  1  0.83685077  0.65308002  0.72647275  1  0.517087  0  0.051901  0.085523  0  3.944877  0
C  C72  1  0.96470424  0.93675441  0.00048656  1  1.578958  0  0.206338  0.46539  0  4.269302  0
C  C73  1  0.03528174  0.56325299  0.50047249  1  1.579081  0  0.206471  0.465601  0  4.269272  0
C  C74  1  0.03529235  0.06325045  0.99952672  1  1.60092  0  0.206601  0.46576  0  4.269069  0
C  C75  1  0.96470028  0.43675349  0.49951496  1  1.600415  0  0.206375  0.465595  0  4.269005  0
N  N76  1  0.46493982  0.86428213  0.74097558  1  -1.186728  0  -0.360042  -0.407295  0  3.360339  0
N  N77  1  0.53505478  0.63572026  0.24097573  1  -1.186677  0  -0.360057  -0.407306  0  3.36043  0
N  N78  1  0.53506386  0.13571585  0.25902410  1  -1.186839  0  -0.360021  -0.407355  0  3.360387  0
N  N79  1  0.46493566  0.36428281  0.75902531  1  -1.186715  0  -0.360022  -0.407343  0  3.360526  0
N  N80  1  0.58680058  0.84138848  0.60904927  1  -1.244343  0  -0.361175  -0.275972  0  3.634636  0
N  N81  1  0.41319877  0.65861088  0.10904836  1  -1.244296  0  -0.361197  -0.275925  0  3.634411  0
N  N82  1  0.41320188  0.15860949  0.39095041  1  -1.244316  0  -0.361161  -0.275828  0  3.634457  0
N  N83  1  0.58679771  0.34139050  0.89094997  1  -1.244309  0  -0.361159  -0.27594  0  3.634573  0
N  N84  1  0.83492565  0.23494384  0.70859785  1  -1.243571  0  -0.297254  -0.220355  0  3.398477  0
N  N85  1  0.16507204  0.26505930  0.20860151  1  -1.243218  0  -0.297391  -0.220493  0  3.398706  0
N  N86  1  0.16507208  0.76505843  0.29140115  1  -1.243583  0  -0.297306  -0.220342  0  3.39845  0
N  N87  1  0.83492687  0.73494211  0.79140497  1  -1.243485  0  -0.297294  -0.220348  0  3.398361  0
O  O88  1  0.26169512  0.72533162  0.83747039  1  -1.189577  0  -0.363624  -0.581903  0  2.225021  0
O  O89  1  0.73829856  0.77466960  0.33747041  1  -1.18978  0  -0.363699  -0.582037  0  2.225006  0
O  O90  1  0.73830615  0.27466721  0.16252997  1  -1.189625  0  -0.363659  -0.581977  0  2.22504  0
O  O91  1  0.26169786  0.22533006  0.66252995  1  -1.189777  0  -0.363709  -0.582024  0  2.225006  0
O  O92  1  0.26799760  0.57901912  0.73733893  1  -1.219591  0  -0.364674  -0.61037  0  2.323311  0
O  O93  1  0.73199819  0.92098155  0.23734075  1  -1.219645  0  -0.364658  -0.610356  0  2.323309  0
O  O94  1  0.73199406  0.42098396  0.26265532  1  -1.219577  0  -0.364582  -0.610317  0  2.323256  0
O  O95  1  0.26800909  0.07901472  0.76265758  1  -1.219578  0  -0.364637  -0.610362  0  2.323198  0
O  O96  1  0.61801518  0.66529208  0.49530437  1  -1.201432  0  -0.360411  -0.595323  0  2.27847  0
O  O97  1  0.38198666  0.83470438  0.99529634  1  -1.201207  0  -0.360463  -0.59536  0  2.27799  0
O  O98  1  0.38198481  0.33470500  0.50470075  1  -1.201217  0  -0.360469  -0.595412  0  2.278033  0
O  O99  1  0.61801818  0.16529187  0.00469315  1  -1.201442  0  -0.360404  -0.595301  0  2.278441  0
O  O100  1  0.50069366  0.53671415  0.59327472  1  -1.202988  0  -0.367398  -0.607056  0  2.379148  0
O  O101  1  0.49929469  0.96327998  0.09327235  1  -1.202899  0  -0.367272  -0.606928  0  2.379697  0
O  O102  1  0.49930009  0.46327855  0.40672497  1  -1.20286  0  -0.367305  -0.606955  0  2.379582  0
O  O103  1  0.50069912  0.03671445  0.90672394  1  -1.203011  0  -0.367414  -0.607095  0  2.37916  0
O  O104  1  0.04064679  0.86298844  0.95508455  1  -1.190681  0  -0.342822  -0.546229  0  2.285839  0
O  O105  1  0.95937223  0.63700047  0.45508149  1  -1.191097  0  -0.342686  -0.54592  0  2.286814  0
O  O106  1  0.95937733  0.13700102  0.04491785  1  -1.191683  0  -0.342768  -0.546031  0  2.286674  0
O  O107  1  0.04063609  0.36299060  0.54491547  1  -1.190951  0  -0.342765  -0.546222  0  2.28592  0
O  O108  1  0.06801777  0.89469762  0.75986212  1  -1.310988  0  -0.624037  -0.802292  0  2.17929  0
O  O109  1  0.93197660  0.60530298  0.25985987  1  -1.311063  0  -0.624024  -0.802211  0  2.179302  0
O  O110  1  0.93198695  0.10529517  0.24013484  1  -1.310765  0  -0.623958  -0.802125  0  2.179364  0
O  O111  1  0.06801149  0.39470268  0.74013641  1  -1.310759  0  -0.623958  -0.802093  0  2.17941  0
O  O112  1  0.83587537  0.91838860  0.04685793  1  -1.202851  0  -0.353245  -0.571018  0  2.278663  0
O  O113  1  0.16413802  0.58161280  0.54686590  1  -1.202548  0  -0.353459  -0.571519  0  2.277833  0
O  O114  1  0.16414793  0.08161299  0.95313904  1  -1.202771  0  -0.353465  -0.571494  0  2.277747  0
O  O115  1  0.83586943  0.41838867  0.45313854  1  -1.202956  0  -0.353271  -0.571142  0  2.278378  0
