# generated using pymatgen
data_AlH9(C2O)5
_symmetry_space_group_name_H-M   'P 1'
_cell_length_a   6.63393968
_cell_length_b   11.34497217
_cell_length_c   17.78935312
_cell_angle_alpha   89.89040315
_cell_angle_beta   92.58332287
_cell_angle_gamma   90.90904853
_symmetry_Int_Tables_number   1
_chemical_formula_structural   AlH9(C2O)5
_chemical_formula_sum   'Al4 H36 C40 O20'
_cell_volume   1337.32988215
_cell_formula_units_Z   4
loop_
 _symmetry_equiv_pos_site_id
 _symmetry_equiv_pos_as_xyz
  1  'x, y, z'
loop_
 _atom_site_type_symbol
 _atom_site_label
 _atom_site_symmetry_multiplicity
 _atom_site_fract_x
 _atom_site_fract_y
 _atom_site_fract_z
 _atom_site_occupancy
 _atom_site_pbe_bader_charge
 _atom_site_pbe_bader_spin_density
 _atom_site_pbe_cm5_charge
 _atom_site_pbe_ddec_charge
 _atom_site_pbe_ddec_spin_density
 _atom_site_pbe_ddec_sum_bond_order
 _atom_site_pbe_magmom
Al  Al0  1  0.98655951  0.00109579  0.50199919  1  2.499965  0  0.397232  1.64391  0  2.583236  0
Al  Al1  1  0.48634915  0.99765334  0.49988032  1  2.501814  0  0.397636  1.637291  0  2.596231  0
Al  Al2  1  0.01363302  0.50227016  0.00011416  1  2.501786  0  0.397572  1.637202  0  2.596103  0
Al  Al3  1  0.51342894  0.49884608  0.99800665  1  2.500001  0  0.397141  1.644092  0  2.583234  0
H  H4  1  0.22289431  0.85143143  0.47165549  1  0.619414  0  0.35434  0.431377  0  0.851832  0
H  H5  1  0.73412602  0.14860511  0.47379447  1  0.627652  0  0.354474  0.43203  0  0.849502  0
H  H6  1  0.27704753  0.64848216  0.02839408  1  0.619631  0  0.354091  0.430789  0  0.852409  0
H  H7  1  0.76582401  0.35133736  0.02624976  1  0.627018  0  0.354543  0.432077  0  0.84926  0
H  H8  1  0.46670359  0.62512251  0.78901222  1  0.074623  0  0.107795  0.113379  0  1.011879  0
H  H9  1  0.03313095  0.87501701  0.71108807  1  0.073464  0  0.107895  0.113774  0  1.011276  0
H  H10  1  0.98980960  0.22401988  0.14821996  1  0.045103  0  0.103884  0.107121  0  1.012887  0
H  H11  1  0.51021733  0.27596695  0.35183842  1  0.044227  0  0.103834  0.10724  0  1.012653  0
H  H12  1  0.52449718  0.23766969  0.84726664  1  0.097546  0  0.106649  0.112708  0  1.012586  0
H  H13  1  0.97563340  0.26241182  0.65269202  1  0.097653  0  0.106679  0.112734  0  1.012904  0
H  H14  1  0.49867010  0.77571307  0.14562017  1  0.062922  0  0.103535  0.106662  0  1.01348  0
H  H15  1  0.00141049  0.72432545  0.35434283  1  0.062285  0  0.103582  0.106603  0  1.013643  0
H  H16  1  0.30135286  0.78528257  0.63942202  1  0.077095  0  0.100073  0.148463  0  1.004093  0
H  H17  1  0.42979112  0.67442292  0.59383855  1  0.028233  0  0.093716  0.133183  0  0.990157  0
H  H18  1  0.29657417  0.63907491  0.67612378  1  0.033706  0  0.089051  0.12353  0  1.001984  0
H  H19  1  0.20344364  0.86083269  0.82389731  1  0.0338  0  0.089035  0.123441  0  1.002141  0
H  H20  1  0.07033345  0.82557145  0.90620592  1  0.028727  0  0.093604  0.133039  0  0.990474  0
H  H21  1  0.19845673  0.71463922  0.86059272  1  0.078513  0  0.100083  0.148399  0  1.004066  0
H  H22  1  0.80946441  0.09065509  0.21387013  1  0.028145  0  0.089448  0.124361  0  0.996245  0
H  H23  1  0.93722246  0.00767587  0.28584027  1  0.066875  0  0.094361  0.134475  0  1.019954  0
H  H24  1  0.79190921  0.12864947  0.31051183  1  0.049614  0  0.095563  0.138213  0  1.005543  0
H  H25  1  0.70802180  0.37140226  0.18951249  1  0.050164  0  0.095542  0.138203  0  1.005532  0
H  H26  1  0.56264799  0.49232801  0.21419310  1  0.067085  0  0.094398  0.134586  0  1.019671  0
H  H27  1  0.69053697  0.40940221  0.28614413  1  0.027351  0  0.089398  0.124365  0  0.996386  0
H  H28  1  0.70410053  0.10992623  0.78046891  1  0.027636  0  0.089148  0.124316  0  0.999131  0
H  H29  1  0.56381660  0.01158441  0.71963286  1  0.052786  0  0.092675  0.131384  0  1.015329  0
H  H30  1  0.69449128  0.13103564  0.68094984  1  0.067757  0  0.099408  0.147212  0  1.00141  0
H  H31  1  0.80554927  0.36891158  0.81897494  1  0.06918  0  0.099376  0.147149  0  1.001743  0
H  H32  1  0.93602905  0.48844757  0.78028790  1  0.053119  0  0.092647  0.131355  0  1.015388  0
H  H33  1  0.79598384  0.38998853  0.71946640  1  0.027359  0  0.089219  0.12442  0  0.999145  0
H  H34  1  0.29225424  0.86921933  0.30566390  1  0.064644  0  0.095074  0.137939  0  1.005457  0
H  H35  1  0.44316330  0.99139894  0.28234582  1  0.077009  0  0.094383  0.134801  0  1.01833  0
H  H36  1  0.31776546  0.90722168  0.20932792  1  0.054162  0  0.089194  0.123537  0  0.997342  0
H  H37  1  0.18235971  0.59280382  0.29060119  1  0.05453  0  0.089182  0.123473  0  0.997286  0
H  H38  1  0.05689616  0.50867039  0.21758212  1  0.076619  0  0.094665  0.135034  0  1.018488  0
H  H39  1  0.20777633  0.63084372  0.19426154  1  0.062575  0  0.095025  0.137969  0  1.005752  0
C  C40  1  0.71823617  0.86758255  0.39303985  1  1.575327  0  0.266144  0.645854  0  4.0872  0
C  C41  1  0.74945181  0.86591378  0.60538256  1  1.554035  0  0.271259  0.646005  0  4.085092  0
C  C42  1  0.25969683  0.12652328  0.60837621  1  1.579366  0  0.271146  0.649615  0  4.078566  0
C  C43  1  0.22310418  0.13282198  0.39383468  1  1.563951  0  0.266979  0.648733  0  4.085433  0
C  C44  1  0.78185233  0.63244339  0.10694405  1  1.575142  0  0.266245  0.645935  0  4.086154  0
C  C45  1  0.75054859  0.63405433  0.89464452  1  1.554853  0  0.271415  0.646065  0  4.085261  0
C  C46  1  0.24026338  0.37348370  0.89164509  1  1.579091  0  0.270918  0.649356  0  4.078289  0
C  C47  1  0.27685655  0.36716575  0.10618881  1  1.565543  0  0.267092  0.648365  0  4.086298  0
C  C48  1  0.74357926  0.80181435  0.67847325  1  -0.070841  0  -0.01151  -0.100236  0  3.942653  0
C  C49  1  0.75630845  0.69825467  0.82158539  1  -0.071827  0  -0.011601  -0.100668  0  3.943193  0
C  C50  1  0.57698417  0.73129246  0.69914204  1  -0.00825  0  0.002342  0.157082  0  3.94476  0
C  C51  1  0.92289782  0.76876244  0.80089969  1  -0.006359  0  0.002539  0.157657  0  3.945662  0
C  C52  1  0.59015629  0.68138568  0.77094827  1  0.039734  0  -0.082221  -0.153817  0  3.950741  0
C  C53  1  0.90969138  0.81870520  0.72911619  1  0.040193  0  -0.082325  -0.154494  0  3.951484  0
C  C54  1  0.22813612  0.19314012  0.31922644  1  -0.038834  0  -0.012825  -0.097136  0  3.941614  0
C  C55  1  0.27184534  0.30685913  0.18081353  1  -0.03599  0  -0.012976  -0.097177  0  3.941346  0
C  C56  1  0.07581477  0.17616029  0.26182613  1  -0.008782  0  0.001602  0.159365  0  3.943273  0
C  C57  1  0.42416566  0.32384071  0.23822170  1  -0.008888  0  0.001509  0.159397  0  3.942768  0
C  C58  1  0.10364995  0.23471965  0.19393149  1  0.004209  0  -0.086565  -0.161161  0  3.972542  0
C  C59  1  0.39631645  0.26530773  0.30612744  1  0.005618  0  -0.086435  -0.161319  0  3.971807  0
C  C60  1  0.26296092  0.18900091  0.68207142  1  -0.05093  0  -0.01317  -0.098799  0  3.939616  0
C  C61  1  0.23711183  0.31106209  0.81789855  1  -0.050874  0  -0.01303  -0.098822  0  3.938617  0
C  C62  1  0.42356257  0.17926257  0.73682390  1  0.013382  0  0.001788  0.160781  0  3.942786  0
C  C63  1  0.07651399  0.32079958  0.76313373  1  0.015596  0  0.00192  0.160993  0  3.943093  0
C  C64  1  0.40430131  0.24191989  0.80351377  1  -0.052175  0  -0.08535  -0.160517  0  3.962834  0
C  C65  1  0.09579623  0.25815646  0.69643786  1  -0.052036  0  -0.085318  -0.16056  0  3.963153  0
C  C66  1  0.72521950  0.80664085  0.31881574  1  -0.06845  0  -0.012649  -0.097026  0  3.939159  0
C  C67  1  0.77487628  0.69339750  0.18113391  1  -0.002514  0  -0.012751  -0.097409  0  3.940696  0
C  C68  1  0.57800999  0.82343370  0.25986970  1  0.049408  0  0.001539  0.159907  0  3.941821  0
C  C69  1  0.92205909  0.67660543  0.24008759  1  -0.016193  0  0.001563  0.159954  0  3.942264  0
C  C70  1  0.60887700  0.76518618  0.19240476  1  -0.039886  0  -0.086823  -0.16276  0  3.970329  0
C  C71  1  0.89124004  0.73484697  0.30754902  1  -0.038237  0  -0.086981  -0.162838  0  3.970437  0
C  C72  1  0.39146062  0.70603433  0.64964005  1  -0.042913  0  -0.238825  -0.410412  0  3.964867  0
C  C73  1  0.10848802  0.79393999  0.85039219  1  -0.045423  0  -0.238873  -0.410322  0  3.96508  0
C  C74  1  0.89374214  0.09686213  0.26830426  1  -0.044765  0  -0.240987  -0.410473  0  3.957667  0
C  C75  1  0.60619337  0.40315699  0.23172855  1  -0.044721  0  -0.240924  -0.410555  0  3.957793  0
C  C76  1  0.60654786  0.10447733  0.72906173  1  -0.045866  0  -0.240751  -0.41398  0  3.961173  0
C  C77  1  0.89348364  0.39552184  0.77087474  1  -0.050428  0  -0.240858  -0.414092  0  3.962  0
C  C78  1  0.39825208  0.90182968  0.26448922  1  -0.107116  0  -0.239858  -0.408693  0  3.956588  0
C  C79  1  0.10184257  0.59822125  0.23545254  1  -0.104857  0  -0.240034  -0.408807  0  3.957157  0
O  O80  1  0.88624765  0.88283857  0.42990660  1  -1.264818  0  -0.242787  -0.613427  0  2.357032  0
O  O81  1  0.58392477  0.87971340  0.56755086  1  -1.263235  0  -0.23109  -0.589281  0  2.385055  0
O  O82  1  0.42547384  0.08882034  0.58531398  1  -1.260365  0  -0.226476  -0.574537  0  2.376019  0
O  O83  1  0.05225596  0.10064544  0.41727184  1  -1.255647  0  -0.233703  -0.591268  0  2.364247  0
O  O84  1  0.08971605  0.11503949  0.57228024  1  -1.271369  0  -0.239689  -0.601813  0  2.352929  0
O  O85  1  0.39271858  0.11714233  0.42910321  1  -1.268878  0  -0.243406  -0.614406  0  2.351823  0
O  O86  1  0.54754730  0.90082051  0.41445732  1  -1.260906  0  -0.234276  -0.590595  0  2.363811  0
O  O87  1  0.92009115  0.90556187  0.58575497  1  -1.259812  0  -0.233749  -0.588338  0  2.354482  0
O  O88  1  0.23304875  0.92593074  0.49815659  1  -1.422884  0  -0.446804  -0.987982  0  2.207286  0
O  O89  1  0.73707085  0.07294952  0.49910766  1  -1.431414  0  -0.447097  -0.986471  0  2.200277  0
O  O90  1  0.95257432  0.59914207  0.08554321  1  -1.261159  0  -0.234194  -0.590384  0  2.362746  0
O  O91  1  0.57992431  0.59434019  0.91426385  1  -1.26047  0  -0.233841  -0.588478  0  2.354678  0
O  O92  1  0.41015922  0.38489307  0.92777915  1  -1.271488  0  -0.23948  -0.601707  0  2.3529  0
O  O93  1  0.10727748  0.38279886  0.07089194  1  -1.268122  0  -0.24358  -0.614464  0  2.352305  0
O  O94  1  0.07444898  0.41113893  0.91467329  1  -1.26043  0  -0.226253  -0.57416  0  2.376497  0
O  O95  1  0.44770818  0.39938897  0.08279831  1  -1.256706  0  -0.23364  -0.590932  0  2.364666  0
O  O96  1  0.61380201  0.61715727  0.07006573  1  -1.264636  0  -0.242784  -0.613552  0  2.355775  0
O  O97  1  0.91610643  0.62019932  0.93245011  1  -1.263403  0  -0.230816  -0.5891  0  2.385498  0
O  O98  1  0.26696990  0.57399994  0.00186048  1  -1.423396  0  -0.446542  -0.98733  0  2.20763  0
O  O99  1  0.76286722  0.42695858  0.00089544  1  -1.430949  0  -0.447304  -0.986599  0  2.199527  0
