# generated using pymatgen
data_CuH11C20SNO6
_symmetry_space_group_name_H-M   'P 1'
_cell_length_a   12.88819586
_cell_length_b   13.47768234
_cell_length_c   24.37333339
_cell_angle_alpha   90.00010839
_cell_angle_beta   89.99999710
_cell_angle_gamma   89.99993586
_symmetry_Int_Tables_number   1
_chemical_formula_structural   CuH11C20SNO6
_chemical_formula_sum   'Cu8 H88 C160 S8 N8 O48'
_cell_volume   4233.72136801
_cell_formula_units_Z   8
loop_
 _symmetry_equiv_pos_site_id
 _symmetry_equiv_pos_as_xyz
  1  'x, y, z'
loop_
 _atom_site_type_symbol
 _atom_site_label
 _atom_site_symmetry_multiplicity
 _atom_site_fract_x
 _atom_site_fract_y
 _atom_site_fract_z
 _atom_site_occupancy
 _atom_site_pbe_bader_charge
 _atom_site_pbe_bader_spin_density
 _atom_site_pbe_cm5_charge
 _atom_site_pbe_ddec_charge
 _atom_site_pbe_ddec_spin_density
 _atom_site_pbe_ddec_sum_bond_order
 _atom_site_pbe_magmom
Cu  Cu0  1  0.48592133  0.04892733  0.45605089  1  1.106498  0.578832  0.695966  0.863405  0.734523  2.284257  0.579
Cu  Cu1  1  0.01407533  0.54892616  0.54394804  1  1.106521  0.578827  0.695948  0.863381  0.734513  2.284272  0.579
Cu  Cu2  1  0.51407397  0.45107520  0.95605329  1  1.106462  0.578823  0.695988  0.863387  0.73451  2.284325  0.579
Cu  Cu3  1  0.98592100  0.95107256  0.04394811  1  1.106679  0.57883  0.695978  0.863328  0.73452  2.284289  0.579
Cu  Cu4  1  0.51407525  0.95107515  0.54394661  1  1.106455  0.578821  0.695992  0.863422  0.734507  2.284225  0.579
Cu  Cu5  1  0.98592359  0.45107483  0.45605233  1  1.106454  0.578827  0.695967  0.863408  0.734514  2.284216  0.579
Cu  Cu6  1  0.48592184  0.54892728  0.04394954  1  1.106566  0.578835  0.69596  0.863292  0.734523  2.284323  0.579
Cu  Cu7  1  0.01407249  0.04892473  0.95605227  1  1.106508  0.578821  0.695964  0.863321  0.734505  2.284382  0.579
H  H8  1  0.70825254  0.29657742  0.49687268  1  0.130207  0.000643  0.116954  0.131224  0.000483  0.986126  0.0
H  H9  1  0.79174803  0.79658323  0.50312732  1  0.130237  0.000643  0.116919  0.131139  0.000484  0.986165  0.0
H  H10  1  0.29174276  0.20342005  0.99687319  1  0.130279  0.000643  0.116897  0.131124  0.000484  0.986193  0.0
H  H11  1  0.20824984  0.70342425  0.00312673  1  0.130247  0.000643  0.116951  0.131212  0.000483  0.986108  0.0
H  H12  1  0.29174870  0.70342060  0.50312810  1  0.130198  0.000643  0.116962  0.131233  0.000483  0.986074  0.0
H  H13  1  0.20825554  0.20342369  0.49687346  1  0.130241  0.000643  0.116925  0.131194  0.000483  0.986112  0.0
H  H14  1  0.70825228  0.79657649  0.00312555  1  0.130271  0.000643  0.116886  0.131156  0.000483  0.986163  0.0
H  H15  1  0.79173976  0.29657971  0.99687446  1  0.130343  0.000643  0.116882  0.131119  0.000483  0.986251  0.0
H  H16  1  0.76894674  0.45343473  0.64743321  1  0.112954  0.000392  0.113376  0.126237  0.000318  1.016048  0.0
H  H17  1  0.73105365  0.95343490  0.35256655  1  0.112916  0.000392  0.11341  0.126319  0.000318  1.016056  0.0
H  H18  1  0.23105015  0.04656748  0.14743369  1  0.112897  0.000392  0.113412  0.126293  0.000318  1.016135  0.0
H  H19  1  0.26894263  0.54655893  0.85256976  1  0.112732  0.000392  0.113445  0.126362  0.000318  1.016032  0.0
H  H20  1  0.23105683  0.54656478  0.35256839  1  0.112737  0.000392  0.113412  0.126339  0.000318  1.016092  0.0
H  H21  1  0.26894138  0.04655941  0.64743178  1  0.112727  0.000392  0.113407  0.126301  0.000318  1.016021  0.0
H  H22  1  0.76894334  0.95343574  0.85256668  1  0.11274  0.000392  0.113387  0.12626  0.000318  1.016062  0.0
H  H23  1  0.73105240  0.45343167  0.14743595  1  0.112888  0.000392  0.113414  0.126329  0.000318  1.016119  0.0
H  H24  1  0.55082325  0.21173751  0.64577021  1  0.120943  0.000225  0.114121  0.126595  0.000142  1.004983  0.0
H  H25  1  0.94918052  0.71174041  0.35422930  1  0.120934  0.000225  0.114187  0.126716  0.000142  1.004898  0.0
H  H26  1  0.44917906  0.28825877  0.14577011  1  0.120945  0.000225  0.114133  0.126624  0.000142  1.004906  0.0
H  H27  1  0.05082430  0.78826011  0.85422661  1  0.120924  0.000225  0.11417  0.126747  0.000142  1.004951  0.0
H  H28  1  0.44917721  0.78826126  0.35422893  1  0.120931  0.000225  0.114139  0.126672  0.000142  1.004889  0.0
H  H29  1  0.05082383  0.28826280  0.64577148  1  0.120909  0.000225  0.114153  0.126661  0.000142  1.00501  0.0
H  H30  1  0.55082140  0.71173852  0.85422698  1  0.12088  0.000225  0.114167  0.126724  0.000142  1.004916  0.0
H  H31  1  0.94918082  0.21173940  0.14576884  1  0.120895  0.000225  0.114184  0.126713  0.000142  1.004938  0.0
H  H32  1  0.73669484  0.26292095  0.88458205  1  0.124008  1e-06  0.116682  0.122716  -0.0  0.975124  0.0
H  H33  1  0.76330654  0.76292101  0.11541833  1  0.124022  1e-06  0.116709  0.122738  -0.0  0.97509  0.0
H  H34  1  0.26330822  0.23708356  0.38457985  1  0.124093  1e-06  0.116721  0.122781  -0.0  0.975134  0.0
H  H35  1  0.23669365  0.73707943  0.61541928  1  0.124065  1e-06  0.116727  0.122779  -0.0  0.97507  0.0
H  H36  1  0.26330717  0.73707930  0.11541997  1  0.124069  1e-06  0.116703  0.122741  -0.0  0.975158  0.0
H  H37  1  0.23669237  0.23708220  0.88458040  1  0.1241  1e-06  0.116695  0.122739  -0.0  0.975168  0.0
H  H38  1  0.73669379  0.76292188  0.61541683  1  0.123973  1e-06  0.116694  0.122716  -0.0  0.975089  0.0
H  H39  1  0.76330759  0.26292008  0.38458109  1  0.124046  1e-06  0.116721  0.122751  -0.0  0.975107  0.0
H  H40  1  0.83411120  0.11500223  0.85087218  1  0.08841  5.5e-05  0.103211  0.117923  7e-05  1.02505  0.0
H  H41  1  0.66588958  0.61500252  0.14912846  1  0.088421  5.5e-05  0.103211  0.117939  6.9e-05  1.025042  0.0
H  H42  1  0.16588954  0.38499994  0.35087055  1  0.088426  5.5e-05  0.103215  0.117927  6.9e-05  1.024995  0.0
H  H43  1  0.33410906  0.88499730  0.64912915  1  0.088441  5.5e-05  0.103245  0.117969  7e-05  1.024942  0.0
H  H44  1  0.16588926  0.88499728  0.14912943  1  0.088442  5.5e-05  0.103228  0.117972  6.9e-05  1.024968  0.0
H  H45  1  0.33411011  0.38499922  0.85087068  1  0.08844  5.5e-05  0.103229  0.117955  7e-05  1.025014  0.0
H  H46  1  0.83411248  0.61500328  0.64912695  1  0.088363  5.5e-05  0.103206  0.117892  6.9e-05  1.025022  0.0
H  H47  1  0.66588986  0.11500221  0.35087122  1  0.088433  5.5e-05  0.103232  0.117952  6.9e-05  1.025021  0.0
H  H48  1  0.82933477  0.07553236  0.74979612  1  0.091117  -1e-06  0.097094  0.093904  -4e-06  1.044042  0.0
H  H49  1  0.67066916  0.57553299  0.25020489  1  0.09113  -1e-06  0.097107  0.093884  -4e-06  1.044038  0.0
H  H50  1  0.17066444  0.42446723  0.24979371  1  0.091096  -1e-06  0.097104  0.093939  -4e-06  1.044035  0.0
H  H51  1  0.32933024  0.92446791  0.75020521  1  0.091122  -1e-06  0.097089  0.093859  -4e-06  1.043999  0.0
H  H52  1  0.17066725  0.92446789  0.25020508  1  0.091099  -1e-06  0.097131  0.093952  -4e-06  1.044047  0.0
H  H53  1  0.32933441  0.42446800  0.74979466  1  0.091081  -1e-06  0.097133  0.093981  -4e-06  1.044003  0.0
H  H54  1  0.82933526  0.57553450  0.75020297  1  0.089656  -1e-06  0.097113  0.093963  -4e-06  1.043981  0.0
H  H55  1  0.67066635  0.07553382  0.24979516  1  0.091128  -1e-06  0.097115  0.093929  -4e-06  1.043987  0.0
H  H56  1  0.73811325  0.18244980  0.68572246  1  0.128546  -7e-06  0.107036  0.123769  -1.4e-05  1.018909  0.0
H  H57  1  0.76189056  0.68245129  0.31427784  1  0.128559  -7e-06  0.107029  0.123737  -1.4e-05  1.018909  0.0
H  H58  1  0.26188596  0.31754661  0.18572076  1  0.128495  -7e-06  0.107028  0.123782  -1.4e-05  1.018934  0.0
H  H59  1  0.23811194  0.81754687  0.81427846  1  0.128583  -7e-06  0.107046  0.123805  -1.4e-05  1.018937  0.0
H  H60  1  0.26188644  0.81754897  0.31427914  1  0.128543  -7e-06  0.10703  0.123792  -1.4e-05  1.018936  0.0
H  H61  1  0.23811379  0.31754822  0.68572131  1  0.128559  -7e-06  0.107033  0.123804  -1.4e-05  1.018905  0.0
H  H62  1  0.73811373  0.68245141  0.81427715  1  0.128541  -7e-06  0.107037  0.12373  -1.4e-05  1.018881  0.0
H  H63  1  0.76188775  0.18245264  0.18572150  1  0.128564  -7e-06  0.107042  0.123816  -1.4e-05  1.018937  0.0
H  H64  1  0.52361217  0.46004504  0.64087564  1  0.100117  5e-06  0.109241  0.119661  -8e-06  1.007357  0.0
H  H65  1  0.97639288  0.96004349  0.35912248  1  0.100172  5e-06  0.109261  0.119706  -8e-06  1.007396  0.0
H  H66  1  0.47638860  0.03995195  0.14087611  1  0.100149  5e-06  0.109263  0.119696  -8e-06  1.007332  0.0
H  H67  1  0.02361040  0.53995260  0.85912323  1  0.100156  5e-06  0.10926  0.119684  -8e-06  1.007318  0.0
H  H68  1  0.47639063  0.53995150  0.35912432  1  0.100132  5e-06  0.109281  0.119692  -8e-06  1.007375  0.0
H  H69  1  0.02360992  0.03995083  0.64087707  1  0.100223  5e-06  0.109276  0.119756  -8e-06  1.007328  0.0
H  H70  1  0.52361187  0.96004384  0.85912344  1  0.100142  5e-06  0.109243  0.119657  -8e-06  1.007356  0.0
H  H71  1  0.97638930  0.46004691  0.14087632  1  0.100148  5e-06  0.109262  0.119719  -8e-06  1.007318  0.0
H  H72  1  0.41292786  0.60161844  0.66420778  1  0.078926  1e-06  0.109287  0.111767  1e-06  0.987846  0.0
H  H73  1  0.08707573  0.10161518  0.33579081  1  0.078961  1e-06  0.109322  0.111822  1e-06  0.98786  0.0
H  H74  1  0.58707233  0.89837920  0.16420820  1  0.078944  1e-06  0.109314  0.111805  1e-06  0.98783  0.0
H  H75  1  0.91292424  0.39838248  0.83579109  1  0.079017  1e-06  0.109351  0.111866  1e-06  0.987815  0.0
H  H76  1  0.58707572  0.39838032  0.33579178  1  0.079025  1e-06  0.109323  0.111842  1e-06  0.987806  0.0
H  H77  1  0.91292784  0.89837765  0.66420916  1  0.078968  1e-06  0.109307  0.111808  1e-06  0.987833  0.0
H  H78  1  0.41292891  0.10161734  0.83579258  1  0.078935  1e-06  0.10932  0.111844  1e-06  0.987815  0.0
H  H79  1  0.08707234  0.60161851  0.16420805  1  0.078908  1e-06  0.109332  0.111838  1e-06  0.987809  0.0
H  H80  1  0.39434570  0.65765867  0.76151251  1  0.100913  -1e-06  0.095555  0.097145  -5e-06  1.039259  0.0
H  H81  1  0.10565394  0.15765876  0.23848695  1  0.100907  -1e-06  0.095554  0.09714  -5e-06  1.039248  0.0
H  H82  1  0.60565448  0.84234079  0.26151247  1  0.100955  -1e-06  0.095541  0.097138  -5e-06  1.039249  0.0
H  H83  1  0.89434682  0.34233931  0.73848635  1  0.100845  -1e-06  0.095551  0.097129  -5e-06  1.039336  0.0
H  H84  1  0.60565477  0.34234158  0.23848622  1  0.10088  -1e-06  0.095543  0.097145  -5e-06  1.039238  0.0
H  H85  1  0.89434498  0.84234075  0.76151465  1  0.101003  -1e-06  0.095509  0.09711  -5e-06  1.039313  0.0
H  H86  1  0.39434909  0.15766169  0.73848914  1  0.100864  -1e-06  0.095582  0.097174  -5e-06  1.039251  0.0
H  H87  1  0.10565520  0.65765872  0.26151320  1  0.100951  -1e-06  0.095539  0.097134  -5e-06  1.039246  0.0
H  H88  1  0.48858237  0.56379023  0.83545967  1  0.126416  -2.6e-05  0.10869  0.115286  -2.9e-05  1.021561  0.0
H  H89  1  0.01141971  0.06379017  0.16453969  1  0.126348  -2.6e-05  0.108697  0.115308  -2.9e-05  1.021609  0.0
H  H90  1  0.51142168  0.93621245  0.33545973  1  0.126398  -2.6e-05  0.108646  0.115244  -2.9e-05  1.0216  0.0
H  H91  1  0.98857951  0.43620913  0.66453878  1  0.126334  -2.6e-05  0.108697  0.11531  -2.9e-05  1.021551  0.0
H  H92  1  0.51141965  0.43621150  0.16454070  1  0.126404  -2.6e-05  0.108671  0.115295  -2.9e-05  1.021589  0.0
H  H93  1  0.98857766  0.93621304  0.83546109  1  0.126355  -2.6e-05  0.108647  0.115273  -2.9e-05  1.021608  0.0
H  H94  1  0.48857723  0.06379077  0.66454023  1  0.126378  -2.6e-05  0.108688  0.115274  -2.9e-05  1.021565  0.0
H  H95  1  0.01142329  0.56378741  0.33545954  1  0.126276  -2.6e-05  0.108662  0.115276  -2.9e-05  1.021598  0.0
C  C96  1  0.57534806  0.15931213  0.53967349  1  1.57387  -0.001687  0.217335  0.578718  -0.002075  4.166621  -0.004
C  C97  1  0.92465112  0.65931394  0.46032760  1  1.573898  -0.001686  0.217379  0.578785  -0.002075  4.166669  -0.004
C  C98  1  0.42464962  0.34068823  0.03967509  1  1.573873  -0.001687  0.217314  0.578768  -0.002074  4.166848  -0.004
C  C99  1  0.07535058  0.84068917  0.96032579  1  1.574161  -0.001685  0.217268  0.578655  -0.002074  4.166769  -0.004
C  C100  1  0.42465008  0.84068738  0.46032688  1  1.573876  -0.001686  0.217431  0.578958  -0.002074  4.166631  -0.004
C  C101  1  0.07535012  0.34068854  0.53967441  1  1.57388  -0.001687  0.217284  0.578763  -0.002074  4.166818  -0.004
C  C102  1  0.57535085  0.65930831  0.96032487  1  1.573901  -0.001686  0.217306  0.578745  -0.002074  4.166891  -0.004
C  C103  1  0.92464755  0.15931034  0.03967458  1  1.573873  -0.001687  0.2173  0.578816  -0.002074  4.166931  -0.004
C  C104  1  0.62330895  0.24618984  0.56806112  1  -0.009449  0.016786  -0.005076  0.003431  0.011694  3.957823  0.013
C  C105  1  0.87669401  0.74619236  0.43193925  1  -0.009853  0.016788  -0.005095  0.00329  0.011694  3.957849  0.013
C  C106  1  0.37669105  0.25380839  0.06805976  1  -0.009922  0.016786  -0.005095  0.003229  0.011693  3.957867  0.013
C  C107  1  0.12330692  0.75381066  0.93193816  1  -0.009284  0.016786  -0.005005  0.003503  0.011693  3.957726  0.013
C  C108  1  0.37669307  0.75380966  0.43193967  1  -0.00936  0.016785  -0.005091  0.003277  0.011693  3.957924  0.013
C  C109  1  0.12330878  0.25381012  0.56806072  1  -0.009943  0.016786  -0.005066  0.003321  0.011692  3.957948  0.013
C  C110  1  0.62330709  0.74618741  0.93193774  1  -0.009796  0.016787  -0.005012  0.00344  0.011694  3.957854  0.013
C  C111  1  0.87668889  0.24618959  0.06806016  1  -0.009925  0.016786  -0.005114  0.00321  0.011693  3.958007  0.013
C  C112  1  0.69258626  0.30788731  0.54029227  1  0.041003  0.002483  -0.063361  -0.093666  0.001562  3.8841  0.002
C  C113  1  0.80741508  0.80789148  0.45970733  1  0.041454  0.002483  -0.063277  -0.093481  0.001562  3.884018  0.002
C  C114  1  0.30741142  0.19211008  0.04029413  1  0.041448  0.002483  -0.063272  -0.093463  0.001563  3.884226  0.002
C  C115  1  0.19258353  0.69211163  0.95970741  1  0.040838  0.002484  -0.063418  -0.093753  0.001562  3.883999  0.002
C  C116  1  0.30741499  0.69211071  0.45970810  1  0.040985  0.002484  -0.063344  -0.09363  0.001562  3.883992  0.002
C  C117  1  0.19258539  0.19211100  0.54029345  1  0.041523  0.002483  -0.063304  -0.093545  0.001562  3.884108  0.002
C  C118  1  0.69258284  0.80788794  0.95970624  1  0.041375  0.002483  -0.063312  -0.093581  0.001562  3.883975  0.002
C  C119  1  0.80741073  0.30788862  0.04029460  1  0.04151  0.002484  -0.06323  -0.093449  0.001563  3.884235  0.002
C  C120  1  0.74599322  0.38178283  0.56907869  1  0.013398  0.01697  -0.010484  -0.008404  0.011871  3.963664  0.013
C  C121  1  0.75400725  0.88178547  0.43092181  1  0.013343  0.016969  -0.010469  -0.008399  0.011871  3.963685  0.013
C  C122  1  0.25400290  0.11821764  0.06907760  1  0.013395  0.016969  -0.01048  -0.008372  0.011871  3.963771  0.013
C  C123  1  0.24599136  0.61821606  0.93092346  1  0.013383  0.016969  -0.010498  -0.008341  0.01187  3.96361  0.013
C  C124  1  0.25400880  0.61821594  0.43092373  1  0.013332  0.016969  -0.010472  -0.008335  0.011871  3.963555  0.013
C  C125  1  0.24599244  0.11821553  0.56907815  1  0.013391  0.016968  -0.010476  -0.008401  0.01187  3.963681  0.013
C  C126  1  0.74598981  0.88178336  0.93092154  1  0.01339  0.016969  -0.010467  -0.008416  0.011871  3.963697  0.013
C  C127  1  0.75400446  0.38178345  0.06907938  1  0.013361  0.016969  -0.010476  -0.008309  0.011871  3.963768  0.013
C  C128  1  0.72715272  0.39605245  0.62506817  1  -0.101922  0.00146  -0.07055  -0.15896  0.000937  3.904698  0.001
C  C129  1  0.77284774  0.89605636  0.37493112  1  -0.102004  0.001459  -0.070628  -0.159073  0.000937  3.904679  0.001
C  C130  1  0.27284495  0.10394375  0.12506912  1  -0.101899  0.00146  -0.070604  -0.159073  0.000937  3.904655  0.001
C  C131  1  0.22715087  0.60394200  0.87493275  1  -0.101673  0.001459  -0.070583  -0.159069  0.000937  3.904725  0.001
C  C132  1  0.27285008  0.60394113  0.37493262  1  -0.101701  0.001459  -0.070586  -0.159112  0.000937  3.904615  0.001
C  C133  1  0.22714884  0.10394389  0.62506843  1  -0.101769  0.00146  -0.070609  -0.159047  0.000938  3.904632  0.001
C  C134  1  0.72715086  0.89605501  0.87493167  1  -0.101673  0.001459  -0.070583  -0.158978  0.000937  3.90462  0.001
C  C135  1  0.77284649  0.39605454  0.12507049  1  -0.101911  0.00146  -0.070631  -0.159168  0.000938  3.904747  0.001
C  C136  1  0.65537234  0.33593686  0.65201357  1  0.320236  0.001451  0.090227  0.163898  0.000861  4.053441  0.001
C  C137  1  0.84463129  0.83593911  0.34798730  1  0.319803  0.001451  0.090294  0.164027  0.00086  4.05344  0.001
C  C138  1  0.34463076  0.16406166  0.15201212  1  0.320237  0.001451  0.090305  0.16405  0.00086  4.053436  0.001
C  C139  1  0.15537198  0.66406138  0.84798735  1  0.319965  0.001452  0.090268  0.163924  0.000861  4.053634  0.001
C  C140  1  0.34463278  0.66406265  0.34798885  1  0.320406  0.001451  0.090302  0.164084  0.00086  4.053432  0.001
C  C141  1  0.15536995  0.16406188  0.65201307  1  0.319823  0.001451  0.090275  0.164024  0.000861  4.053393  0.001
C  C142  1  0.65537049  0.83593562  0.84798661  1  0.31954  0.001452  0.090246  0.164011  0.000861  4.053393  0.001
C  C143  1  0.84463159  0.33593738  0.15201302  1  0.319814  0.001451  0.090216  0.163996  0.00086  4.05348  0.001
C  C144  1  0.60400988  0.26055666  0.62401449  1  -0.01834  0.000971  -0.068017  -0.154964  0.000346  3.903897  0.001
C  C145  1  0.89599462  0.76056045  0.37598548  1  -0.018392  0.000971  -0.068129  -0.155095  0.000346  3.904026  0.001
C  C146  1  0.39599244  0.23943953  0.12401557  1  -0.018414  0.000972  -0.068058  -0.154941  0.000347  3.903868  0.001
C  C147  1  0.10400943  0.73944163  0.87598315  1  -0.018354  0.000971  -0.068099  -0.155171  0.000347  3.904153  0.001
C  C148  1  0.39599291  0.73944062  0.37598547  1  -0.018461  0.000971  -0.068075  -0.155078  0.000347  3.904042  0.001
C  C149  1  0.10400896  0.23944277  0.62401571  1  -0.018282  0.000971  -0.068069  -0.15501  0.000347  3.903936  0.001
C  C150  1  0.60400880  0.76055627  0.87598316  1  -0.018335  0.000971  -0.068103  -0.155156  0.000347  3.904048  0.001
C  C151  1  0.89599336  0.26055788  0.12401558  1  -0.0184  0.000971  -0.068096  -0.155075  0.000347  3.904002  0.001
C  C152  1  0.83039135  0.43922436  0.54137549  1  1.545593  -0.000503  0.214927  0.574192  -0.000809  4.167348  -0.004
C  C153  1  0.66960596  0.93922719  0.45862097  1  1.545618  -0.000503  0.21497  0.574171  -0.000809  4.167228  -0.004
C  C154  1  0.16960244  0.06077304  0.04137886  1  1.545567  -0.000502  0.214979  0.574131  -0.000809  4.167317  -0.004
C  C155  1  0.33039110  0.56077666  0.95862665  1  1.545599  -0.000502  0.214859  0.574002  -0.000809  4.167434  -0.004
C  C156  1  0.16960679  0.56077441  0.45862160  1  1.545225  -0.000501  0.215004  0.574199  -0.00081  4.16726  -0.004
C  C157  1  0.33039141  0.06077529  0.54137530  1  1.545599  -0.000502  0.214932  0.574168  -0.000809  4.167406  -0.004
C  C158  1  0.83039026  0.93922202  0.95862480  1  1.545612  -0.000503  0.214951  0.574138  -0.00081  4.167467  -0.004
C  C159  1  0.66960394  0.43922730  0.04138028  1  1.54592  -0.000503  0.214966  0.574094  -0.000809  4.167481  -0.004
C  C160  1  0.68556123  0.28815282  0.74711051  1  0.337116  -0.000109  0.106427  0.177681  -0.000122  4.01986  0.0
C  C161  1  0.81444013  0.78815330  0.25289031  1  0.337086  -0.000109  0.106421  0.177739  -0.000122  4.019779  0.0
C  C162  1  0.31443875  0.21184751  0.24710870  1  0.337136  -0.000109  0.106449  0.177792  -0.000122  4.019849  0.0
C  C163  1  0.18556160  0.71184464  0.75289082  1  0.337236  -0.000109  0.106424  0.177666  -0.000122  4.020067  0.0
C  C164  1  0.31443769  0.71184595  0.25289151  1  0.337159  -0.000109  0.106438  0.177745  -0.000122  4.019931  0.0
C  C165  1  0.18556033  0.21184769  0.74710924  1  0.337082  -0.000109  0.106446  0.177843  -0.000123  4.019817  0.0
C  C166  1  0.68556326  0.78815423  0.75288922  1  0.337396  -0.000109  0.106465  0.177806  -0.000122  4.019977  0.0
C  C167  1  0.81444120  0.28815264  0.24710996  1  0.3372  -0.000109  0.106413  0.177769  -0.000122  4.019876  0.0
C  C168  1  0.68614236  0.30665833  0.80406867  1  -0.247343  0.000138  -0.029304  -0.185632  6.5e-05  3.984791  0.0
C  C169  1  0.81385975  0.80665639  0.19593135  1  -0.247354  0.000137  -0.029305  -0.185727  6.5e-05  3.98478  0.0
C  C170  1  0.31385994  0.19334294  0.30406684  1  -0.247412  0.000137  -0.029312  -0.185697  6.5e-05  3.984817  0.0
C  C171  1  0.18614199  0.69333988  0.69593184  1  -0.247264  0.000138  -0.029362  -0.18584  6.5e-05  3.984919  0.0
C  C172  1  0.31385733  0.69334118  0.19593335  1  -0.247396  0.000138  -0.029409  -0.185825  6.5e-05  3.98493  0.0
C  C173  1  0.18614072  0.19334312  0.80406820  1  -0.247355  0.000138  -0.029341  -0.185798  6.5e-05  3.984877  0.0
C  C174  1  0.68614363  0.80665880  0.69593025  1  -0.247341  0.000138  -0.029363  -0.185824  6.5e-05  3.984972  0.0
C  C175  1  0.81386003  0.30665740  0.30406812  1  -0.247351  0.000137  -0.029297  -0.185676  6.5e-05  3.984785  0.0
C  C176  1  0.56128539  0.46377661  0.77884569  1  -0.16295  0.00017  -0.028884  -0.180772  0.000109  3.975516  0.0
C  C177  1  0.93871499  0.96377537  0.22115326  1  -0.1629  0.00017  -0.02892  -0.180876  0.000109  3.975504  0.0
C  C178  1  0.43871614  0.03622457  0.27884575  1  -0.162877  0.00017  -0.028921  -0.180748  0.000109  3.975434  0.0
C  C179  1  0.06128364  0.53622322  0.72115318  1  -0.162886  0.00017  -0.028964  -0.180937  0.000109  3.975582  0.0
C  C180  1  0.43871508  0.53622587  0.22115509  1  -0.162895  0.000169  -0.028894  -0.180761  0.000109  3.975336  0.0
C  C181  1  0.06128159  0.03622414  0.77884753  1  -0.162919  0.00017  -0.028885  -0.180782  0.000109  3.975409  0.0
C  C182  1  0.56128510  0.96377568  0.72115340  1  -0.162891  0.00017  -0.028938  -0.180846  0.000109  3.97549  0.0
C  C183  1  0.93871761  0.46377481  0.27884596  1  -0.162873  0.000169  -0.028873  -0.180716  0.000109  3.975439  0.0
C  C184  1  0.57380850  0.43166045  0.72419661  1  0.355935  -4.2e-05  0.108633  0.182175  -4.4e-05  4.015067  0.0
C  C185  1  0.92619425  0.93166015  0.27580231  1  0.355933  -4.2e-05  0.108571  0.182285  -4.4e-05  4.015073  0.0
C  C186  1  0.42619381  0.06833831  0.22419669  1  0.355951  -4.2e-05  0.108574  0.182135  -4.4e-05  4.015155  0.0
C  C187  1  0.07380748  0.56833713  0.77580267  1  0.355922  -4.2e-05  0.10861  0.18215  -4.4e-05  4.015247  0.0
C  C188  1  0.42619275  0.56833905  0.27580377  1  0.355963  -4.2e-05  0.108569  0.182102  -4.4e-05  4.015111  0.0
C  C189  1  0.07380544  0.06834084  0.72419765  1  0.356018  -4.2e-05  0.108551  0.182249  -4.4e-05  4.014981  0.0
C  C190  1  0.57380665  0.93166046  0.77580286  1  0.355913  -4.2e-05  0.108591  0.182161  -4.4e-05  4.015069  0.0
C  C191  1  0.92619609  0.43166015  0.22419688  1  0.355963  -4.2e-05  0.108621  0.182305  -4.4e-05  4.015013  0.0
C  C192  1  0.73825598  0.24428117  0.84102337  1  0.041717  -0.000101  -0.074578  -0.060818  -0.000111  3.975109  0.0
C  C193  1  0.76174543  0.74428064  0.15897699  1  0.041728  -0.000101  -0.0746  -0.06079  -0.000111  3.975123  0.0
C  C194  1  0.26174555  0.25572245  0.34102078  1  0.042026  -0.000101  -0.074606  -0.060859  -0.000111  3.975237  0.0
C  C195  1  0.23825475  0.75572069  0.65897837  1  0.041905  -0.000101  -0.074617  -0.060838  -0.000111  3.975106  0.0
C  C196  1  0.26174527  0.75571908  0.15897783  1  0.041696  -0.000101  -0.074568  -0.060795  -0.000111  3.975166  0.0
C  C197  1  0.23825426  0.25572109  0.84102133  1  0.041963  -0.000101  -0.074594  -0.060806  -0.000111  3.975301  0.0
C  C198  1  0.73825570  0.74428077  0.65897590  1  0.041896  -0.000101  -0.074611  -0.060752  -0.000111  3.975147  0.0
C  C199  1  0.76174571  0.24427956  0.34102282  1  0.041742  -0.000101  -0.074613  -0.06084  -0.000111  3.975088  0.0
C  C200  1  0.79162269  0.16174392  0.82213465  1  -0.041371  0.00037  -0.095845  -0.102174  0.000241  3.988746  0.0
C  C201  1  0.70837804  0.66174278  0.17786563  1  -0.04136  0.00037  -0.095877  -0.102317  0.000241  3.988757  0.0
C  C202  1  0.20837961  0.33825815  0.32213338  1  -0.041635  0.00037  -0.095906  -0.102247  0.000241  3.988728  0.0
C  C203  1  0.29161904  0.83825566  0.67786668  1  -0.041615  0.00037  -0.095894  -0.102253  0.000241  3.988743  0.0
C  C204  1  0.20837933  0.83825782  0.17786655  1  -0.041297  0.000369  -0.095899  -0.102256  0.000241  3.988766  0.0
C  C205  1  0.29162010  0.33825822  0.82213351  1  -0.041612  0.00037  -0.095919  -0.102295  0.000241  3.988721  0.0
C  C206  1  0.79162318  0.66174358  0.67786371  1  -0.041586  0.00037  -0.095789  -0.102112  0.000241  3.988577  0.0
C  C207  1  0.70837988  0.16174237  0.32213369  1  -0.041424  0.00037  -0.095904  -0.102246  0.000241  3.988813  0.0
C  C208  1  0.78996925  0.14098951  0.76578740  1  -0.07918  -0.000144  -0.085137  -0.046603  -0.000167  3.999916  0.0
C  C209  1  0.71003228  0.64099004  0.23421367  1  -0.079183  -0.000144  -0.08511  -0.046442  -0.000166  3.99981  0.0
C  C210  1  0.21003073  0.35901236  0.26578492  1  -0.079692  -0.000144  -0.085106  -0.046581  -0.000166  3.999811  0.0
C  C211  1  0.28996713  0.85901007  0.73421434  1  -0.079368  -0.000144  -0.085122  -0.046514  -0.000167  3.99975  0.0
C  C212  1  0.21003199  0.85901074  0.23421420  1  -0.079688  -0.000144  -0.085182  -0.046672  -0.000166  3.999956  0.0
C  C213  1  0.28996819  0.35901169  0.76578547  1  -0.079707  -0.000144  -0.085127  -0.046596  -0.000166  3.999829  0.0
C  C214  1  0.78996974  0.64099234  0.73421258  1  -0.077521  -0.000144  -0.085156  -0.046642  -0.000167  3.999934  0.0
C  C215  1  0.71003257  0.14098944  0.26578603  1  -0.079328  -0.000144  -0.08517  -0.046628  -0.000166  3.999844  0.0
C  C216  1  0.73824359  0.20219881  0.72897794  1  -0.00315  0.000235  -0.098599  -0.187609  0.000145  3.967268  0.0
C  C217  1  0.76175632  0.70220016  0.27102238  1  -0.003194  0.000235  -0.098577  -0.187591  0.000145  3.967248  0.0
C  C218  1  0.26175406  0.29779848  0.22897663  1  -0.002689  0.000235  -0.098585  -0.187627  0.000145  3.967378  0.0
C  C219  1  0.23824386  0.79779785  0.77102298  1  -0.003055  0.000235  -0.098542  -0.187563  0.000145  3.967286  0.0
C  C220  1  0.26175532  0.79779921  0.27102366  1  -0.00275  0.000235  -0.098512  -0.187529  0.000145  3.967241  0.0
C  C221  1  0.23824570  0.29780009  0.72897677  1  -0.002729  0.000235  -0.098553  -0.187613  0.000145  3.967279  0.0
C  C222  1  0.73824640  0.70220103  0.77102087  1  -0.003437  0.000235  -0.098613  -0.187614  0.000145  3.967493  0.0
C  C223  1  0.76175661  0.20220091  0.22897698  1  -0.003155  0.000235  -0.098531  -0.187594  0.000145  3.967201  0.0
C  C224  1  0.51783399  0.48375320  0.68341682  1  -0.027963  0.000165  -0.09347  -0.176861  9.5e-05  3.955586  0.0
C  C225  1  0.98216947  0.98375075  0.31658174  1  -0.027949  0.000165  -0.093496  -0.176945  9.5e-05  3.955636  0.0
C  C226  1  0.48216677  0.01624617  0.18341726  1  -0.027946  0.000164  -0.093437  -0.176831  9.5e-05  3.95562  0.0
C  C227  1  0.01783303  0.51624445  0.81658164  1  -0.027915  0.000165  -0.093411  -0.176753  9.5e-05  3.955666  0.0
C  C228  1  0.48216725  0.51624557  0.31658355  1  -0.027958  0.000165  -0.093425  -0.176735  9.5e-05  3.955557  0.0
C  C229  1  0.01783100  0.01624579  0.68341822  1  -0.027979  0.000165  -0.093483  -0.176994  9.5e-05  3.955637  0.0
C  C230  1  0.51783447  0.98375186  0.81658270  1  -0.027966  0.000165  -0.093417  -0.176738  9.5e-05  3.955503  0.0
C  C231  1  0.98216744  0.48375432  0.18341709  1  -0.027971  0.000165  -0.093441  -0.176933  9.5e-05  3.955676  0.0
C  C232  1  0.45533257  0.56396067  0.69676670  1  0.03007  -0.000101  -0.075242  -0.029918  -0.000113  3.982015  0.0
C  C233  1  0.04467028  0.06395956  0.30323225  1  0.030053  -0.000101  -0.075266  -0.029997  -0.000113  3.981959  0.0
C  C234  1  0.54466917  0.93603709  0.19676676  1  0.03003  -0.000101  -0.075277  -0.029941  -0.000113  3.981969  0.0
C  C235  1  0.95533202  0.43603725  0.80323257  1  0.029983  -0.000101  -0.075302  -0.03004  -0.000113  3.982022  0.0
C  C236  1  0.54466945  0.43603810  0.30323285  1  0.029934  -0.000101  -0.075291  -0.030039  -0.000113  3.982075  0.0
C  C237  1  0.95533019  0.93603995  0.69676812  1  0.030054  -0.000101  -0.075283  -0.029968  -0.000113  3.981964  0.0
C  C238  1  0.45533363  0.06396168  0.80323361  1  0.030088  -0.000101  -0.075251  -0.030004  -0.000113  3.981948  0.0
C  C239  1  0.04466922  0.56396152  0.19676739  1  0.030065  -0.000101  -0.075272  -0.029932  -0.000113  3.982045  0.0
C  C240  1  0.44396478  0.59485406  0.75139117  1  -0.117997  0.000191  -0.100618  -0.108631  0.000118  4.008957  0.0
C  C241  1  0.05603570  0.09485350  0.24860741  1  -0.117992  0.000191  -0.100547  -0.108501  0.000117  4.008961  0.0
C  C242  1  0.55603695  0.90514611  0.25139201  1  -0.118079  0.000191  -0.100581  -0.108619  0.000117  4.009023  0.0
C  C243  1  0.94396428  0.40514387  0.74860687  1  -0.117987  0.000191  -0.100565  -0.108576  0.000118  4.009047  0.0
C  C244  1  0.55603646  0.40514619  0.24860838  1  -0.117996  0.000191  -0.100575  -0.108605  0.000117  4.00905  0.0
C  C245  1  0.94395933  0.90514453  0.75139297  1  -0.118188  0.000191  -0.10046  -0.108462  0.000117  4.008829  0.0
C  C246  1  0.44396662  0.09485488  0.74860836  1  -0.117947  0.000191  -0.100671  -0.108687  0.000118  4.009092  0.0
C  C247  1  0.05603774  0.59485342  0.25139186  1  -0.118096  0.000191  -0.100604  -0.108649  0.000117  4.009057  0.0
C  C248  1  0.49630340  0.54365613  0.79229650  1  -0.05027  -0.000134  -0.082149  -0.077428  -0.000146  3.990905  0.0
C  C249  1  0.00369792  0.04365697  0.20770202  1  -0.050296  -0.000134  -0.082181  -0.077522  -0.000146  3.991025  0.0
C  C250  1  0.50369833  0.95634344  0.29229699  1  -0.050279  -0.000134  -0.082104  -0.077389  -0.000146  3.990893  0.0
C  C251  1  0.99630129  0.45634248  0.70770195  1  -0.050295  -0.000134  -0.082203  -0.077476  -0.000147  3.990956  0.0
C  C252  1  0.50369862  0.45634412  0.20770346  1  -0.050292  -0.000134  -0.082161  -0.07745  -0.000146  3.990882  0.0
C  C253  1  0.99629867  0.95634625  0.79229835  1  -0.050286  -0.000134  -0.082204  -0.077532  -0.000147  3.990996  0.0
C  C254  1  0.49630214  0.04365756  0.70770338  1  -0.050304  -0.000134  -0.082122  -0.077374  -0.000146  3.990874  0.0
C  C255  1  0.00369918  0.54365554  0.29229678  1  -0.050187  -0.000134  -0.082148  -0.077457  -0.000146  3.990979  0.0
S  S256  1  0.63164592  0.41280722  0.83320549  1  2.493362  -0.000448  0.470568  1.009953  -0.000671  5.787211  0.0
S  S257  1  0.86835840  0.91280290  0.16679341  1  2.493768  -0.000447  0.47059  1.010122  -0.000671  5.787009  0.0
S  S258  1  0.36835482  0.08719489  0.33320518  1  2.493785  -0.000448  0.470498  1.009848  -0.000672  5.787566  0.0
S  S259  1  0.13164334  0.58719476  0.66679420  1  2.493773  -0.000447  0.470618  1.010224  -0.000671  5.787182  0.0
S  S260  1  0.36835377  0.58719377  0.16679530  1  2.493811  -0.000448  0.470555  1.010015  -0.000671  5.7873  0.0
S  S261  1  0.13164362  0.08719587  0.83320573  1  2.493739  -0.000448  0.470591  1.010128  -0.000671  5.787138  0.0
S  S262  1  0.63164099  0.91280462  0.66679396  1  2.49333  -0.000447  0.470548  1.010097  -0.000671  5.786979  0.0
S  S263  1  0.86835712  0.41280549  0.33320535  1  2.493802  -0.000447  0.470536  1.00988  -0.000671  5.787348  0.0
N  N264  1  0.63666606  0.35148563  0.70959290  1  -1.228658  0.000878  -0.242672  -0.136501  0.000516  3.689024  0.001
N  N265  1  0.86333600  0.85148619  0.29040675  1  -1.228118  0.000878  -0.242707  -0.136734  0.000516  3.68922  0.001
N  N266  1  0.36333625  0.14851383  0.20959184  1  -1.228647  0.000878  -0.242719  -0.136715  0.000516  3.689045  0.001
N  N267  1  0.13666728  0.64851114  0.79040679  1  -1.228518  0.000878  -0.242701  -0.136478  0.000516  3.689052  0.001
N  N268  1  0.36333518  0.64851388  0.29040870  1  -1.228795  0.000878  -0.242751  -0.136705  0.000516  3.689063  0.001
N  N269  1  0.13666291  0.14851555  0.70959321  1  -1.228243  0.000878  -0.242708  -0.1368  0.000516  3.689215  0.001
N  N270  1  0.63666654  0.85148568  0.79040607  1  -1.228137  0.000879  -0.242728  -0.136748  0.000516  3.689211  0.001
N  N271  1  0.86333940  0.35148391  0.20959276  1  -1.228234  0.000878  -0.2427  -0.136736  0.000516  3.689104  0.001
O  O272  1  0.55199645  0.16792926  0.48916994  1  -1.089063  0.102103  -0.306539  -0.496961  0.064481  2.282358  0.092
O  O273  1  0.94800116  0.66792677  0.51082870  1  -1.089085  0.102079  -0.306546  -0.496903  0.064467  2.282616  0.092
O  O274  1  0.44800195  0.33207560  0.98917180  1  -1.088962  0.102099  -0.306559  -0.496951  0.064479  2.282526  0.092
O  O275  1  0.05200059  0.83207629  0.01082661  1  -1.089213  0.102084  -0.306511  -0.496869  0.064469  2.282606  0.092
O  O276  1  0.44800091  0.83207470  0.51082797  1  -1.089035  0.10208  -0.306586  -0.496996  0.064467  2.282556  0.092
O  O277  1  0.05199853  0.33207422  0.48917126  1  -1.088992  0.102097  -0.306565  -0.496983  0.064477  2.282451  0.092
O  O278  1  0.55200085  0.66792316  0.01082734  1  -1.088914  0.102098  -0.30652  -0.496903  0.064477  2.282557  0.092
O  O279  1  0.94799910  0.16792545  0.98917130  1  -1.08897  0.102093  -0.306546  -0.496952  0.064475  2.282487  0.092
O  O280  1  0.56359083  0.08261279  0.56970299  1  -1.104557  0.088942  -0.309949  -0.538354  0.056171  2.413649  0.081
O  O281  1  0.93640689  0.58261227  0.43029556  1  -1.104545  0.088959  -0.30998  -0.53843  0.056182  2.413515  0.081
O  O282  1  0.43640529  0.41738693  0.06970549  1  -1.104657  0.08894  -0.309913  -0.538374  0.05617  2.413784  0.081
O  O283  1  0.06359094  0.91739000  0.93029260  1  -1.104678  0.088958  -0.309951  -0.538398  0.056181  2.41355  0.081
O  O284  1  0.43640731  0.91738968  0.43029451  1  -1.104629  0.088961  -0.309972  -0.538493  0.056183  2.413567  0.081
O  O285  1  0.06359513  0.41738947  0.56970440  1  -1.104624  0.088947  -0.30987  -0.538363  0.056174  2.413707  0.081
O  O286  1  0.56359130  0.58260961  0.93029324  1  -1.104741  0.088945  -0.309942  -0.538405  0.056173  2.413628  0.081
O  O287  1  0.93640332  0.08261100  0.06970449  1  -1.104768  0.088949  -0.309857  -0.538331  0.056175  2.413791  0.081
O  O288  1  0.85307336  0.41431345  0.49241582  1  -1.10737  0.086638  -0.309451  -0.523664  0.054595  2.346443  0.078
O  O289  1  0.64692397  0.91431128  0.50758554  1  -1.107282  0.086664  -0.30951  -0.523683  0.054612  2.345809  0.078
O  O290  1  0.14692194  0.08568623  0.99241498  1  -1.107189  0.086648  -0.309561  -0.523704  0.054602  2.34602  0.078
O  O291  1  0.35307313  0.58568657  0.00758564  1  -1.107487  0.086628  -0.309381  -0.52351  0.054589  2.346488  0.078
O  O292  1  0.14692400  0.58569051  0.50758619  1  -1.1069  0.086664  -0.309539  -0.52374  0.054613  2.345943  0.078
O  O293  1  0.35307339  0.08568601  0.49241607  1  -1.107376  0.086629  -0.309434  -0.523619  0.054589  2.346502  0.078
O  O294  1  0.85307388  0.91430957  0.00758253  1  -1.107408  0.086629  -0.309483  -0.523643  0.05459  2.346543  0.078
O  O295  1  0.64692346  0.41431442  0.99241637  1  -1.107478  0.086649  -0.309513  -0.523681  0.054602  2.34614  0.078
O  O296  1  0.87586238  0.50550062  0.57018816  1  -1.100938  0.104526  -0.309261  -0.517666  0.065873  2.357529  0.094
O  O297  1  0.62413621  0.00549986  0.42981277  1  -1.101009  0.1045  -0.309238  -0.517618  0.065857  2.357927  0.094
O  O298  1  0.12413472  0.99449893  0.07018788  1  -1.10113  0.104513  -0.309188  -0.517513  0.065865  2.357799  0.094
O  O299  1  0.37586065  0.49449738  0.92981398  1  -1.100851  0.104533  -0.309276  -0.517605  0.065878  2.357451  0.094
O  O300  1  0.12413809  0.49450260  0.42981303  1  -1.101021  0.104498  -0.30923  -0.517586  0.065856  2.357898  0.094
O  O301  1  0.37586116  0.99449520  0.57018760  1  -1.100949  0.104533  -0.309289  -0.517704  0.065877  2.357453  0.094
O  O302  1  0.87585954  0.00550280  0.92981208  1  -1.100903  0.104535  -0.309235  -0.517574  0.065879  2.357465  0.094
O  O303  1  0.62413516  0.50550138  0.07018926  1  -1.101138  0.104514  -0.309189  -0.517479  0.065866  2.357791  0.094
O  O304  1  0.55876374  0.38098435  0.87592183  1  -1.295684  -0.001347  -0.323801  -0.545417  -0.000933  2.274516  0.0
O  O305  1  0.94123518  0.88097906  0.12407827  1  -1.295642  -0.001346  -0.323733  -0.545345  -0.000933  2.274627  0.0
O  O306  1  0.44124088  0.11902309  0.37592197  1  -1.295578  -0.001347  -0.323773  -0.545381  -0.000933  2.274503  0.0
O  O307  1  0.05876113  0.61901993  0.62407869  1  -1.295567  -0.001346  -0.323784  -0.545439  -0.000933  2.274617  0.0
O  O308  1  0.44124060  0.61902258  0.12407978  1  -1.295503  -0.001346  -0.323789  -0.545413  -0.000933  2.274511  0.0
O  O309  1  0.05876218  0.11902193  0.87592334  1  -1.295652  -0.001347  -0.323801  -0.545421  -0.000933  2.274472  0.0
O  O310  1  0.55876812  0.88098384  0.62407841  1  -1.295683  -0.001346  -0.323732  -0.545335  -0.000933  2.274794  0.0
O  O311  1  0.94123778  0.38098106  0.37592210  1  -1.295584  -0.001346  -0.323785  -0.545385  -0.000933  2.27464  0.0
O  O312  1  0.71347347  0.48060966  0.84964521  1  -1.275162  3e-05  -0.312377  -0.5087  4.7e-05  2.11809  0.0
O  O313  1  0.78652844  0.98060982  0.15035294  1  -1.27559  3e-05  -0.312398  -0.508779  4.6e-05  2.117795  0.0
O  O314  1  0.28653426  0.01939473  0.34964648  1  -1.275639  3e-05  -0.312294  -0.508619  4.6e-05  2.118365  0.0
O  O315  1  0.21347020  0.51939074  0.65035284  1  -1.275701  3e-05  -0.31239  -0.508802  4.7e-05  2.117968  0.0
O  O316  1  0.28653243  0.51939281  0.15035352  1  -1.275696  3e-05  -0.312305  -0.508664  4.6e-05  2.118176  0.0
O  O317  1  0.21347125  0.01939488  0.84964538  1  -1.275583  3e-05  -0.312321  -0.508721  4.6e-05  2.118071  0.0
O  O318  1  0.71347475  0.98061665  0.65035595  1  -1.275108  3e-05  -0.312399  -0.508826  4.7e-05  2.117431  0.0
O  O319  1  0.78653182  0.48061025  0.34964466  1  -1.275653  3e-05  -0.31238  -0.508713  4.6e-05  2.117994  0.0
