# generated using pymatgen
data_CuH5(C2N)2
_symmetry_space_group_name_H-M   'P 1'
_cell_length_a   6.29563158
_cell_length_b   8.45320484
_cell_length_c   9.61377887
_cell_angle_alpha   90.00048004
_cell_angle_beta   90.00029125
_cell_angle_gamma   89.99984345
_symmetry_Int_Tables_number   1
_chemical_formula_structural   CuH5(C2N)2
_chemical_formula_sum   'Cu4 H20 C16 N8'
_cell_volume   511.62861615
_cell_formula_units_Z   4
loop_
 _symmetry_equiv_pos_site_id
 _symmetry_equiv_pos_as_xyz
  1  'x, y, z'
loop_
 _atom_site_type_symbol
 _atom_site_label
 _atom_site_symmetry_multiplicity
 _atom_site_fract_x
 _atom_site_fract_y
 _atom_site_fract_z
 _atom_site_occupancy
 _atom_site_hle17_bader_spin_density
 _atom_site_hle17_ddec_charge
 _atom_site_hle17_ddec_spin_density
 _atom_site_hle17_ddec_sum_bond_order
 _atom_site_hle17_magmom
 _atom_site_hse06_10hf_bader_spin_density
 _atom_site_hse06_10hf_ddec_charge
 _atom_site_hse06_10hf_ddec_spin_density
 _atom_site_hse06_10hf_ddec_sum_bond_order
 _atom_site_hse06_10hf_magmom
 _atom_site_hse06_bader_spin_density
 _atom_site_hse06_ddec_charge
 _atom_site_hse06_ddec_spin_density
 _atom_site_hse06_ddec_sum_bond_order
 _atom_site_hse06_magmom
 _atom_site_pbe_bader_spin_density
 _atom_site_pbe_cm5_charge
 _atom_site_pbe_ddec_charge
 _atom_site_pbe_ddec_spin_density
 _atom_site_pbe_ddec_sum_bond_order
 _atom_site_pbe_magmom
Cu  Cu0  1  0.74999545  0.46538452  0.88398730  1  0  0.481833  0  2.239094  0  0  0.404517  0  2.730519  0  0  0.393509  0  2.692095  0  0  0.530016  0.41489  0  2.755121  0
Cu  Cu1  1  0.25000652  0.03461928  0.38399003  1  0  0.481765  0  2.239105  0  0  0.40443  0  2.730534  0  0  0.393418  0  2.692106  0  0  0.530007  0.414799  0  2.755096  0
Cu  Cu2  1  0.75000278  0.96538178  0.61601023  1  0  0.481949  0  2.239119  0  0  0.404669  0  2.730525  0  0  0.393666  0  2.692122  0  0  0.530041  0.415038  0  2.755037  0
Cu  Cu3  1  0.24999956  0.53461772  0.11601504  1  0  0.481957  0  2.239055  0  0  0.404699  0  2.730481  0  0  0.393704  0  2.692098  0  0  0.530008  0.415071  0  2.755025  0
H  H4  1  0.60951142  0.65883777  0.36169576  1  0  0.115889  0  0.924625  0  0  0.132039  0  0.982575  0  0  0.132787  0  0.983357  0  0  0.115142  0.131597  0  0.981785  0
H  H5  1  0.39049919  0.84116879  0.86169301  1  0  0.115812  0  0.92484  0  0  0.131991  0  0.98278  0  0  0.132739  0  0.983567  0  0  0.115148  0.131549  0  0.981989  0
H  H6  1  0.89049701  0.15884270  0.13830875  1  0  0.115871  0  0.924672  0  0  0.131999  0  0.982648  0  0  0.132753  0  0.98343  0  0  0.115129  0.131556  0  0.981858  0
H  H7  1  0.10949510  0.34115522  0.63831132  1  0  0.115858  0  0.9247  0  0  0.131971  0  0.982684  0  0  0.132722  0  0.983471  0  0  0.115119  0.131528  0  0.981893  0
H  H8  1  0.39050106  0.34115619  0.63831178  1  0  0.11588  0  0.924691  0  0  0.132006  0  0.982651  0  0  0.13276  0  0.983436  0  0  0.115124  0.131563  0  0.981856  0
H  H9  1  0.60949264  0.15884173  0.13830933  1  0  0.115858  0  0.924769  0  0  0.132041  0  0.98266  0  0  0.132792  0  0.983448  0  0  0.115155  0.131599  0  0.981872  0
H  H10  1  0.10949641  0.84116546  0.86169359  1  0  0.115802  0  0.924796  0  0  0.13197  0  0.982751  0  0  0.13272  0  0.983532  0  0  0.115125  0.131528  0  0.98196  0
H  H11  1  0.89051421  0.65883637  0.36169414  1  0  0.115812  0  0.924846  0  0  0.132042  0  0.9827  0  0  0.132787  0  0.983487  0  0  0.115183  0.1316  0  0.981905  0
H  H12  1  0.75000840  0.47364487  0.54485430  1  0  0.111151  0  0.965824  0  0  0.130086  0  1.029307  0  0  0.130975  0  1.03097  0  0  0.090419  0.128621  0  1.029901  0
H  H13  1  0.24999727  0.02635453  0.04485800  1  0  0.11115  0  0.965885  0  0  0.130077  0  1.02937  0  0  0.130966  0  1.031033  0  0  0.090413  0.128615  0  1.029966  0
H  H14  1  0.74999773  0.97365718  0.95514018  1  0  0.111142  0  0.965981  0  0  0.130041  0  1.029504  0  0  0.13093  0  1.031166  0  0  0.090386  0.128575  0  1.030097  0
H  H15  1  0.24999614  0.52633489  0.45514076  1  0  0.111095  0  0.966043  0  0  0.130062  0  1.02948  0  0  0.130952  0  1.03114  0  0  0.09042  0.1286  0  1.030071  0
H  H16  1  0.60879753  0.36417701  0.41627987  1  0  0.102897  0  0.965249  0  0  0.124621  0  1.025063  0  0  0.125002  0  1.027212  0  0  0.087399  0.12445  0  1.023355  0
H  H17  1  0.39120469  0.13582473  0.91629017  1  0  0.102915  0  0.965314  0  0  0.124638  0  1.025126  0  0  0.125016  0  1.027281  0  0  0.087435  0.124463  0  1.02342  0
H  H18  1  0.89120837  0.86418439  0.08370952  1  0  0.102885  0  0.965281  0  0  0.124638  0  1.025057  0  0  0.125017  0  1.027209  0  0  0.087388  0.124463  0  1.023346  0
H  H19  1  0.10878736  0.63581007  0.58370848  1  0  0.102968  0  0.965366  0  0  0.124677  0  1.025196  0  0  0.125051  0  1.027357  0  0  0.087403  0.124502  0  1.023488  0
H  H20  1  0.39120541  0.63581104  0.58370895  1  0  0.10292  0  0.965269  0  0  0.124666  0  1.025054  0  0  0.125042  0  1.027211  0  0  0.087379  0.12449  0  1.023346  0
H  H21  1  0.60878714  0.86418342  0.08370697  1  0  0.102943  0  0.965277  0  0  0.124687  0  1.025077  0  0  0.125061  0  1.027237  0  0  0.087419  0.124508  0  1.023371  0
H  H22  1  0.10878664  0.13582377  0.91628866  1  0  0.102979  0  0.965183  0  0  0.1247  0  1.025  0  0  0.125079  0  1.02715  0  0  0.087448  0.124524  0  1.023294  0
H  H23  1  0.89122035  0.36417561  0.41628345  1  0  0.102984  0  0.965158  0  0  0.124684  0  1.02501  0  0  0.125058  0  1.027169  0  0  0.087456  0.124508  0  1.023303  0
C  C24  1  0.74999553  0.27273762  0.79098362  1  0  -0.144223  0  3.53029  0  0  -0.144728  0  3.902257  0  0  -0.129539  0  3.896576  0  0  -0.054035  -0.155661  0  3.906973  0
C  C25  1  0.25001207  0.22726529  0.29098361  1  0  -0.144118  0  3.530582  0  0  -0.144601  0  3.902529  0  0  -0.129411  0  3.896842  0  0  -0.05397  -0.155524  0  3.907222  0
C  C26  1  0.74999882  0.77274996  0.70900937  1  0  -0.144494  0  3.529668  0  0  -0.145022  0  3.901705  0  0  -0.129815  0  3.896024  0  0  -0.054282  -0.155951  0  3.90637  0
C  C27  1  0.25000107  0.72725042  0.20901560  1  0  -0.144524  0  3.529792  0  0  -0.145071  0  3.901859  0  0  -0.129875  0  3.896189  0  0  -0.054281  -0.156006  0  3.906541  0
C  C28  1  0.75000687  0.54443293  0.19616649  1  0  0.374435  0  3.641712  0  0  0.358474  0  3.923366  0  0  0.372405  0  3.93175  0  0  0.22159  0.348654  0  3.918591  0
C  C29  1  0.24999292  0.95557324  0.69616932  1  0  0.374369  0  3.641813  0  0  0.35844  0  3.923473  0  0  0.372373  0  3.931857  0  0  0.221494  0.348613  0  3.918684  0
C  C30  1  0.74999891  0.04442900  0.30383614  1  0  0.37451  0  3.641947  0  0  0.35855  0  3.923576  0  0  0.372488  0  3.931958  0  0  0.221688  0.348732  0  3.918775  0
C  C31  1  0.24999767  0.45557049  0.80383585  1  0  0.374511  0  3.641908  0  0  0.358547  0  3.923524  0  0  0.372488  0  3.931906  0  0  0.221635  0.348726  0  3.918733  0
C  C32  1  0.75001370  0.58421972  0.34248475  1  0  -0.14015  0  3.765171  0  0  -0.168047  0  4.001254  0  0  -0.169941  0  4.011228  0  0  -0.131562  -0.16649  0  3.993783  0
C  C33  1  0.24999676  0.91578430  0.84248313  1  0  -0.140028  0  3.765245  0  0  -0.168004  0  4.001549  0  0  -0.16991  0  4.011541  0  0  -0.131483  -0.166446  0  3.994074  0
C  C34  1  0.74999507  0.08422504  0.15751713  1  0  -0.140173  0  3.765302  0  0  -0.168034  0  4.001433  0  0  -0.169949  0  4.011432  0  0  -0.131525  -0.166482  0  3.993958  0
C  C35  1  0.24999718  0.41577897  0.65751967  1  0  -0.140194  0  3.765472  0  0  -0.167946  0  4.001488  0  0  -0.169862  0  4.011489  0  0  -0.13147  -0.166394  0  3.994011  0
C  C36  1  0.75001282  0.43678141  0.43557039  1  0  -0.272149  0  3.649883  0  0  -0.342982  0  3.876534  0  0  -0.346541  0  3.88951  0  0  -0.241129  -0.340186  0  3.868352  0
C  C37  1  0.24999750  0.06322170  0.93557656  1  0  -0.272155  0  3.649873  0  0  -0.342951  0  3.876533  0  0  -0.346508  0  3.889511  0  0  -0.241148  -0.340156  0  3.868353  0
C  C38  1  0.74999433  0.93678882  0.06442161  1  0  -0.272145  0  3.650117  0  0  -0.342986  0  3.876719  0  0  -0.346542  0  3.889706  0  0  -0.24107  -0.340181  0  3.86853  0
C  C39  1  0.24999489  0.56320900  0.56442363  1  0  -0.272153  0  3.650392  0  0  -0.343034  0  3.876992  0  0  -0.346588  0  3.889979  0  0  -0.241073  -0.340234  0  3.868806  0
N  N40  1  0.74999869  0.15862199  0.72069138  1  0  -0.399857  0  3.304422  0  0  -0.333497  0  3.625907  0  0  -0.347884  0  3.631145  0  0  -0.434179  -0.324838  0  3.623932  0
N  N41  1  0.25000835  0.34137789  0.22069221  1  0  -0.399949  0  3.304745  0  0  -0.333624  0  3.626268  0  0  -0.348013  0  3.631507  0  0  -0.434243  -0.324975  0  3.624308  0
N  N42  1  0.74999618  0.65860897  0.77931741  1  0  -0.399703  0  3.303614  0  0  -0.333338  0  3.62515  0  0  -0.347726  0  3.63037  0  0  -0.434023  -0.32469  0  3.623201  0
N  N43  1  0.24999949  0.84138735  0.27931928  1  0  -0.399611  0  3.303735  0  0  -0.33322  0  3.625212  0  0  -0.347603  0  3.630433  0  0  -0.433983  -0.324565  0  3.623246  0
N  N44  1  0.74999537  0.50992357  0.07878900  1  0  -0.448634  0  3.110003  0  0  -0.417227  0  3.459114  0  0  -0.418646  0  3.446843  0  0  -0.386279  -0.417155  0  3.467878  0
N  N45  1  0.24999555  0.99008267  0.57879104  1  0  -0.448597  0  3.110039  0  0  -0.417166  0  3.459111  0  0  -0.418583  0  3.446831  0  0  -0.386231  -0.417093  0  3.467842  0
N  N46  1  0.75000263  0.00991602  0.42120505  1  0  -0.448629  0  3.110123  0  0  -0.417227  0  3.45924  0  0  -0.418647  0  3.446969  0  0  -0.386323  -0.417154  0  3.46795  0
N  N47  1  0.24999963  0.49008222  0.92121022  1  0  -0.448657  0  3.110009  0  0  -0.417256  0  3.459134  0  0  -0.418677  0  3.446872  0  0  -0.386281  -0.417181  0  3.467866  0
