# generated using pymatgen
data_UH9C12N2ClO8
_symmetry_space_group_name_H-M   'P 1'
_cell_length_a   7.21674078
_cell_length_b   12.96684003
_cell_length_c   16.63375056
_cell_angle_alpha   91.93852891
_cell_angle_beta   89.99922211
_cell_angle_gamma   106.14196319
_symmetry_Int_Tables_number   1
_chemical_formula_structural   UH9C12N2ClO8
_chemical_formula_sum   'U4 H36 C48 N8 Cl4 O32'
_cell_volume   1494.26519931
_cell_formula_units_Z   4
loop_
 _symmetry_equiv_pos_site_id
 _symmetry_equiv_pos_as_xyz
  1  'x, y, z'
loop_
 _atom_site_type_symbol
 _atom_site_label
 _atom_site_symmetry_multiplicity
 _atom_site_fract_x
 _atom_site_fract_y
 _atom_site_fract_z
 _atom_site_occupancy
 _atom_site_hle17_bader_spin_density
 _atom_site_hle17_ddec_charge
 _atom_site_hle17_ddec_spin_density
 _atom_site_hle17_ddec_sum_bond_order
 _atom_site_hle17_magmom
 _atom_site_hse06_10hf_bader_spin_density
 _atom_site_hse06_10hf_ddec_charge
 _atom_site_hse06_10hf_ddec_spin_density
 _atom_site_hse06_10hf_ddec_sum_bond_order
 _atom_site_hse06_10hf_magmom
 _atom_site_hse06_bader_spin_density
 _atom_site_hse06_ddec_charge
 _atom_site_hse06_ddec_spin_density
 _atom_site_hse06_ddec_sum_bond_order
 _atom_site_hse06_magmom
 _atom_site_pbe_bader_spin_density
 _atom_site_pbe_cm5_charge
 _atom_site_pbe_ddec_charge
 _atom_site_pbe_ddec_spin_density
 _atom_site_pbe_ddec_sum_bond_order
 _atom_site_pbe_magmom
U  U0  1  0.27545050  0.79404455  0.65365314  1  0  2.343763  0  4.264566  0  0  2.413882  0  4.931991  0  0  2.525411  0  4.894961  0  0  2.04696  2.335486  0  4.958846  0
U  U1  1  0.48145753  0.20608061  0.84627683  1  0  2.343648  0  4.265273  0  0  2.412795  0  4.934074  0  0  2.525813  0  4.894709  0  0  2.04728  2.33463  0  4.960384  0
U  U2  1  0.72455275  0.20595222  0.34634650  1  0  2.343781  0  4.2643  0  0  2.413881  0  4.931713  0  0  2.525457  0  4.894609  0  0  2.046942  2.335483  0  4.958584  0
U  U3  1  0.51855389  0.79392418  0.15372119  1  0  2.343753  0  4.265288  0  0  2.412893  0  4.934084  0  0  2.525779  0  4.894912  0  0  2.047391  2.334729  0  4.960403  0
H  H4  1  0.39804830  0.94939097  0.41909189  1  0  0.13824  0  0.917815  0  0  0.145553  0  0.976497  0  0  0.150407  0  0.971473  0  0  0.146732  0.141948  0  0.980346  0
H  H5  1  0.44924646  0.05082045  0.08104357  1  0  0.138955  0  0.917839  0  0  0.146277  0  0.976274  0  0  0.151224  0  0.971124  0  0  0.146907  0.142627  0  0.980166  0
H  H6  1  0.60196782  0.05060661  0.58090777  1  0  0.138333  0  0.917861  0  0  0.145595  0  0.976559  0  0  0.150445  0  0.971539  0  0  0.146731  0.141988  0  0.980407  0
H  H7  1  0.55074214  0.94918029  0.91894595  1  0  0.138856  0  0.917816  0  0  0.146237  0  0.976219  0  0  0.151182  0  0.971066  0  0  0.146858  0.142585  0  0.980117  0
H  H8  1  0.19949610  0.92451611  0.29100390  1  0  0.149079  0  0.937414  0  0  0.158291  0  0.992303  0  0  0.162245  0  0.989253  0  0  0.127031  0.155494  0  0.994681  0
H  H9  1  0.27543289  0.07574322  0.20903684  1  0  0.148387  0  0.937965  0  0  0.157686  0  0.992729  0  0  0.161624  0  0.989696  0  0  0.127011  0.154899  0  0.995097  0
H  H10  1  0.80052461  0.07548788  0.70899350  1  0  0.149139  0  0.937284  0  0  0.158379  0  0.992135  0  0  0.162328  0  0.989085  0  0  0.12703  0.155582  0  0.994511  0
H  H11  1  0.72456546  0.92426315  0.79095400  1  0  0.148418  0  0.937774  0  0  0.157729  0  0.99252  0  0  0.161671  0  0.989478  0  0  0.126991  0.154941  0  0.994886  0
H  H12  1  0.69023517  0.82850337  0.43877297  1  0  0.134822  0  0.965183  0  0  0.144501  0  1.021932  0  0  0.149242  0  1.018426  0  0  0.107071  0.141025  0  1.024628  0
H  H13  1  0.86202785  0.17169784  0.06133940  1  0  0.134862  0  0.965546  0  0  0.144999  0  1.021778  0  0  0.14979  0  1.018207  0  0  0.107232  0.141499  0  1.024489  0
H  H14  1  0.30978134  0.17149499  0.56122310  1  0  0.134794  0  0.965294  0  0  0.144552  0  1.021956  0  0  0.149293  0  1.01845  0  0  0.107058  0.141076  0  1.024652  0
H  H15  1  0.13795105  0.82830291  0.93865132  1  0  0.134743  0  0.965373  0  0  0.144914  0  1.021594  0  0  0.14967  0  1.018069  0  0  0.107168  0.141415  0  1.024304  0
H  H16  1  0.90875655  0.85740444  0.55996439  1  0  0.133611  0  0.918715  0  0  0.142122  0  0.978151  0  0  0.145728  0  0.97487  0  0  0.147655  0.139489  0  0.980596  0
H  H17  1  0.05184864  0.14283154  0.94016604  1  0  0.134046  0  0.918321  0  0  0.142613  0  0.97763  0  0  0.146178  0  0.974391  0  0  0.147466  0.140021  0  0.980025  0
H  H18  1  0.09125457  0.14258591  0.44003509  1  0  0.133444  0  0.918788  0  0  0.142024  0  0.978171  0  0  0.145597  0  0.97493  0  0  0.147611  0.139393  0  0.98062  0
H  H19  1  0.94813201  0.85716438  0.05982336  1  0  0.13398  0  0.918365  0  0  0.142557  0  0.977691  0  0  0.146113  0  0.974445  0  0  0.14737  0.139964  0  0.980085  0
H  H20  1  0.29602291  0.64959674  0.86033729  1  0  0.142587  0  0.934865  0  0  0.147692  0  0.997227  0  0  0.152543  0  0.991915  0  0  0.13731  0.144079  0  1.001215  0
H  H21  1  0.64622482  0.35021196  0.63952950  1  0  0.142556  0  0.934894  0  0  0.147971  0  0.997027  0  0  0.152718  0  0.99178  0  0  0.137381  0.144419  0  1.000967  0
H  H22  1  0.70397517  0.35039524  0.13966644  1  0  0.142657  0  0.934698  0  0  0.147724  0  0.997171  0  0  0.152576  0  0.991857  0  0  0.137338  0.144111  0  1.001162  0
H  H23  1  0.35377770  0.64979445  0.36046977  1  0  0.142559  0  0.934924  0  0  0.147983  0  0.997045  0  0  0.152732  0  0.991798  0  0  0.13738  0.144433  0  1.000986  0
H  H24  1  0.52066138  0.60718215  0.96258522  1  0  0.14072  0  0.940898  0  0  0.144606  0  1.006397  0  0  0.148668  0  1.003787  0  0  0.123928  0.141622  0  1.008471  0
H  H25  1  0.91352810  0.39266980  0.53729154  1  0  0.140699  0  0.940396  0  0  0.1443  0  1.006116  0  0  0.148412  0  1.003457  0  0  0.123804  0.141357  0  1.008141  0
H  H26  1  0.47932072  0.39281389  0.03742643  1  0  0.140767  0  0.940914  0  0  0.144664  0  1.006406  0  0  0.148731  0  1.003791  0  0  0.123957  0.141696  0  1.008465  0
H  H27  1  0.08647479  0.60733181  0.46270942  1  0  0.14074  0  0.940301  0  0  0.144347  0  1.006026  0  0  0.148464  0  1.003365  0  0  0.123818  0.141405  0  1.008049  0
H  H28  1  0.88391164  0.51669242  0.03842237  1  0  0.39918  0  0.889645  0  0  0.367356  0  0.967227  0  0  0.380441  0  0.953795  0  0  0.306052  0.358146  0  0.976641  0
H  H29  1  0.36732506  0.48359228  0.46166146  1  0  0.398659  0  0.88973  0  0  0.366872  0  0.967385  0  0  0.379956  0  0.953963  0  0  0.305953  0.357671  0  0.976771  0
H  H30  1  0.11606469  0.48330041  0.96158981  1  0  0.399082  0  0.889741  0  0  0.36726  0  0.967328  0  0  0.380344  0  0.953898  0  0  0.30602  0.358053  0  0.976737  0
H  H31  1  0.63267366  0.51640930  0.53833528  1  0  0.398704  0  0.889608  0  0  0.366898  0  0.967286  0  0  0.379982  0  0.953861  0  0  0.305985  0.357683  0  0.976699  0
H  H32  1  0.91271233  0.59503920  0.76789037  1  0  0.134913  0  0.924518  0  0  0.139459  0  0.987878  0  0  0.143614  0  0.985176  0  0  0.128657  0.136414  0  0.990094  0
H  H33  1  0.31750444  0.40485764  0.73205830  1  0  0.134459  0  0.924748  0  0  0.138983  0  0.988306  0  0  0.143037  0  0.985726  0  0  0.128396  0.136021  0  0.990436  0
H  H34  1  0.08728206  0.40495927  0.23212494  1  0  0.134797  0  0.924504  0  0  0.139402  0  0.987795  0  0  0.143569  0  0.985079  0  0  0.128628  0.136356  0  0.990012  0
H  H35  1  0.68249227  0.59513993  0.26794015  1  0  0.134484  0  0.924764  0  0  0.139006  0  0.988306  0  0  0.14306  0  0.985725  0  0  0.128404  0.136046  0  0.990434  0
H  H36  1  0.67400877  0.64180867  0.67378345  1  0  0.142361  0  0.913811  0  0  0.150449  0  0.970777  0  0  0.154445  0  0.96667  0  0  0.147134  0.14752  0  0.973812  0
H  H37  1  0.03199204  0.35810461  0.82616515  1  0  0.142567  0  0.913947  0  0  0.150213  0  0.971324  0  0  0.154325  0  0.967101  0  0  0.146779  0.147224  0  0.974436  0
H  H38  1  0.32599850  0.35819060  0.32623308  1  0  0.142203  0  0.91386  0  0  0.15031  0  0.970913  0  0  0.154321  0  0.966805  0  0  0.147069  0.147383  0  0.973947  0
H  H39  1  0.96800588  0.64189538  0.17383337  1  0  0.142541  0  0.913965  0  0  0.150191  0  0.971322  0  0  0.154303  0  0.967102  0  0  0.146744  0.147203  0  0.97443  0
C  C40  1  0.24125767  0.92254196  0.41785846  1  0  0.032847  0  3.530946  0  0  -0.006343  0  3.78643  0  0  0.000262  0  3.796494  0  0  0.066293  -0.010502  0  3.779767  0
C  C41  1  0.31920874  0.07761517  0.08223257  1  0  0.03146  0  3.531986  0  0  -0.007749  0  3.787549  0  0  -0.001209  0  3.79758  0  0  0.065924  -0.011887  0  3.780964  0
C  C42  1  0.75875728  0.07745881  0.58213766  1  0  0.032453  0  3.531215  0  0  -0.006577  0  3.786564  0  0  3.3e-05  0  3.796625  0  0  0.066219  -0.010731  0  3.779892  0
C  C43  1  0.68077651  0.92238718  0.91775758  1  0  0.0316  0  3.532058  0  0  -0.007686  0  3.787609  0  0  -0.001143  0  3.797653  0  0  0.065926  -0.011826  0  3.781022  0
C  C44  1  0.12809765  0.90925685  0.34881501  1  0  -0.072441  0  3.650257  0  0  -0.095096  0  3.899102  0  0  -0.098099  0  3.916237  0  0  -0.051809  -0.093238  0  3.88758  0
C  C45  1  0.21923120  0.09098386  0.15123525  1  0  -0.071369  0  3.649732  0  0  -0.093843  0  3.898687  0  0  -0.096872  0  3.915878  0  0  -0.051577  -0.091981  0  3.887152  0
C  C46  1  0.87192051  0.09075035  0.65118247  1  0  -0.072449  0  3.650417  0  0  -0.095252  0  3.899184  0  0  -0.098253  0  3.916313  0  0  -0.051834  -0.093408  0  3.887686  0
C  C47  1  0.78076120  0.90902171  0.84875678  1  0  -0.071645  0  3.650025  0  0  -0.094109  0  3.898961  0  0  -0.097135  0  3.916154  0  0  -0.051672  -0.092248  0  3.887423  0
C  C48  1  0.92724191  0.87489836  0.35497854  1  0  -0.004235  0  3.702176  0  0  0.008547  0  3.937368  0  0  0.007361  0  3.954453  0  0  0.009532  0.009288  0  3.926022  0
C  C49  1  0.05265884  0.12532224  0.14511110  1  0  -0.004206  0  3.704067  0  0  0.007955  0  3.940152  0  0  0.00674  0  3.957254  0  0  0.009486  0.008702  0  3.928791  0
C  C50  1  0.07276808  0.12510081  0.64501935  1  0  -0.004213  0  3.70263  0  0  0.008798  0  3.937496  0  0  0.00762  0  3.954581  0  0  0.009586  0.009535  0  3.926136  0
C  C51  1  0.94733217  0.87468333  0.85487973  1  0  -0.003993  0  3.70422  0  0  0.008196  0  3.940263  0  0  0.006979  0  3.957357  0  0  0.009675  0.008946  0  3.928895  0
C  C52  1  0.79356784  0.85382371  0.28392957  1  0  0.628808  0  3.898939  0  0  0.590209  0  4.200455  0  0  0.6262  0  4.192531  0  0  0.206757  0.565693  0  4.204698  0
C  C53  1  0.93986089  0.14625992  0.21614531  1  0  0.629026  0  3.900418  0  0  0.590634  0  4.201857  0  0  0.626673  0  4.193755  0  0  0.206767  0.566119  0  4.206083  0
C  C54  1  0.20644711  0.14617707  0.71606896  1  0  0.628726  0  3.899162  0  0  0.590105  0  4.200589  0  0  0.626086  0  4.192698  0  0  0.206766  0.565612  0  4.20479  0
C  C55  1  0.06013586  0.85374325  0.78384847  1  0  0.628624  0  3.901033  0  0  0.590119  0  4.202605  0  0  0.626161  0  4.194507  0  0  0.206497  0.565601  0  4.206816  0
C  C56  1  0.84577052  0.85582644  0.43126714  1  0  -0.083428  0  3.702567  0  0  -0.104173  0  3.94883  0  0  -0.106843  0  3.965388  0  0  -0.067516  -0.102715  0  3.938103  0
C  C57  1  0.99028012  0.14438633  0.06881231  1  0  -0.083217  0  3.702963  0  0  -0.104251  0  3.94941  0  0  -0.106941  0  3.965949  0  0  -0.06761  -0.102768  0  3.938686  0
C  C58  1  0.15424779  0.14417275  0.56873196  1  0  -0.083517  0  3.702693  0  0  -0.104373  0  3.948872  0  0  -0.107042  0  3.965418  0  0  -0.067549  -0.102914  0  3.938145  0
C  C59  1  0.00970057  0.85561522  0.93117903  1  0  -0.08312  0  3.702755  0  0  -0.10417  0  3.949175  0  0  -0.106831  0  3.965722  0  0  -0.067617  -0.102685  0  3.938442  0
C  C60  1  0.96176461  0.87055677  0.49887146  1  0  0.008673  0  3.591566  0  0  -0.036298  0  3.8571  0  0  -0.031166  0  3.870537  0  0  0.054586  -0.039474  0  3.848235  0
C  C61  1  0.09164360  0.12964283  0.00124937  1  0  0.007254  0  3.589885  0  0  -0.03774  0  3.855735  0  0  -0.032585  0  3.869222  0  0  0.054027  -0.040941  0  3.846829  0
C  C62  1  0.03825093  0.12944242  0.50112764  1  0  0.009124  0  3.591322  0  0  -0.035957  0  3.856986  0  0  -0.030801  0  3.870439  0  0  0.054794  -0.039139  0  3.848128  0
C  C63  1  0.90833749  0.87035951  0.99873898  1  0  0.007254  0  3.589954  0  0  -0.037781  0  3.855845  0  0  -0.032607  0  3.869308  0  0  0.054126  -0.040983  0  3.846937  0
C  C64  1  0.43442118  0.63656347  0.84505948  1  0  0.02702  0  3.533643  0  0  -0.012111  0  3.787556  0  0  -0.005772  0  3.798143  0  0  0.059829  -0.016199  0  3.78078  0
C  C65  1  0.79762315  0.36320834  0.65481712  1  0  0.026105  0  3.534115  0  0  -0.013614  0  3.788149  0  0  -0.007183  0  3.798788  0  0  0.059035  -0.017742  0  3.781329  0
C  C66  1  0.56557454  0.36342934  0.15494848  1  0  0.027387  0  3.533406  0  0  -0.011805  0  3.787406  0  0  -0.005462  0  3.797988  0  0  0.05995  -0.015893  0  3.780636  0
C  C67  1  0.20237656  0.63679245  0.34518261  1  0  0.026072  0  3.534154  0  0  -0.01366  0  3.788218  0  0  -0.007232  0  3.798862  0  0  0.059027  -0.01779  0  3.781403  0
C  C68  1  0.55953656  0.61220704  0.89933577  1  0  -0.071046  0  3.676968  0  0  -0.095632  0  3.928967  0  0  -0.098776  0  3.947647  0  0  -0.05521  -0.093766  0  3.916751  0
C  C69  1  0.94716038  0.38763038  0.60056691  1  0  -0.070967  0  3.675777  0  0  -0.094808  0  3.927302  0  0  -0.097999  0  3.945901  0  0  -0.054746  -0.09298  0  3.915085  0
C  C70  1  0.44044888  0.38778738  0.10067344  1  0  -0.071289  0  3.677036  0  0  -0.095934  0  3.929033  0  0  -0.099081  0  3.947711  0  0  -0.055289  -0.094082  0  3.916812  0
C  C71  1  0.05284331  0.61237283  0.39943348  1  0  -0.070948  0  3.675671  0  0  -0.094812  0  3.927222  0  0  -0.098011  0  3.945829  0  0  -0.054753  -0.092982  0  3.915005  0
C  C72  1  0.73013106  0.59256121  0.87188001  1  0  -0.029412  0  3.721146  0  0  -0.018192  0  3.963818  0  0  -0.021111  0  3.98243  0  0  0.007161  -0.016146  0  3.951304  0
C  C73  1  0.13737972  0.40733422  0.62805994  1  0  -0.030605  0  3.72106  0  0  -0.018946  0  3.963608  0  0  -0.021915  0  3.982202  0  0  0.006501  -0.016858  0  3.951123  0
C  C74  1  0.26986136  0.40743885  0.12813294  1  0  -0.029491  0  3.721733  0  0  -0.018065  0  3.964094  0  0  -0.020983  0  3.982705  0  0  0.00711  -0.016014  0  3.951584  0
C  C75  1  0.86262356  0.59266817  0.37193863  1  0  -0.030441  0  3.721042  0  0  -0.0188  0  3.963519  0  0  -0.021766  0  3.982107  0  0  0.006599  -0.016712  0  3.951039  0
C  C76  1  0.85668265  0.55488110  0.92742467  1  0  0.67671  0  3.777698  0  0  0.620845  0  4.078749  0  0  0.656545  0  4.065645  0  0  0.249228  0.59647  0  4.087317  0
C  C77  1  0.30165304  0.44500821  0.57259014  1  0  0.678815  0  3.775016  0  0  0.622136  0  4.077252  0  0  0.657926  0  4.064004  0  0  0.250016  0.59769  0  4.085933  0
C  C78  1  0.14332122  0.44511414  0.07258816  1  0  0.676545  0  3.778073  0  0  0.620692  0  4.079001  0  0  0.656393  0  4.065895  0  0  0.249199  0.596312  0  4.087571  0
C  C79  1  0.69836035  0.55499499  0.42741025  1  0  0.678569  0  3.774679  0  0  0.622047  0  4.076684  0  0  0.657838  0  4.063434  0  0  0.249945  0.5976  0  4.085368  0
C  C80  1  0.77726724  0.60531745  0.79048639  1  0  -0.068797  0  3.693953  0  0  -0.095674  0  3.955341  0  0  -0.097485  0  3.971991  0  0  -0.055764  -0.094792  0  3.944447  0
C  C81  1  0.17181832  0.39460682  0.70946425  1  0  -0.067569  0  3.69532  0  0  -0.094601  0  3.956717  0  0  -0.096314  0  3.973407  0  0  -0.055169  -0.093812  0  3.945808  0
C  C82  1  0.22272934  0.39468261  0.20952776  1  0  -0.068854  0  3.693594  0  0  -0.095723  0  3.954972  0  0  -0.097543  0  3.971625  0  0  -0.055774  -0.094835  0  3.944075  0
C  C83  1  0.82818278  0.60539397  0.29053489  1  0  -0.067724  0  3.695372  0  0  -0.094746  0  3.956772  0  0  -0.096461  0  3.973461  0  0  -0.055213  -0.093958  0  3.945866  0
C  C84  1  0.65069864  0.63119678  0.73782685  1  0  0.025986  0  3.537182  0  0  -0.016647  0  3.798906  0  0  -0.010407  0  3.809218  0  0  0.063228  -0.020656  0  3.792221  0
C  C85  1  0.01938631  0.36869282  0.76211046  1  0  0.026263  0  3.535778  0  0  -0.016034  0  3.797539  0  0  -0.009877  0  3.807755  0  0  0.063623  -0.020029  0  3.790978  0
C  C86  1  0.34930092  0.36880650  0.26218737  1  0  0.02645  0  3.536568  0  0  -0.016443  0  3.798579  0  0  -0.010214  0  3.808893  0  0  0.063317  -0.020454  0  3.791897  0
C  C87  1  0.98061380  0.63130877  0.23788808  1  0  0.02636  0  3.535741  0  0  -0.015938  0  3.797487  0  0  -0.00978  0  3.807705  0  0  0.063654  -0.019931  0  3.790925  0
N  N88  1  0.15677919  0.90341408  0.49098829  1  0  0.267507  0  3.703334  0  0  0.327131  0  3.970695  0  0  0.327914  0  3.992933  0  0  -0.106538  0.325832  0  3.95559  0
N  N89  1  0.25385584  0.09676960  0.00911217  1  0  0.268354  0  3.701585  0  0  0.328073  0  3.968673  0  0  0.328871  0  3.990945  0  0  -0.105335  0.326763  0  3.953601  0
N  N90  1  0.84323809  0.09658027  0.50900828  1  0  0.267505  0  3.703514  0  0  0.327086  0  3.970907  0  0  0.327871  0  3.99314  0  0  -0.10664  0.325787  0  3.955799  0
N  N91  1  0.74613120  0.90323357  0.99088041  1  0  0.268414  0  3.70164  0  0  0.328156  0  3.968733  0  0  0.328954  0  3.991  0  0  -0.105264  0.326844  0  3.95366  0
N  N92  1  0.47887023  0.64153372  0.76561202  1  0  0.289432  0  3.674409  0  0  0.348712  0  3.937743  0  0  0.350431  0  3.959175  0  0  -0.095353  0.346783  0  3.923219  0
N  N93  1  0.83724494  0.35835104  0.73427061  1  0  0.289522  0  3.673868  0  0  0.348855  0  3.937164  0  0  0.35059  0  3.958652  0  0  -0.095279  0.346923  0  3.922639  0
N  N94  1  0.52113505  0.35846711  0.23439613  1  0  0.288945  0  3.674142  0  0  0.348331  0  3.937529  0  0  0.350051  0  3.958965  0  0  -0.095515  0.346404  0  3.923009  0
N  N95  1  0.16275419  0.64165135  0.26572795  1  0  0.289515  0  3.673815  0  0  0.348854  0  3.937121  0  0  0.350588  0  3.958606  0  0  -0.095247  0.346921  0  3.9226  0
Cl  Cl96  1  0.45489447  0.72379944  0.53176505  1  0  -0.584388  0  0.828587  0  0  -0.60949  0  1.080253  0  0  -0.633535  0  1.068477  0  0  -0.317988  -0.590731  0  1.087836  0
Cl  Cl97  1  0.73116058  0.27630987  0.96819651  1  0  -0.584569  0  0.827977  0  0  -0.609664  0  1.079939  0  0  -0.633922  0  1.067819  0  0  -0.318252  -0.590942  0  1.087532  0
Cl  Cl98  1  0.54511312  0.27619494  0.46823633  1  0  -0.584404  0  0.828574  0  0  -0.609521  0  1.080256  0  0  -0.633575  0  1.068471  0  0  -0.317985  -0.590759  0  1.087841  0
Cl  Cl99  1  0.26882273  0.72369416  0.03180811  1  0  -0.584536  0  0.827823  0  0  -0.609656  0  1.07978  0  0  -0.633887  0  1.067676  0  0  -0.318274  -0.590933  0  1.087367  0
O  O100  1  0.05079127  0.69919110  0.62032340  1  0  -0.720974  0  1.562292  0  0  -0.718852  0  1.844687  0  0  -0.740551  0  1.832736  0  0  -0.771471  -0.705222  0  1.853484  0
O  O101  1  0.35159931  0.30095611  0.87960019  1  0  -0.720645  0  1.562078  0  0  -0.718137  0  1.844357  0  0  -0.740156  0  1.83215  0  0  -0.771134  -0.704541  0  1.853083  0
O  O102  1  0.94921216  0.30080328  0.37967799  1  0  -0.720923  0  1.562266  0  0  -0.718825  0  1.844716  0  0  -0.740532  0  1.832749  0  0  -0.77149  -0.705188  0  1.8535  0
O  O103  1  0.64839901  0.69904467  0.12039654  1  0  -0.720646  0  1.562177  0  0  -0.718129  0  1.844433  0  0  -0.740119  0  1.832251  0  0  -0.771132  -0.704538  0  1.853174  0
O  O104  1  0.49828610  0.88855410  0.68904596  1  0  -0.7168  0  1.580308  0  0  -0.71844  0  1.864717  0  0  -0.740354  0  1.851379  0  0  -0.76204  -0.704585  0  1.874382  0
O  O105  1  0.60996168  0.11161761  0.81089923  1  0  -0.716992  0  1.580696  0  0  -0.718409  0  1.865428  0  0  -0.740665  0  1.851855  0  0  -0.762723  -0.704663  0  1.875149  0
O  O106  1  0.50171102  0.11144427  0.31095252  1  0  -0.716836  0  1.580154  0  0  -0.718475  0  1.864557  0  0  -0.740398  0  1.851209  0  0  -0.76204  -0.704619  0  1.874223  0
O  O107  1  0.39005644  0.88838397  0.18909751  1  0  -0.717043  0  1.580787  0  0  -0.718408  0  1.86547  0  0  -0.740635  0  1.851927  0  0  -0.762813  -0.704668  0  1.875196  0
O  O108  1  0.26894069  0.92056236  0.55644159  1  0  -0.570769  0  1.877304  0  0  -0.573253  0  2.153656  0  0  -0.605971  0  2.158685  0  0  -0.294951  -0.549369  0  2.149352  0
O  O109  1  0.34880230  0.07964377  0.94361809  1  0  -0.570747  0  1.876987  0  0  -0.573066  0  2.153062  0  0  -0.60602  0  2.158039  0  0  -0.295299  -0.549198  0  2.14873  0
O  O110  1  0.73107243  0.07943200  0.44355619  1  0  -0.570767  0  1.87744  0  0  -0.573237  0  2.15377  0  0  -0.605962  0  2.158796  0  0  -0.294899  -0.549353  0  2.149465  0
O  O111  1  0.65118729  0.92035618  0.05637501  1  0  -0.57081  0  1.877143  0  0  -0.573138  0  2.153203  0  0  -0.60607  0  2.15818  0  0  -0.295346  -0.54927  0  2.148874  0
O  O112  1  0.61973787  0.79666291  0.29505249  1  0  -0.641635  0  1.983063  0  0  -0.620174  0  2.236694  0  0  -0.651859  0  2.232911  0  0  -0.353857  -0.597412  0  2.238093  0
O  O113  1  0.82296195  0.20332782  0.20505944  1  0  -0.641261  0  1.983378  0  0  -0.619901  0  2.236928  0  0  -0.651413  0  2.233022  0  0  -0.35404  -0.597158  0  2.238438  0
O  O114  1  0.38026804  0.20334752  0.70494747  1  0  -0.641541  0  1.983086  0  0  -0.620106  0  2.236751  0  0  -0.651795  0  2.232957  0  0  -0.353878  -0.597352  0  2.23813  0
O  O115  1  0.17703104  0.79667617  0.79493616  1  0  -0.641076  0  1.983407  0  0  -0.619671  0  2.236981  0  0  -0.651176  0  2.233076  0  0  -0.353991  -0.596932  0  2.238482  0
O  O116  1  0.84778587  0.88843889  0.21474929  1  0  -0.611681  0  1.950094  0  0  -0.592407  0  2.197504  0  0  -0.623048  0  2.193706  0  0  -0.328201  -0.570399  0  2.198911  0
O  O117  1  0.95944834  0.11155187  0.28529017  1  0  -0.611776  0  1.949941  0  0  -0.592732  0  2.19761  0  0  -0.623249  0  2.193787  0  0  -0.328288  -0.570741  0  2.199109  0
O  O118  1  0.15223731  0.11155064  0.78524658  1  0  -0.611659  0  1.950158  0  0  -0.592393  0  2.197558  0  0  -0.623051  0  2.193778  0  0  -0.328209  -0.570395  0  2.198954  0
O  O119  1  0.04055055  0.88844727  0.71470171  1  0  -0.611565  0  1.950268  0  0  -0.592503  0  2.198011  0  0  -0.62302  0  2.1942  0  0  -0.328124  -0.570513  0  2.199501  0
O  O120  1  0.34643150  0.65080994  0.71357005  1  0  -0.564856  0  1.929926  0  0  -0.566124  0  2.211129  0  0  -0.600993  0  2.218467  0  0  -0.298064  -0.540764  0  2.205209  0
O  O121  1  0.69556575  0.34917799  0.78631029  1  0  -0.564452  0  1.931385  0  0  -0.56558  0  2.212751  0  0  -0.600725  0  2.220113  0  0  -0.297872  -0.540226  0  2.206781  0
O  O122  1  0.65357673  0.34918849  0.28643684  1  0  -0.564685  0  1.929691  0  0  -0.565879  0  2.210786  0  0  -0.600758  0  2.218126  0  0  -0.297955  -0.540519  0  2.204871  0
O  O123  1  0.30443619  0.65083003  0.21368901  1  0  -0.564436  0  1.931361  0  0  -0.565574  0  2.212724  0  0  -0.600699  0  2.220087  0  0  -0.297877  -0.540221  0  2.206759  0
O  O124  1  0.79763642  0.54796972  0.00204178  1  0  -0.514251  0  2.135838  0  0  -0.458608  0  2.354032  0  0  -0.481707  0  2.339907  0  0  -0.30387  -0.442537  0  2.363377  0
O  O125  1  0.24974992  0.45231909  0.49799698  1  0  -0.514286  0  2.135193  0  0  -0.458864  0  2.354133  0  0  -0.481985  0  2.339983  0  0  -0.304134  -0.442786  0  2.363519  0
O  O126  1  0.20234228  0.45202231  0.99797037  1  0  -0.513981  0  2.136145  0  0  -0.458396  0  2.354367  0  0  -0.481493  0  2.340242  0  0  -0.303765  -0.442324  0  2.363709  0
O  O127  1  0.75025118  0.54768170  0.50200215  1  0  -0.514167  0  2.135275  0  0  -0.458807  0  2.354194  0  0  -0.481927  0  2.340041  0  0  -0.304104  -0.442721  0  2.363598  0
O  O128  1  0.00308928  0.53113796  0.90234001  1  0  -0.561922  0  2.031585  0  0  -0.512026  0  2.256863  0  0  -0.534204  0  2.246641  0  0  -0.272214  -0.49694  0  2.263794  0
O  O129  1  0.47174519  0.46852925  0.59768879  1  0  -0.562641  0  2.029651  0  0  -0.512267  0  2.255195  0  0  -0.534452  0  2.244908  0  0  -0.272428  -0.497175  0  2.262176  0
O  O130  1  0.99689799  0.46886289  0.09766994  1  0  -0.561925  0  2.031376  0  0  -0.512035  0  2.256635  0  0  -0.534218  0  2.246415  0  0  -0.272195  -0.496945  0  2.263575  0
O  O131  1  0.52824979  0.53147314  0.40231038  1  0  -0.562588  0  2.029016  0  0  -0.512315  0  2.254525  0  0  -0.534506  0  2.244245  0  0  -0.27244  -0.497229  0  2.261502  0
