# generated using pymatgen
data_CoH7C9NO4
_symmetry_space_group_name_H-M   'P 1'
_cell_length_a   11.23827912
_cell_length_b   13.49269104
_cell_length_c   13.49084743
_cell_angle_alpha   112.60569281
_cell_angle_beta   106.12971697
_cell_angle_gamma   106.12666587
_symmetry_Int_Tables_number   1
_chemical_formula_structural   CoH7C9NO4
_chemical_formula_sum   'Co6 H42 C54 N6 O24'
_cell_volume   1634.74237129
_cell_formula_units_Z   6
loop_
 _symmetry_equiv_pos_site_id
 _symmetry_equiv_pos_as_xyz
  1  'x, y, z'
loop_
 _atom_site_type_symbol
 _atom_site_label
 _atom_site_symmetry_multiplicity
 _atom_site_fract_x
 _atom_site_fract_y
 _atom_site_fract_z
 _atom_site_occupancy
 _atom_site_pbe_bader_charge
 _atom_site_pbe_bader_spin_density
 _atom_site_pbe_cm5_charge
 _atom_site_pbe_ddec_charge
 _atom_site_pbe_ddec_spin_density
 _atom_site_pbe_ddec_sum_bond_order
 _atom_site_pbe_magmom
Co  Co0  1  0.68644831  0.27187935  0.07931805  1  1.33386  2.628375  0.669502  0.974207  2.847476  2.450981  2.613
Co  Co1  1  0.60716062  0.92075043  0.19266069  1  1.34032  2.627868  0.668781  0.973327  2.847116  2.450095  2.613
Co  Co2  1  0.41424295  0.80713826  0.72791227  1  1.337436  2.628588  0.66875  0.973285  2.84899  2.449951  2.613
Co  Co3  1  0.31344599  0.72801833  0.92068106  1  1.333742  2.628371  0.669496  0.974402  2.847456  2.45136  2.613
Co  Co4  1  0.39285345  0.07926129  0.80728195  1  1.340537  2.627815  0.669053  0.973605  2.847041  2.451086  2.613
Co  Co5  1  0.58572633  0.19288683  0.27212504  1  1.338199  2.628889  0.668843  0.973539  2.849414  2.451154  2.614
H  H6  1  0.61024925  0.93845490  0.46994637  1  0.120619  0.001036  0.109322  0.127984  0.000507  1.021091  0.0
H  H7  1  0.14034039  0.53011167  0.46845041  1  0.143216  0.000998  0.109498  0.127806  0.000489  1.020265  0.0
H  H8  1  0.67192784  0.53144744  0.06159861  1  0.159211  0.000991  0.109379  0.127661  0.000499  1.020871  0.0
H  H9  1  0.38986012  0.06177334  0.53028162  1  0.120089  0.001036  0.109222  0.127663  0.000506  1.021165  0.0
H  H10  1  0.85963941  0.46988045  0.53155007  1  0.143434  0.000997  0.109475  0.127746  0.000489  1.020258  0.0
H  H11  1  0.32802194  0.46849480  0.93845949  1  0.15899  0.000992  0.109308  0.127851  0.000499  1.020614  0.0
H  H12  1  0.70675095  0.98969760  0.84254461  1  0.10747  0.01041  0.116144  0.029491  0.004194  0.974213  0.006
H  H13  1  0.86489471  0.15755530  0.14762584  1  0.100647  0.010511  0.116506  0.029836  0.004226  0.973361  0.006
H  H14  1  0.71699760  0.85281912  0.01032506  1  0.106126  0.010417  0.116164  0.030031  0.004195  0.97322  0.006
H  H15  1  0.29321035  0.01025176  0.15741440  1  0.107206  0.010411  0.116106  0.029535  0.004193  0.973891  0.006
H  H16  1  0.13498877  0.84266575  0.85236847  1  0.099585  0.010525  0.116455  0.02971  0.004232  0.972945  0.006
H  H17  1  0.28294602  0.14728882  0.98981650  1  0.105358  0.010447  0.11622  0.029947  0.004207  0.973241  0.006
H  H18  1  0.50620841  0.95140398  0.61604835  1  0.11962  0.001399  0.119535  0.094176  -9.9e-05  1.021141  0.001
H  H19  1  0.89004498  0.38409385  0.33536614  1  0.127211  0.001411  0.119348  0.09409  -7.5e-05  1.021266  0.001
H  H20  1  0.55470676  0.66438893  0.04834140  1  0.115099  0.001407  0.119358  0.094068  -6.2e-05  1.021029  0.001
H  H21  1  0.49382524  0.04876188  0.38415060  1  0.115836  0.001403  0.119413  0.094016  -9.6e-05  1.021087  0.001
H  H22  1  0.10988134  0.61600873  0.66473076  1  0.128593  0.00142  0.119381  0.094056  -7.1e-05  1.021468  0.001
H  H23  1  0.44534568  0.33557914  0.95159429  1  0.114879  0.001412  0.119281  0.094014  -5.7e-05  1.020868  0.001
H  H24  1  0.54680083  0.65724438  0.61936122  1  0.09088  0.001859  0.117663  0.092148  0.000421  1.014755  0.001
H  H25  1  0.92706613  0.38021508  0.03761175  1  0.133865  0.001866  0.11776  0.092009  0.000416  1.01508  0.001
H  H26  1  0.88940805  0.96225159  0.34249709  1  0.087285  0.001856  0.117554  0.092033  0.000416  1.015843  0.001
H  H27  1  0.45341100  0.34298832  0.38085622  1  0.087227  0.001857  0.117705  0.092173  0.000419  1.014511  0.001
H  H28  1  0.07273366  0.61970308  0.96238784  1  0.134912  0.001867  0.117849  0.092142  0.000417  1.014652  0.001
H  H29  1  0.11063530  0.03775924  0.65743577  1  0.088061  0.001858  0.117539  0.091952  0.000417  1.015803  0.001
H  H30  1  0.63955569  0.58861394  0.29201522  1  0.061807  0.0011  0.100353  0.116925  0.000438  1.028154  0.001
H  H31  1  0.34776475  0.70766543  0.29644906  1  0.058762  0.001087  0.100354  0.116318  0.000429  1.028881  0.001
H  H32  1  0.05106576  0.70359648  0.41117490  1  0.065937  0.001098  0.100282  0.116353  0.000434  1.029414  0.001
H  H33  1  0.36057305  0.41159112  0.70813433  1  0.061521  0.001098  0.100221  0.116481  0.000437  1.028958  0.001
H  H34  1  0.65256156  0.29194813  0.70357610  1  0.062137  0.001085  0.100381  0.116477  0.00043  1.028346  0.001
H  H35  1  0.94896428  0.29624330  0.58869012  1  0.068124  0.001093  0.100308  0.116398  0.000434  1.028825  0.001
H  H36  1  0.67481506  0.77345484  0.39271552  1  0.067451  -0.00021  0.109099  0.111748  -0.000404  1.001696  0.0
H  H37  1  0.28202721  0.60707585  0.38044361  1  0.12097  -0.000144  0.109349  0.111783  -0.000381  1.001035  0.0
H  H38  1  0.90154055  0.61959992  0.22685830  1  0.081345  -0.000171  0.109415  0.112282  -0.000381  1.00186  0.0
H  H39  1  0.32519307  0.22678673  0.60740708  1  0.064857  -0.000215  0.109157  0.111893  -0.000405  1.00238  0.0
H  H40  1  0.71792912  0.39274521  0.61948145  1  0.119954  -0.000146  0.109299  0.111781  -0.000382  1.000844  0.0
H  H41  1  0.09859462  0.38044922  0.77303369  1  0.083044  -0.000168  0.10945  0.112279  -0.000382  1.001699  0.0
H  H42  1  0.64255747  0.54626856  0.50147396  1  0.090146  5.6e-05  0.105218  0.103027  -0.000221  1.010772  0.0
H  H43  1  0.14062796  0.49860876  0.04455118  1  0.054646  2.2e-05  0.105359  0.10305  -0.000199  1.011288  0.0
H  H44  1  0.09614261  0.95549022  0.45414965  1  0.086169  6.3e-05  0.105581  0.103579  -0.000205  1.010057  0.0
H  H45  1  0.35750745  0.45392937  0.49866676  1  0.089112  5.4e-05  0.105296  0.103234  -0.000221  1.010588  0.0
H  H46  1  0.85918219  0.50141986  0.95539749  1  0.055211  2.1e-05  0.105523  0.10323  -0.0002  1.011533  0.0
H  H47  1  0.90407015  0.04440393  0.54579539  1  0.08488  5.8e-05  0.105533  0.103941  -0.000207  1.009954  0.0
C  C48  1  0.59621617  0.87429212  0.50087782  1  -0.018787  0.007478  -0.083829  -0.120571  0.003458  3.976701  0.006
C  C49  1  0.09526755  0.49908510  0.37329281  1  -0.067566  0.007229  -0.083411  -0.11936  0.003374  3.975313  0.006
C  C50  1  0.72193025  0.62656175  0.12570972  1  -0.118828  0.007293  -0.083598  -0.119251  0.003409  3.976654  0.006
C  C51  1  0.40382149  0.12591472  0.49930142  1  -0.014955  0.00749  -0.083427  -0.120076  0.003463  3.976711  0.006
C  C52  1  0.90468371  0.50084465  0.62670156  1  -0.06711  0.007236  -0.083379  -0.119341  0.003376  3.975104  0.006
C  C53  1  0.27807837  0.37341700  0.87423311  1  -0.038289  0.007361  -0.083512  -0.119628  0.003413  3.976262  0.006
C  C54  1  0.65528928  0.04505856  0.87588787  1  1.504538  -0.002953  0.156059  0.513998  -0.004472  4.145631  -0.002
C  C55  1  0.77997634  0.12409483  0.16953954  1  1.534955  -0.003102  0.155725  0.513529  -0.004609  4.147754  -0.002
C  C56  1  0.61009893  0.83060602  0.95474092  1  1.526249  -0.002748  0.15636  0.513865  -0.004216  4.144927  -0.002
C  C57  1  0.34474776  0.95492911  0.12408876  1  1.506301  -0.002942  0.156238  0.513919  -0.004446  4.146041  -0.002
C  C58  1  0.21990451  0.87583936  0.83033547  1  1.536511  -0.003148  0.155642  0.513594  -0.004655  4.146827  -0.002
C  C59  1  0.38983208  0.16940926  0.04528883  1  1.52471  -0.002798  0.156157  0.513654  -0.004268  4.145321  -0.002
C  C60  1  0.65917084  0.43377618  0.29359610  1  1.535356  -0.010205  0.203444  0.615297  -0.011614  4.193769  -0.007
C  C61  1  0.36533116  0.70634914  0.13995081  1  1.538238  -0.010029  0.204192  0.615612  -0.01139  4.193048  -0.006
C  C62  1  0.22542210  0.85999741  0.56627999  1  1.527014  -0.010037  0.204413  0.615232  -0.011566  4.194158  -0.007
C  C63  1  0.34073060  0.56624978  0.70637595  1  1.535229  -0.010187  0.203567  0.615386  -0.011597  4.193809  -0.007
C  C64  1  0.63478129  0.29350848  0.86005899  1  1.53627  -0.010015  0.204814  0.616001  -0.011385  4.193035  -0.006
C  C65  1  0.77447936  0.13993590  0.43364845  1  1.55304  -0.010096  0.204285  0.615267  -0.011574  4.194172  -0.007
C  C66  1  0.53948453  0.88196513  0.58173417  1  0.433714  -0.015494  0.042419  0.074878  -0.016619  3.93166  -0.01
C  C67  1  0.95765264  0.41824837  0.30018058  1  0.450271  -0.014173  0.042179  0.074229  -0.015215  3.932786  -0.009
C  C68  1  0.65739947  0.69961720  0.11790720  1  0.463629  -0.014228  0.042264  0.0745  -0.015236  3.932088  -0.009
C  C69  1  0.46055384  0.11820786  0.41842562  1  0.438328  -0.015491  0.042712  0.07526  -0.016616  3.931773  -0.01
C  C70  1  0.04228910  0.58172950  0.69987518  1  0.4502  -0.014179  0.042373  0.074687  -0.015221  3.933442  -0.009
C  C71  1  0.34265175  0.30037047  0.88201791  1  0.466163  -0.014258  0.042303  0.074235  -0.015249  3.931859  -0.009
C  C72  1  0.56174082  0.71707367  0.58327363  1  0.467072  -0.008786  0.051599  0.044524  -0.00952  3.898857  -0.006
C  C73  1  0.97826013  0.41644674  0.13357587  1  0.503414  -0.009663  0.051555  0.045265  -0.010355  3.899339  -0.006
C  C74  1  0.84455576  0.86628583  0.28283399  1  0.51498  -0.0098  0.051317  0.044265  -0.010513  3.89915  -0.007
C  C75  1  0.43835980  0.28309932  0.41686519  1  0.472688  -0.008789  0.051624  0.04474  -0.009525  3.898509  -0.006
C  C76  1  0.02162404  0.58344916  0.86641573  1  0.502118  -0.009664  0.05136  0.045009  -0.010358  3.898881  -0.006
C  C77  1  0.15552935  0.13373213  0.71706916  1  0.529961  -0.009791  0.051266  0.044234  -0.010496  3.899311  -0.006
C  C78  1  0.64697540  0.54651344  0.34673344  1  0.073085  0.014412  -0.09998  -0.231364  0.007219  3.921888  0.011
C  C79  1  0.30017750  0.65311133  0.19957992  1  0.033377  0.014511  -0.100535  -0.230533  0.007245  3.920802  0.011
C  C80  1  0.10056220  0.80040543  0.45343295  1  0.026553  0.014532  -0.100302  -0.229868  0.007277  3.921419  0.011
C  C81  1  0.35306373  0.45359184  0.65333167  1  0.073287  0.014415  -0.099872  -0.231041  0.00722  3.923622  0.011
C  C82  1  0.69999396  0.34666078  0.80043176  1  0.036674  0.014504  -0.100608  -0.230452  0.007242  3.920656  0.011
C  C83  1  0.89941518  0.19941028  0.54638825  1  -0.003103  0.014518  -0.100094  -0.229604  0.007244  3.921694  0.011
C  C84  1  0.61411795  0.69891449  0.49791497  1  0.007762  0.006327  -0.009546  0.053515  0.002875  4.040466  0.006
C  C85  1  0.11599146  0.50189293  0.20074891  1  -0.035739  0.006295  -0.009073  0.053269  0.002838  4.041736  0.006
C  C86  1  0.91520879  0.79924184  0.30115536  1  0.03071  0.006333  -0.008837  0.054501  0.002847  4.040667  0.006
C  C87  1  0.38594109  0.30123800  0.50217363  1  0.008607  0.00633  -0.009165  0.053716  0.002875  4.040377  0.006
C  C88  1  0.88393101  0.49799584  0.79921338  1  -0.038145  0.006298  -0.008864  0.053811  0.002838  4.040892  0.006
C  C89  1  0.08491561  0.20077256  0.69869634  1  0.021437  0.006338  -0.00912  0.054441  0.002845  4.0402  0.006
C  C90  1  0.63284530  0.78161785  0.45773630  1  -0.025643  -0.018882  -0.064461  -0.072374  -0.019811  3.900032  -0.011
C  C91  1  0.17500227  0.54207216  0.32364481  1  -0.07604  -0.017418  -0.064454  -0.072015  -0.018238  3.899144  -0.011
C  C92  1  0.85126858  0.67631901  0.21848973  1  -0.008246  -0.017547  -0.064303  -0.072823  -0.018435  3.901932  -0.011
C  C93  1  0.36716139  0.21857116  0.54239624  1  -0.026687  -0.018879  -0.064972  -0.07304  -0.019814  3.900686  -0.011
C  C94  1  0.82492406  0.45776494  0.67628749  1  -0.077893  -0.017425  -0.064658  -0.072434  -0.018247  3.898537  -0.011
C  C95  1  0.14881695  0.32370874  0.78139057  1  -0.094278  -0.01761  -0.064197  -0.072456  -0.018438  3.900798  -0.011
C  C96  1  0.63812897  0.59314299  0.45094905  1  -0.148895  -0.014512  -0.07856  -0.077491  -0.015579  3.991751  -0.009
C  C97  1  0.18690774  0.54898741  0.14198234  1  -0.087241  -0.014005  -0.078803  -0.078171  -0.015019  3.991666  -0.008
C  C98  1  0.04497763  0.85807834  0.40699433  1  -0.137526  -0.014311  -0.078982  -0.079166  -0.015254  3.990597  -0.008
C  C99  1  0.36191779  0.40699792  0.54913298  1  -0.149293  -0.014507  -0.078675  -0.077748  -0.015576  3.99177  -0.009
C  C100  1  0.81304800  0.45092542  0.85801105  1  -0.089768  -0.014044  -0.079209  -0.07892  -0.015062  3.991577  -0.008
C  C101  1  0.95511950  0.14180777  0.59283153  1  -0.13682  -0.01431  -0.078849  -0.079941  -0.015251  3.990909  -0.008
N  N102  1  0.52236144  0.80423644  0.62227858  1  -1.211031  0.060374  -0.326476  -0.250999  0.03195  3.617027  0.055
N  N103  1  0.89998955  0.37755845  0.18186726  1  -1.226401  0.060616  -0.326392  -0.249871  0.032113  3.618924  0.055
N  N104  1  0.71792208  0.81790939  0.19557521  1  -1.221043  0.060405  -0.325993  -0.250467  0.031925  3.616854  0.055
N  N105  1  0.47769995  0.19590091  0.37785519  1  -1.212154  0.060412  -0.326717  -0.251161  0.031978  3.616998  0.055
N  N106  1  0.09993044  0.62237398  0.81815489  1  -1.225112  0.060651  -0.326368  -0.249999  0.032138  3.619531  0.055
N  N107  1  0.28214873  0.18210233  0.80433554  1  -1.224683  0.060449  -0.326105  -0.250057  0.031939  3.617094  0.055
O  O108  1  0.65953222  0.40182331  0.19146309  1  -1.139547  0.092325  -0.310049  -0.555151  0.047875  2.397781  0.082
O  O109  1  0.46778549  0.80853289  0.21011157  1  -1.143964  0.093237  -0.309562  -0.55379  0.048344  2.396667  0.083
O  O110  1  0.25772613  0.78978875  0.59818289  1  -1.143701  0.09361  -0.309837  -0.553908  0.048531  2.398875  0.083
O  O111  1  0.34032281  0.59815810  0.80848916  1  -1.13876  0.092447  -0.31014  -0.555277  0.047936  2.398408  0.082
O  O112  1  0.53230536  0.19135323  0.78985069  1  -1.144364  0.093317  -0.309953  -0.55414  0.048382  2.397652  0.083
O  O113  1  0.74227306  0.21023099  0.40182974  1  -1.142106  0.093727  -0.309835  -0.554029  0.048595  2.398479  0.083
O  O114  1  0.73025441  0.15053305  0.95960828  1  -1.176013  0.066411  -0.305551  -0.512471  0.035002  2.405307  0.057
O  O115  1  0.77119019  0.04036530  0.19124034  1  -1.159701  0.066426  -0.305642  -0.512416  0.034928  2.405607  0.057
O  O116  1  0.57963976  0.80875660  0.84928636  1  -1.159433  0.06623  -0.305352  -0.511956  0.034918  2.403117  0.057
O  O117  1  0.26988929  0.84944306  0.04049867  1  -1.177022  0.066326  -0.30562  -0.512354  0.03495  2.407103  0.057
O  O118  1  0.22895314  0.95963395  0.80867895  1  -1.159545  0.066308  -0.305859  -0.512776  0.034885  2.405558  0.057
O  O119  1  0.42031656  0.19111526  0.15073597  1  -1.159161  0.066432  -0.305368  -0.511956  0.035015  2.403017  0.057
O  O120  1  0.52328602  0.99377811  0.82518139  1  -1.129289  0.107951  -0.308686  -0.557793  0.05834  2.616598  0.096
O  O121  1  0.69867665  0.17476853  0.16891792  1  -1.168906  0.107339  -0.308677  -0.55833  0.058056  2.616589  0.096
O  O122  1  0.52933424  0.83116688  0.00596863  1  -1.16516  0.10788  -0.308571  -0.558097  0.058229  2.617662  0.096
O  O123  1  0.47676901  0.00633517  0.17474154  1  -1.129426  0.108154  -0.308728  -0.557589  0.058459  2.61575  0.096
O  O124  1  0.30089149  0.82486272  0.83077220  1  -1.169767  0.107283  -0.308167  -0.557864  0.05803  2.616296  0.096
O  O125  1  0.47057144  0.16894550  0.99405305  1  -1.163371  0.107854  -0.308376  -0.557629  0.058222  2.617939  0.096
O  O126  1  0.66601114  0.37574576  0.34950353  1  -1.169857  0.069449  -0.314075  -0.575127  0.036102  2.360531  0.059
O  O127  1  0.31615664  0.65044606  0.02598089  1  -1.171412  0.06958  -0.314253  -0.575658  0.036171  2.359546  0.059
O  O128  1  0.29025166  0.97395942  0.62441728  1  -1.171845  0.069565  -0.314076  -0.575103  0.036228  2.361273  0.059
O  O129  1  0.33382703  0.62424990  0.65043243  1  -1.171069  0.069439  -0.314385  -0.575153  0.036088  2.359662  0.059
O  O130  1  0.68383527  0.34944094  0.97401185  1  -1.170773  0.069472  -0.31439  -0.575779  0.036133  2.360155  0.059
O  O131  1  0.70943888  0.02599525  0.37551058  1  -1.172554  0.069388  -0.314177  -0.575154  0.036142  2.361237  0.059
