# generated using pymatgen
data_CuH8C12IN2O
_symmetry_space_group_name_H-M   'P 1'
_cell_length_a   3.96719464
_cell_length_b   14.65059593
_cell_length_c   20.56435290
_cell_angle_alpha   104.20653795
_cell_angle_beta   90.00038524
_cell_angle_gamma   90.00057711
_symmetry_Int_Tables_number   1
_chemical_formula_structural   CuH8C12IN2O
_chemical_formula_sum   'Cu4 H32 C48 I4 N8 O4'
_cell_volume   1158.68300243
_cell_formula_units_Z   4
loop_
 _symmetry_equiv_pos_site_id
 _symmetry_equiv_pos_as_xyz
  1  'x, y, z'
loop_
 _atom_site_type_symbol
 _atom_site_label
 _atom_site_symmetry_multiplicity
 _atom_site_fract_x
 _atom_site_fract_y
 _atom_site_fract_z
 _atom_site_occupancy
 _atom_site_hle17_bader_spin_density
 _atom_site_hle17_ddec_charge
 _atom_site_hle17_ddec_spin_density
 _atom_site_hle17_ddec_sum_bond_order
 _atom_site_hle17_magmom
 _atom_site_hse06_10hf_bader_spin_density
 _atom_site_hse06_10hf_ddec_charge
 _atom_site_hse06_10hf_ddec_spin_density
 _atom_site_hse06_10hf_ddec_sum_bond_order
 _atom_site_hse06_10hf_magmom
 _atom_site_hse06_bader_spin_density
 _atom_site_hse06_ddec_charge
 _atom_site_hse06_ddec_spin_density
 _atom_site_hse06_ddec_sum_bond_order
 _atom_site_hse06_magmom
 _atom_site_pbe_bader_spin_density
 _atom_site_pbe_cm5_charge
 _atom_site_pbe_ddec_charge
 _atom_site_pbe_ddec_spin_density
 _atom_site_pbe_ddec_sum_bond_order
 _atom_site_pbe_magmom
Cu  Cu0  1  0.25713127  0.43853836  0.99852024  1  0  0.221053  0  2.261103  0  0  0.14411  0  2.748051  0  0  0.155447  0  2.691627  0  0  0.245291  0.138717  0  2.78579  0
Cu  Cu1  1  0.25714860  0.06146107  0.50147744  1  0  0.221086  0  2.261097  0  0  0.144155  0  2.747998  0  0  0.155533  0  2.691586  0  0  0.24534  0.138784  0  2.785703  0
Cu  Cu2  1  0.74284005  0.56147022  0.00148340  1  0  0.221037  0  2.261125  0  0  0.144092  0  2.748052  0  0  0.155443  0  2.691629  0  0  0.245317  0.138704  0  2.785804  0
Cu  Cu3  1  0.74286054  0.93853413  0.49851754  1  0  0.220988  0  2.261189  0  0  0.143999  0  2.748148  0  0  0.155312  0  2.691728  0  0  0.245304  0.138617  0  2.785902  0
H  H4  1  0.33865200  0.09935851  0.01710405  1  0  0.117657  0  0.933782  0  0  0.126465  0  0.99325  0  0  0.131282  0  0.989787  0  0  0.109855  0.123025  0  0.995888  0
H  H5  1  0.33867560  0.40064326  0.48289672  1  0  0.117658  0  0.933674  0  0  0.126474  0  0.993135  0  0  0.131294  0  0.989666  0  0  0.10985  0.123032  0  0.995779  0
H  H6  1  0.66135209  0.90065148  0.98290519  1  0  0.117851  0  0.933636  0  0  0.12668  0  0.993082  0  0  0.131498  0  0.989615  0  0  0.109916  0.123238  0  0.995724  0
H  H7  1  0.66133858  0.59935898  0.51710143  1  0  0.117714  0  0.933738  0  0  0.126534  0  0.993188  0  0  0.131354  0  0.989714  0  0  0.109835  0.123071  0  0.995855  0
H  H8  1  0.56652675  0.86149606  0.28006410  1  0  0.086462  0  0.986304  0  0  0.098363  0  1.04801  0  0  0.101103  0  1.047189  0  0  0.083927  0.096253  0  1.048863  0
H  H9  1  0.56648885  0.63849078  0.21993112  1  0  0.086408  0  0.986146  0  0  0.098262  0  1.047916  0  0  0.101002  0  1.047095  0  0  0.083853  0.096146  0  1.048765  0
H  H10  1  0.43348995  0.13849350  0.71993039  1  0  0.0864  0  0.986219  0  0  0.098295  0  1.047932  0  0  0.101035  0  1.047113  0  0  0.083874  0.096183  0  1.048781  0
H  H11  1  0.43344971  0.36150160  0.78006726  1  0  0.08642  0  0.986174  0  0  0.098313  0  1.047903  0  0  0.101051  0  1.047081  0  0  0.083916  0.096198  0  1.048759  0
H  H12  1  0.53055938  0.03409551  0.29193683  1  0  0.104731  0  0.952228  0  0  0.115822  0  1.013527  0  0  0.118012  0  1.013301  0  0  0.103071  0.114204  0  1.013786  0
H  H13  1  0.53054320  0.46589003  0.20806331  1  0  0.104796  0  0.952248  0  0  0.115907  0  1.013495  0  0  0.118096  0  1.013275  0  0  0.103126  0.1143  0  1.013723  0
H  H14  1  0.46942708  0.96589265  0.70806179  1  0  0.104794  0  0.95212  0  0  0.115897  0  1.013404  0  0  0.118088  0  1.013179  0  0  0.1031  0.114288  0  1.013635  0
H  H15  1  0.46943569  0.53410235  0.79193313  1  0  0.104783  0  0.952206  0  0  0.115877  0  1.013484  0  0  0.118068  0  1.013259  0  0  0.103096  0.114264  0  1.013723  0
H  H16  1  0.45004928  0.23715775  0.96872378  1  0  0.070008  0  0.966736  0  0  0.076074  0  1.039041  0  0  0.079367  0  1.036107  0  0  0.10296  0.073551  0  1.04136  0
H  H17  1  0.45008512  0.26283952  0.53127524  1  0  0.070028  0  0.9667  0  0  0.076079  0  1.039019  0  0  0.079374  0  1.03608  0  0  0.102929  0.073553  0  1.041338  0
H  H18  1  0.54991701  0.76284660  0.03127669  1  0  0.070088  0  0.966744  0  0  0.076112  0  1.039064  0  0  0.079407  0  1.036126  0  0  0.10294  0.073587  0  1.041389  0
H  H19  1  0.54993662  0.73716060  0.46872157  1  0  0.070089  0  0.966687  0  0  0.076158  0  1.038982  0  0  0.079454  0  1.036042  0  0  0.102979  0.073633  0  1.041308  0
H  H20  1  0.13096065  0.82119916  0.09525840  1  0  0.105921  0  0.975954  0  0  0.11371  0  1.043466  0  0  0.116608  0  1.042307  0  0  0.096584  0.111578  0  1.044354  0
H  H21  1  0.13092300  0.67880661  0.40473857  1  0  0.105869  0  0.97598  0  0  0.113652  0  1.043524  0  0  0.116563  0  1.04233  0  0  0.096532  0.111515  0  1.044427  0
H  H22  1  0.86908125  0.17881363  0.90473819  1  0  0.105825  0  0.976035  0  0  0.113582  0  1.043624  0  0  0.116493  0  1.04243  0  0  0.09651  0.111444  0  1.044525  0
H  H23  1  0.86905085  0.32119421  0.59525302  1  0  0.10589  0  0.975977  0  0  0.113667  0  1.043519  0  0  0.116574  0  1.042331  0  0  0.096561  0.111534  0  1.044407  0
H  H24  1  0.86184773  0.75716051  0.18337636  1  0  0.086624  0  0.978674  0  0  0.097765  0  1.041123  0  0  0.10038  0  1.040362  0  0  0.087401  0.095641  0  1.042082  0
H  H25  1  0.86179430  0.74283437  0.31661823  1  0  0.086576  0  0.978691  0  0  0.097796  0  1.041039  0  0  0.1004  0  1.040291  0  0  0.087396  0.095665  0  1.042016  0
H  H26  1  0.13822442  0.24284031  0.81661815  1  0  0.086636  0  0.978704  0  0  0.097873  0  1.041029  0  0  0.10047  0  1.04029  0  0  0.087409  0.095777  0  1.041984  0
H  H27  1  0.13814930  0.25716082  0.68337773  1  0  0.08658  0  0.978631  0  0  0.097688  0  1.041118  0  0  0.100338  0  1.040321  0  0  0.087355  0.095555  0  1.042095  0
H  H28  1  0.88924405  0.29363635  0.18838725  1  0  0.123631  0  0.960887  0  0  0.127581  0  1.030065  0  0  0.131994  0  1.027168  0  0  0.11099  0.124471  0  1.03217  0
H  H29  1  0.88924455  0.20636589  0.31161141  1  0  0.12359  0  0.960788  0  0  0.12763  0  1.029898  0  0  0.132034  0  1.027028  0  0  0.111006  0.124523  0  1.031997  0
H  H30  1  0.11079030  0.70637716  0.81162260  1  0  0.123572  0  0.960941  0  0  0.127566  0  1.030051  0  0  0.131979  0  1.027153  0  0  0.111008  0.124454  0  1.03216  0
H  H31  1  0.11075450  0.79363212  0.68838455  1  0  0.123687  0  0.960883  0  0  0.12764  0  1.030034  0  0  0.132055  0  1.02713  0  0  0.111006  0.124526  0  1.032152  0
H  H32  1  0.01245962  0.42289839  0.13088311  1  0  0.071386  0  0.971202  0  0  0.076184  0  1.046405  0  0  0.079612  0  1.04331  0  0  0.102481  0.073493  0  1.048937  0
H  H33  1  0.01245482  0.07710087  0.36911630  1  0  0.071456  0  0.971246  0  0  0.076255  0  1.046415  0  0  0.079667  0  1.04333  0  0  0.102496  0.073566  0  1.048939  0
H  H34  1  0.98751675  0.57711160  0.86912126  1  0  0.071523  0  0.971127  0  0  0.076283  0  1.046373  0  0  0.079723  0  1.043263  0  0  0.102575  0.07359  0  1.048908  0
H  H35  1  0.98754172  0.92289997  0.63088502  1  0  0.071483  0  0.971213  0  0  0.076285  0  1.046384  0  0  0.079707  0  1.04329  0  0  0.102514  0.073595  0  1.048913  0
C  C36  1  0.26253701  0.16982488  0.04430947  1  0  -0.140158  0  3.700773  0  0  -0.166034  0  3.956995  0  0  -0.17138  0  3.975212  0  0  -0.084662  -0.162602  0  3.944927  0
C  C37  1  0.26255960  0.33017452  0.45569127  1  0  -0.140104  0  3.70067  0  0  -0.165995  0  3.956849  0  0  -0.171341  0  3.975069  0  0  -0.084665  -0.162558  0  3.944758  0
C  C38  1  0.73746709  0.83018793  0.95569977  1  0  -0.140384  0  3.700697  0  0  -0.166302  0  3.956919  0  0  -0.171646  0  3.975128  0  0  -0.084758  -0.162872  0  3.944855  0
C  C39  1  0.73746718  0.66982279  0.54430554  1  0  -0.14022  0  3.700799  0  0  -0.166109  0  3.956987  0  0  -0.171455  0  3.975212  0  0  -0.084661  -0.162658  0  3.94493  0
C  C40  1  0.81390647  0.02500181  0.19990642  1  0  0.122871  0  3.855892  0  0  0.124785  0  4.105869  0  0  0.125245  0  4.129325  0  0  0.07912  0.124484  0  4.090108  0
C  C41  1  0.81388370  0.47499033  0.30009476  1  0  0.122888  0  3.855672  0  0  0.1246  0  4.105875  0  0  0.125061  0  4.129335  0  0  0.079004  0.124296  0  4.090114  0
C  C42  1  0.18610266  0.97499621  0.80009392  1  0  0.123051  0  3.855779  0  0  0.124894  0  4.105823  0  0  0.125356  0  4.129277  0  0  0.079063  0.124589  0  4.09006  0
C  C43  1  0.18608511  0.52500276  0.69990424  1  0  0.122905  0  3.855837  0  0  0.124665  0  4.105974  0  0  0.125127  0  4.12943  0  0  0.079027  0.124362  0  4.090209  0
C  C44  1  0.68416395  0.89182212  0.24232467  1  0  -0.073243  0  3.778847  0  0  -0.090419  0  4.032924  0  0  -0.093111  0  4.055427  0  0  -0.099343  -0.088794  0  4.018199  0
C  C45  1  0.68411866  0.60816584  0.25767675  1  0  -0.072964  0  3.778445  0  0  -0.090087  0  4.032534  0  0  -0.092775  0  4.055037  0  0  -0.099227  -0.088452  0  4.017797  0
C  C46  1  0.31586536  0.10817167  0.75767494  1  0  -0.072946  0  3.778594  0  0  -0.090102  0  4.032685  0  0  -0.09279  0  4.055183  0  0  -0.099214  -0.088472  0  4.017964  0
C  C47  1  0.31582998  0.39182373  0.74232358  1  0  -0.072973  0  3.778307  0  0  -0.090125  0  4.032345  0  0  -0.092816  0  4.054857  0  0  -0.099251  -0.088502  0  4.017622  0
C  C48  1  0.66242757  0.98871783  0.24969413  1  0  -0.124263  0  3.720977  0  0  -0.144101  0  3.9706  0  0  -0.146334  0  3.991984  0  0  -0.090199  -0.14261  0  3.956376  0
C  C49  1  0.66241376  0.51127498  0.25030907  1  0  -0.124608  0  3.72118  0  0  -0.144402  0  3.970853  0  0  -0.14664  0  3.992245  0  0  -0.090315  -0.142906  0  3.956632  0
C  C50  1  0.33757400  0.01127879  0.75030889  1  0  -0.124498  0  3.721018  0  0  -0.144331  0  3.970674  0  0  -0.146569  0  3.992064  0  0  -0.090265  -0.142833  0  3.95645  0
C  C51  1  0.33754244  0.48872444  0.74969297  1  0  -0.124497  0  3.720901  0  0  -0.144279  0  3.970561  0  0  -0.146516  0  3.991945  0  0  -0.090263  -0.142785  0  3.956341  0
C  C52  1  0.32483637  0.24606739  0.01711777  1  0  0.117399  0  3.702682  0  0  0.089395  0  3.955426  0  0  0.095603  0  3.972352  0  0  0.036266  0.085201  0  3.944411  0
C  C53  1  0.32484701  0.25393082  0.48288041  1  0  0.117285  0  3.702868  0  0  0.08929  0  3.955584  0  0  0.095497  0  3.972515  0  0  0.036268  0.085113  0  3.94457  0
C  C54  1  0.67516520  0.75393908  0.98288452  1  0  0.117278  0  3.70345  0  0  0.089337  0  3.956167  0  0  0.095548  0  3.973088  0  0  0.036389  0.085146  0  3.945154  0
C  C55  1  0.67516717  0.74606931  0.51711592  1  0  0.117275  0  3.702992  0  0  0.089217  0  3.955731  0  0  0.09542  0  3.972664  0  0  0.036252  0.085035  0  3.944713  0
C  C56  1  0.09814260  0.18553878  0.10656901  1  0  0.029588  0  3.805238  0  0  0.040451  0  4.044338  0  0  0.042294  0  4.065132  0  0  0.006716  0.03909  0  4.030307  0
C  C57  1  0.09815744  0.31446218  0.39342984  1  0  0.029395  0  3.805208  0  0  0.04032  0  4.044267  0  0  0.04216  0  4.065066  0  0  0.006711  0.038971  0  4.030237  0
C  C58  1  0.90190435  0.81447333  0.89344156  1  0  0.029675  0  3.805159  0  0  0.040524  0  4.044314  0  0  0.04237  0  4.06511  0  0  0.006762  0.03917  0  4.030283  0
C  C59  1  0.90186682  0.68553583  0.60656466  1  0  0.029586  0  3.805183  0  0  0.040485  0  4.044238  0  0  0.042328  0  4.065041  0  0  0.006706  0.039128  0  4.030202  0
C  C60  1  0.00025273  0.86764312  0.13704168  1  0  -0.166945  0  3.776876  0  0  -0.187067  0  4.030169  0  0  -0.191792  0  4.051696  0  0  -0.101033  -0.183763  0  4.015743  0
C  C61  1  0.00021698  0.63235447  0.36295905  1  0  -0.166877  0  3.776634  0  0  -0.187014  0  4.029908  0  0  -0.191734  0  4.051439  0  0  -0.101044  -0.183713  0  4.015485  0
C  C62  1  0.99976649  0.13236053  0.86295624  1  0  -0.166497  0  3.776636  0  0  -0.186615  0  4.029869  0  0  -0.191335  0  4.051402  0  0  -0.10087  -0.183316  0  4.01546  0
C  C63  1  0.99973922  0.36764284  0.63704019  1  0  -0.166779  0  3.776891  0  0  -0.186911  0  4.030106  0  0  -0.191631  0  4.051645  0  0  -0.101008  -0.18361  0  4.015688  0
C  C64  1  0.97670787  0.96407138  0.14516095  1  0  0.184134  0  3.75953  0  0  0.173517  0  4.015442  0  0  0.180084  0  4.033647  0  0  0.07823  0.168965  0  4.003214  0
C  C65  1  0.97668594  0.53592461  0.35484030  1  0  0.184177  0  3.759279  0  0  0.173665  0  4.015178  0  0  0.18023  0  4.033386  0  0  0.078276  0.169113  0  4.002947  0
C  C66  1  0.02328615  0.03593086  0.85483769  1  0  0.183669  0  3.759609  0  0  0.17313  0  4.015478  0  0  0.179692  0  4.03369  0  0  0.078093  0.168579  0  4.003244  0
C  C67  1  0.02327279  0.46407129  0.64515772  1  0  0.184059  0  3.759286  0  0  0.173557  0  4.015158  0  0  0.180118  0  4.033363  0  0  0.0783  0.169003  0  4.002934  0
C  C68  1  0.84919289  0.83265212  0.18736483  1  0  -0.052274  0  3.748151  0  0  -0.067329  0  3.99971  0  0  -0.06848  0  4.021301  0  0  -0.093306  -0.06674  0  3.985611  0
C  C69  1  0.84913906  0.66734484  0.31263399  1  0  -0.052355  0  3.747871  0  0  -0.067478  0  3.999434  0  0  -0.068627  0  4.021034  0  0  -0.093268  -0.066889  0  3.985328  0
C  C70  1  0.15084145  0.16734870  0.81263016  1  0  -0.052503  0  3.748195  0  0  -0.067647  0  3.999812  0  0  -0.068789  0  4.021419  0  0  -0.093332  -0.067099  0  3.985688  0
C  C71  1  0.15080454  0.33265388  0.68736161  1  0  -0.05242  0  3.748323  0  0  -0.067463  0  3.999925  0  0  -0.068648  0  4.021512  0  0  -0.093323  -0.066873  0  3.985817  0
C  C72  1  0.00875615  0.10985165  0.13722100  1  0  0.367961  0  3.71481  0  0  0.334761  0  4.002648  0  0  0.35276  0  4.007808  0  0  0.216515  0.322726  0  3.998956  0
C  C73  1  0.00876516  0.39014970  0.36277828  1  0  0.368273  0  3.714854  0  0  0.335063  0  4.002648  0  0  0.353066  0  4.007802  0  0  0.216637  0.322999  0  3.998992  0
C  C74  1  0.99125551  0.89015694  0.86278555  1  0  0.36825  0  3.714583  0  0  0.335013  0  4.002485  0  0  0.353012  0  4.007641  0  0  0.216559  0.322963  0  3.998804  0
C  C75  1  0.99123641  0.60985183  0.63721732  1  0  0.368234  0  3.714545  0  0  0.335022  0  4.002392  0  0  0.353019  0  4.007551  0  0  0.216612  0.322988  0  3.998692  0
C  C76  1  0.01090438  0.27848652  0.13931393  1  0  -0.122006  0  3.66656  0  0  -0.139423  0  3.905604  0  0  -0.145664  0  3.925869  0  0  -0.0743  -0.135392  0  3.892255  0
C  C77  1  0.01091216  0.22151414  0.36068621  1  0  -0.121908  0  3.66653  0  0  -0.139455  0  3.905611  0  0  -0.145697  0  3.925862  0  0  -0.074322  -0.135426  0  3.892253  0
C  C78  1  0.98912493  0.72152770  0.86069555  1  0  -0.121999  0  3.666813  0  0  -0.139399  0  3.905778  0  0  -0.145643  0  3.926044  0  0  -0.074326  -0.135367  0  3.892419  0
C  C79  1  0.98909950  0.77848388  0.63931267  1  0  -0.122082  0  3.666579  0  0  -0.139508  0  3.90561  0  0  -0.145751  0  3.925874  0  0  -0.0743  -0.135479  0  3.892256  0
C  C80  1  0.08070007  0.34993922  0.10796579  1  0  0.116582  0  3.686752  0  0  0.089026  0  3.935135  0  0  0.095283  0  3.951007  0  0  0.037791  0.08469  0  3.925093  0
C  C81  1  0.08069873  0.15005956  0.39203168  1  0  0.116346  0  3.686945  0  0  0.08881  0  3.935315  0  0  0.095083  0  3.951195  0  0  0.037714  0.084491  0  3.92527  0
C  C82  1  0.91930907  0.65006866  0.89203626  1  0  0.116323  0  3.686787  0  0  0.088798  0  3.935139  0  0  0.095035  0  3.951025  0  0  0.037653  0.084464  0  3.925107  0
C  C83  1  0.91930789  0.84994057  0.60796562  1  0  0.116457  0  3.68685  0  0  0.088872  0  3.935185  0  0  0.09513  0  3.951067  0  0  0.037771  0.08455  0  3.925148  0
I  I84  1  0.24615121  0.59887515  0.08894730  1  0  -0.325571  0  1.810594  0  0  -0.2716  0  2.27765  0  0  -0.28813  0  2.235843  0  0  -0.152431  -0.259093  0  2.307128  0
I  I85  1  0.24615472  0.90112468  0.41105025  1  0  -0.325507  0  1.810484  0  0  -0.271558  0  2.277559  0  0  -0.288082  0  2.235746  0  0  -0.152406  -0.259051  0  2.307036  0
I  I86  1  0.75382516  0.40112991  0.91105427  1  0  -0.325534  0  1.810488  0  0  -0.271577  0  2.277556  0  0  -0.288106  0  2.235744  0  0  -0.152397  -0.259032  0  2.306966  0
I  I87  1  0.75384686  0.09887896  0.58894328  1  0  -0.325589  0  1.81046  0  0  -0.271659  0  2.277562  0  0  -0.288204  0  2.235773  0  0  -0.152446  -0.25915  0  2.30701  0
N  N88  1  0.23284153  0.33497461  0.04741374  1  0  -0.259221  0  3.354691  0  0  -0.186358  0  3.635759  0  0  -0.197998  0  3.645279  0  0  -0.359933  -0.179521  0  3.629801  0
N  N89  1  0.23285794  0.16502539  0.45258463  1  0  -0.259011  0  3.354746  0  0  -0.186129  0  3.635765  0  0  -0.197778  0  3.645307  0  0  -0.359889  -0.179324  0  3.629822  0
N  N90  1  0.76714996  0.66503819  0.95259160  1  0  -0.2591  0  3.355133  0  0  -0.186257  0  3.636213  0  0  -0.197901  0  3.645746  0  0  -0.360018  -0.179426  0  3.630265  0
N  N91  1  0.76716380  0.83497333  0.54741291  1  0  -0.259155  0  3.354956  0  0  -0.186166  0  3.635892  0  0  -0.1978  0  3.645404  0  0  -0.359964  -0.179356  0  3.62998  0
N  N92  1  0.83965167  0.11665944  0.19284705  1  0  -0.397558  0  2.939895  0  0  -0.374879  0  3.204486  0  0  -0.385503  0  3.214482  0  0  -0.31753  -0.36768  0  3.197652  0
N  N93  1  0.83965349  0.38333701  0.30715685  1  0  -0.397549  0  2.940138  0  0  -0.374792  0  3.204753  0  0  -0.385418  0  3.214746  0  0  -0.317465  -0.367583  0  3.197929  0
N  N94  1  0.16036755  0.88334421  0.80716010  1  0  -0.397697  0  2.939851  0  0  -0.374991  0  3.204465  0  0  -0.385619  0  3.214452  0  0  -0.317495  -0.367785  0  3.197632  0
N  N95  1  0.16035060  0.61665890  0.69284312  1  0  -0.397533  0  2.9397  0  0  -0.374818  0  3.204308  0  0  -0.385444  0  3.214299  0  0  -0.317437  -0.367614  0  3.197467  0
O  O96  1  0.10209946  0.01848139  0.10446149  1  0  -0.264802  0  2.254652  0  0  -0.200829  0  2.475158  0  0  -0.216718  0  2.476103  0  0  -0.124483  -0.189937  0  2.474233  0
O  O97  1  0.10210792  0.48152240  0.39553981  1  0  -0.264909  0  2.254536  0  0  -0.200975  0  2.475037  0  0  -0.216866  0  2.475983  0  0  -0.124527  -0.190075  0  2.474119  0
O  O98  1  0.89790211  0.98152719  0.89554069  1  0  -0.264793  0  2.254802  0  0  -0.200831  0  2.475298  0  0  -0.216717  0  2.476242  0  0  -0.124462  -0.189936  0  2.474374  0
O  O99  1  0.89788861  0.51848266  0.60445884  1  0  -0.264934  0  2.254541  0  0  -0.201008  0  2.475067  0  0  -0.216891  0  2.476007  0  0  -0.124603  -0.190118  0  2.474143  0
