# generated using pymatgen
data_HgH20C20S2(NO)6
_symmetry_space_group_name_H-M   'P 1'
_cell_length_a   5.46528101
_cell_length_b   10.42943556
_cell_length_c   11.55457401
_cell_angle_alpha   72.48509212
_cell_angle_beta   75.17034152
_cell_angle_gamma   80.42174802
_symmetry_Int_Tables_number   1
_chemical_formula_structural   HgH20C20S2(NO)6
_chemical_formula_sum   'Hg1 H20 C20 S2 N6 O6'
_cell_volume   604.29434057
_cell_formula_units_Z   1
loop_
 _symmetry_equiv_pos_site_id
 _symmetry_equiv_pos_as_xyz
  1  'x, y, z'
loop_
 _atom_site_type_symbol
 _atom_site_label
 _atom_site_symmetry_multiplicity
 _atom_site_fract_x
 _atom_site_fract_y
 _atom_site_fract_z
 _atom_site_occupancy
 _atom_site_hle17_bader_spin_density
 _atom_site_hle17_ddec_charge
 _atom_site_hle17_ddec_spin_density
 _atom_site_hle17_ddec_sum_bond_order
 _atom_site_hle17_magmom
 _atom_site_hse06_10hf_bader_spin_density
 _atom_site_hse06_10hf_ddec_charge
 _atom_site_hse06_10hf_ddec_spin_density
 _atom_site_hse06_10hf_ddec_sum_bond_order
 _atom_site_hse06_10hf_magmom
 _atom_site_hse06_bader_spin_density
 _atom_site_hse06_ddec_charge
 _atom_site_hse06_ddec_spin_density
 _atom_site_hse06_ddec_sum_bond_order
 _atom_site_hse06_magmom
 _atom_site_pbe_bader_spin_density
 _atom_site_pbe_cm5_charge
 _atom_site_pbe_ddec_charge
 _atom_site_pbe_ddec_spin_density
 _atom_site_pbe_ddec_sum_bond_order
 _atom_site_pbe_magmom
Hg  Hg0  1  0.00000528  0.99999754  0.99997723  1  0  1.003025  0  1.785442  0  0  0.83482  0  2.233511  0  0  0.886061  0  2.194454  0  0  0.75122  0.798519  0  2.260599  0
H  H1  1  0.54941680  0.28560537  0.61975498  1  0  0.327847  0  0.891668  0  0  0.320666  0  0.942687  0  0  0.326885  0  0.937709  0  0  0.30279  0.316165  0  0.946307  0
H  H2  1  0.45064295  0.71435865  0.38022014  1  0  0.328015  0  0.891609  0  0  0.320778  0  0.942729  0  0  0.326998  0  0.937751  0  0  0.302838  0.316273  0  0.946352  0
H  H3  1  0.34572979  0.41008037  0.55474011  1  0  0.303836  0  0.897879  0  0  0.296685  0  0.95154  0  0  0.302379  0  0.947398  0  0  0.301114  0.292589  0  0.954554  0
H  H4  1  0.65434398  0.58989627  0.44525587  1  0  0.303697  0  0.898088  0  0  0.296686  0  0.951502  0  0  0.30238  0  0.947364  0  0  0.301175  0.292601  0  0.954504  0
H  H5  1  0.14994422  0.26634659  0.03332145  1  0  0.151966  0  0.976427  0  0  0.157002  0  1.044116  0  0  0.161074  0  1.042289  0  0  0.106809  0.154032  0  1.045714  0
H  H6  1  0.84999489  0.73364897  0.96668490  1  0  0.152125  0  0.976351  0  0  0.157119  0  1.044033  0  0  0.161189  0  1.042207  0  0  0.106942  0.154153  0  1.045626  0
H  H7  1  0.25696844  0.62534698  0.85868443  1  0  0.129769  0  0.940421  0  0  0.148371  0  1.00329  0  0  0.149578  0  1.004543  0  0  0.096861  0.147546  0  1.002425  0
H  H8  1  0.74294125  0.37467105  0.14136638  1  0  0.129867  0  0.940385  0  0  0.148423  0  1.003306  0  0  0.149633  0  1.004557  0  0  0.096825  0.147597  0  1.002447  0
H  H9  1  0.26030721  0.55477243  0.73679521  1  0  0.127517  0  0.9449  0  0  0.147904  0  1.002886  0  0  0.149871  0  1.002596  0  0  0.098249  0.146486  0  1.003168  0
H  H10  1  0.73966838  0.44523950  0.26325323  1  0  0.127505  0  0.944442  0  0  0.147782  0  1.002654  0  0  0.14975  0  1.002363  0  0  0.098209  0.146367  0  1.002937  0
H  H11  1  0.02208773  0.51563481  0.87645954  1  0  0.137366  0  0.951209  0  0  0.155308  0  1.012714  0  0  0.156961  0  1.012751  0  0  0.101508  0.154153  0  1.012659  0
H  H12  1  0.97786862  0.48438009  0.12355365  1  0  0.137222  0  0.951203  0  0  0.155188  0  1.012684  0  0  0.156842  0  1.012722  0  0  0.101475  0.154034  0  1.012625  0
H  H13  1  0.13401845  0.24806438  0.26112241  1  0  0.09855  0  0.966807  0  0  0.110311  0  1.028679  0  0  0.112521  0  1.027684  0  0  0.104679  0.108781  0  1.029178  0
H  H14  1  0.86593489  0.75189296  0.73891576  1  0  0.098578  0  0.967012  0  0  0.110356  0  1.028851  0  0  0.112576  0  1.02782  0  0  0.104713  0.108827  0  1.029348  0
H  H15  1  0.14434434  0.38173547  0.40383549  1  0  0.103491  0  0.942374  0  0  0.1132  0  1.001989  0  0  0.117638  0  0.999339  0  0  0.101995  0.10994  0  1.004335  0
H  H16  1  0.85570746  0.61824219  0.59616931  1  0  0.10368  0  0.942056  0  0  0.113291  0  1.001776  0  0  0.117731  0  0.999127  0  0  0.102043  0.110027  0  1.004129  0
H  H17  1  0.81830628  0.13311415  0.49807199  1  0  0.106929  0  0.939668  0  0  0.120208  0  0.99374  0  0  0.123024  0  0.993778  0  0  0.104528  0.118304  0  0.993636  0
H  H18  1  0.18169566  0.86685117  0.50192925  1  0  0.106765  0  0.93971  0  0  0.120126  0  0.993725  0  0  0.122946  0  0.993756  0  0  0.104447  0.11822  0  0.993634  0
H  H19  1  0.81086287  0.00221769  0.35188015  1  0  0.110647  0  0.942334  0  0  0.121509  0  1.000292  0  0  0.124731  0  0.997942  0  0  0.10666  0.119187  0  1.002028  0
H  H20  1  0.18908693  0.99771150  0.64815452  1  0  0.110591  0  0.942414  0  0  0.121487  0  1.000309  0  0  0.124711  0  0.99795  0  0  0.106652  0.119165  0  1.002038  0
C  C21  1  0.57821487  0.22424623  0.98785434  1  0  0.37945  0  3.924471  0  0  0.345027  0  4.20833  0  0  0.3654  0  4.221725  0  0  0.181851  0.331619  0  4.198787  0
C  C22  1  0.42174465  0.77574230  0.01214126  1  0  0.379391  0  3.924313  0  0  0.3449  0  4.208177  0  0  0.365265  0  4.221573  0  0  0.181821  0.33149  0  4.198634  0
C  C23  1  0.33507980  0.29793455  0.98281375  1  0  -0.374682  0  3.714494  0  0  -0.401179  0  3.976629  0  0  -0.415104  0  3.992913  0  0  -0.134014  -0.392069  0  3.965646  0
C  C24  1  0.66488505  0.70208178  0.01717139  1  0  -0.374582  0  3.714357  0  0  -0.401031  0  3.976548  0  0  -0.414957  0  3.992857  0  0  -0.134152  -0.391916  0  3.965559  0
C  C25  1  0.38628335  0.41521650  0.89225838  1  0  0.347442  0  3.694642  0  0  0.338009  0  3.960003  0  0  0.355318  0  3.971257  0  0  0.092373  0.326658  0  3.952059  0
C  C26  1  0.61368307  0.58482562  0.10778478  1  0  0.346974  0  3.694372  0  0  0.337551  0  3.959732  0  0  0.354839  0  3.971008  0  0  0.09233  0.326175  0  3.951819  0
C  C27  1  0.22183244  0.53441803  0.83834031  1  0  -0.374657  0  3.701919  0  0  -0.450488  0  3.932943  0  0  -0.454993  0  3.939402  0  0  -0.235909  -0.447202  0  3.928245  0
C  C28  1  0.77809495  0.46558723  0.16169094  1  0  -0.374409  0  3.701318  0  0  -0.45019  0  3.932377  0  0  -0.45469  0  3.938843  0  0  -0.235766  -0.446886  0  3.927677  0
C  C29  1  0.47440219  0.11906429  0.29614612  1  0  -0.184767  0  3.810505  0  0  -0.159347  0  4.067238  0  0  -0.170867  0  4.091005  0  0  -0.045968  -0.152091  0  4.051162  0
C  C30  1  0.52572743  0.88095124  0.70382497  1  0  -0.18499  0  3.811343  0  0  -0.159355  0  4.067858  0  0  -0.17088  0  4.091662  0  0  -0.045898  -0.152194  0  4.051898  0
C  C31  1  0.28666995  0.22565420  0.31090501  1  0  -0.038485  0  3.789383  0  0  -0.067062  0  4.043868  0  0  -0.061702  0  4.06289  0  0  -0.085276  -0.070142  0  4.030658  0
C  C32  1  0.71335441  0.77433880  0.68909975  1  0  -0.038463  0  3.789352  0  0  -0.067127  0  4.043786  0  0  -0.061762  0  4.062804  0  0  -0.085312  -0.070187  0  4.030599  0
C  C33  1  0.29158537  0.29920100  0.39222804  1  0  -0.195124  0  3.7237  0  0  -0.21302  0  3.979935  0  0  -0.221169  0  3.998169  0  0  -0.105574  -0.207993  0  3.968064  0
C  C34  1  0.70848441  0.70081682  0.60772056  1  0  -0.195377  0  3.722833  0  0  -0.213239  0  3.979133  0  0  -0.221393  0  3.997353  0  0  -0.105719  -0.208217  0  3.967269  0
C  C35  1  0.48290280  0.26683588  0.46110933  1  0  0.325138  0  3.843611  0  0  0.319862  0  4.096247  0  0  0.333044  0  4.114706  0  0  0.102786  0.310989  0  4.083437  0
C  C36  1  0.51716394  0.73318859  0.53884669  1  0  0.32513  0  3.84312  0  0  0.319945  0  4.095661  0  0  0.333137  0  4.114108  0  0  0.102847  0.311069  0  4.082855  0
C  C37  1  0.66998383  0.15880829  0.44504519  1  0  -0.189524  0  3.714027  0  0  -0.205187  0  3.967433  0  0  -0.214362  0  3.988978  0  0  -0.101738  -0.198896  0  3.952626  0
C  C38  1  0.33010078  0.84124187  0.55491092  1  0  -0.189762  0  3.713559  0  0  -0.205542  0  3.967021  0  0  -0.214719  0  3.98856  0  0  -0.101892  -0.199256  0  3.952218  0
C  C39  1  0.66695355  0.08578912  0.36331925  1  0  -0.025525  0  3.770448  0  0  -0.052171  0  4.022163  0  0  -0.047465  0  4.041276  0  0  -0.080172  -0.05501  0  4.009144  0
C  C40  1  0.33310831  0.91421005  0.63668390  1  0  -0.025186  0  3.770144  0  0  -0.051906  0  4.021774  0  0  -0.047202  0  4.04088  0  0  -0.080145  -0.054716  0  4.00878  0
S  S41  1  0.46590922  0.02575507  0.19395672  1  0  1.226465  0  5.440858  0  0  1.133373  0  5.941691  0  0  1.179585  0  5.927667  0  0  0.544895  1.101605  0  5.950265  0
S  S42  1  0.53408346  0.97423203  0.80604729  1  0  1.226771  0  5.441901  0  0  1.133587  0  5.942647  0  0  1.179791  0  5.928621  0  0  0.545039  1.101848  0  5.951233  0
N  N43  1  0.76495313  0.29261503  0.90762689  1  0  -0.302208  0  2.675975  0  0  -0.292811  0  2.961361  0  0  -0.301373  0  2.966913  0  0  -0.256347  -0.287245  0  2.957785  0
N  N44  1  0.23498752  0.70740097  0.09237369  1  0  -0.302175  0  2.675782  0  0  -0.29279  0  2.961187  0  0  -0.301356  0  2.966736  0  0  -0.256367  -0.287225  0  2.957617  0
N  N45  1  0.64271357  0.09491075  0.05758243  1  0  -0.649817  0  3.198352  0  0  -0.555615  0  3.502397  0  0  -0.588595  0  3.509484  0  0  -0.397767  -0.532789  0  3.496674  0
N  N46  1  0.35721779  0.90506735  0.94237931  1  0  -0.649837  0  3.198594  0  0  -0.555486  0  3.502545  0  0  -0.58847  0  3.509667  0  0  -0.397801  -0.532664  0  3.496822  0
N  N47  1  0.49711726  0.34146405  0.53937142  1  0  -0.659662  0  3.081083  0  0  -0.63419  0  3.303285  0  0  -0.652537  0  3.301886  0  0  -0.592801  -0.620943  0  3.303871  0
N  N48  1  0.50300688  0.65854375  0.46058812  1  0  -0.659534  0  3.081142  0  0  -0.634159  0  3.303253  0  0  -0.65252  0  3.301866  0  0  -0.592798  -0.620889  0  3.303815  0
O  O49  1  0.64192504  0.41458247  0.84510752  1  0  -0.151294  0  2.297221  0  0  -0.082103  0  2.52776  0  0  -0.097872  0  2.532807  0  0  -0.055566  -0.071604  0  2.524402  0
O  O50  1  0.35801240  0.58544923  0.15492440  1  0  -0.151133  0  2.297055  0  0  -0.081898  0  2.527554  0  0  -0.09764  0  2.532594  0  0  -0.055434  -0.071398  0  2.524212  0
O  O51  1  0.59247382  0.89141833  0.23257946  1  0  -0.603247  0  1.958566  0  0  -0.558862  0  2.204858  0  0  -0.57896  0  2.192825  0  0  -0.315401  -0.544949  0  2.212713  0
O  O52  1  0.40753732  0.10859205  0.76741039  1  0  -0.603334  0  1.95804  0  0  -0.559021  0  2.204375  0  0  -0.579117  0  2.192338  0  0  -0.315467  -0.545112  0  2.212225  0
O  O53  1  0.20261077  0.04022143  0.18288342  1  0  -0.628997  0  2.012118  0  0  -0.572822  0  2.277519  0  0  -0.596052  0  2.264541  0  0  -0.316157  -0.556381  0  2.28575  0
O  O54  1  0.79732072  0.95977992  0.81712406  1  0  -0.628985  0  2.013169  0  0  -0.572878  0  2.278717  0  0  -0.596102  0  2.26574  0  0  -0.316232  -0.556445  0  2.286943  0
