# generated using pymatgen
data_NdH13(C4O3)4
_symmetry_space_group_name_H-M   'P 1'
_cell_length_a   8.93060156
_cell_length_b   9.82723767
_cell_length_c   12.06940708
_cell_angle_alpha   100.25326271
_cell_angle_beta   103.64437513
_cell_angle_gamma   108.39553697
_symmetry_Int_Tables_number   1
_chemical_formula_structural   NdH13(C4O3)4
_chemical_formula_sum   'Nd2 H26 C32 O24'
_cell_volume   939.44148894
_cell_formula_units_Z   2
loop_
 _symmetry_equiv_pos_site_id
 _symmetry_equiv_pos_as_xyz
  1  'x, y, z'
loop_
 _atom_site_type_symbol
 _atom_site_label
 _atom_site_symmetry_multiplicity
 _atom_site_fract_x
 _atom_site_fract_y
 _atom_site_fract_z
 _atom_site_occupancy
 _atom_site_hle17_bader_spin_density
 _atom_site_hle17_ddec_charge
 _atom_site_hle17_ddec_spin_density
 _atom_site_hle17_ddec_sum_bond_order
 _atom_site_hle17_magmom
 _atom_site_hse06_10hf_bader_spin_density
 _atom_site_hse06_10hf_ddec_charge
 _atom_site_hse06_10hf_ddec_spin_density
 _atom_site_hse06_10hf_ddec_sum_bond_order
 _atom_site_hse06_10hf_magmom
 _atom_site_hse06_bader_spin_density
 _atom_site_hse06_ddec_charge
 _atom_site_hse06_ddec_spin_density
 _atom_site_hse06_ddec_sum_bond_order
 _atom_site_hse06_magmom
 _atom_site_pbe_bader_spin_density
 _atom_site_pbe_cm5_charge
 _atom_site_pbe_ddec_charge
 _atom_site_pbe_ddec_spin_density
 _atom_site_pbe_ddec_sum_bond_order
 _atom_site_pbe_magmom
Nd  Nd0  1  0.26954638  0.53766195  0.95893716  1  0  2.308278  0  1.623293  0  0  2.149041  0  2.087468  0  0  2.24441  0  1.943553  0  0  1.489201  2.116256  0  2.121517  0
Nd  Nd1  1  0.73045603  0.46233869  0.04106745  1  0  2.308274  0  1.623336  0  0  2.149072  0  2.087485  0  0  2.244418  0  1.943594  0  0  1.489217  2.116276  0  2.121543  0
H  H2  1  0.43040901  0.76923889  0.70534136  1  0  0.389058  0  0.857954  0  0  0.365034  0  0.930496  0  0  0.374589  0  0.919532  0  0  0.312176  0.358252  0  0.938155  0
H  H3  1  0.56958597  0.23075503  0.29466508  1  0  0.388988  0  0.857986  0  0  0.364951  0  0.93055  0  0  0.374509  0  0.919587  0  0  0.312143  0.358172  0  0.938199  0
H  H4  1  0.68108587  0.92242073  0.32458348  1  0  0.103119  0  0.958195  0  0  0.110719  0  1.024653  0  0  0.115249  0  1.020128  0  0  0.104445  0.107381  0  1.028005  0
H  H5  1  0.31891770  0.07757980  0.67542629  1  0  0.103152  0  0.958309  0  0  0.110749  0  1.024741  0  0  0.115277  0  1.02022  0  0  0.104471  0.107414  0  1.028089  0
H  H6  1  0.67430067  0.96201019  0.68518826  1  0  0.114679  0  0.984009  0  0  0.1201  0  1.05403  0  0  0.122414  0  1.054506  0  0  0.104556  0.118362  0  1.053802  0
H  H7  1  0.32569590  0.03799831  0.31481826  1  0  0.114675  0  0.984003  0  0  0.120128  0  1.053983  0  0  0.122444  0  1.054454  0  0  0.104615  0.118396  0  1.053756  0
H  H8  1  0.27422270  0.61754933  0.39698832  1  0  0.127353  0  0.927378  0  0  0.137351  0  0.986513  0  0  0.141951  0  0.982591  0  0  0.115008  0.134036  0  0.989177  0
H  H9  1  0.72577762  0.38244904  0.60301807  1  0  0.127411  0  0.927466  0  0  0.137436  0  0.986566  0  0  0.142021  0  0.982662  0  0  0.115055  0.134122  0  0.989227  0
H  H10  1  0.65803217  0.00112089  0.95041493  1  0  0.125236  0  0.930488  0  0  0.13327  0  0.991425  0  0  0.138123  0  0.987262  0  0  0.115038  0.129778  0  0.994437  0
H  H11  1  0.34196449  0.99887986  0.04958542  1  0  0.125099  0  0.930592  0  0  0.13315  0  0.991528  0  0  0.138003  0  0.987365  0  0  0.114972  0.129658  0  0.994536  0
H  H12  1  0.09463573  0.09102050  0.84006018  1  0  0.118605  0  0.943821  0  0  0.129043  0  1.005859  0  0  0.133019  0  1.002634  0  0  0.113572  0.126102  0  1.00833  0
H  H13  1  0.90535710  0.90898474  0.15994189  1  0  0.118668  0  0.943669  0  0  0.129018  0  1.005804  0  0  0.132994  0  1.002583  0  0  0.113559  0.126074  0  1.008274  0
H  H14  1  0.77548901  0.63572815  0.78891712  1  0  0.130637  0  0.962353  0  0  0.140523  0  1.02207  0  0  0.144414  0  1.019837  0  0  0.116792  0.137761  0  1.023717  0
H  H15  1  0.22448917  0.36426739  0.21106851  1  0  0.130613  0  0.962494  0  0  0.140534  0  1.022153  0  0  0.14443  0  1.01992  0  0  0.11676  0.137771  0  1.0238  0
H  H16  1  0.14004161  0.28589294  0.73564433  1  0  0.430613  0  0.866407  0  0  0.399648  0  0.93093  0  0  0.410248  0  0.915187  0  0  0.297367  0.392055  0  0.942326  0
H  H17  1  0.85997704  0.71410543  0.26435521  1  0  0.430778  0  0.86621  0  0  0.399801  0  0.930747  0  0  0.410402  0  0.915002  0  0  0.297418  0.392207  0  0.942145  0
H  H18  1  0.92770588  0.47050751  0.78939609  1  0  0.435844  0  0.86365  0  0  0.404252  0  0.929382  0  0  0.414869  0  0.913956  0  0  0.299873  0.396648  0  0.940594  0
H  H19  1  0.07230150  0.52948864  0.21060617  1  0  0.435869  0  0.863625  0  0  0.404329  0  0.929284  0  0  0.414947  0  0.913857  0  0  0.299899  0.39672  0  0.940504  0
H  H20  1  0.04710025  0.61350249  0.76816825  1  0  0.430583  0  0.85916  0  0  0.403163  0  0.915948  0  0  0.412788  0  0.901908  0  0  0.304473  0.396322  0  0.926055  0
H  H21  1  0.95290223  0.38649049  0.23182522  1  0  0.430594  0  0.85913  0  0  0.403168  0  0.915939  0  0  0.412793  0  0.901898  0  0  0.304446  0.396321  0  0.926055  0
H  H22  1  0.33027079  0.30334686  0.79615048  1  0  0.42451  0  0.882191  0  0  0.394627  0  0.945477  0  0  0.40475  0  0.930828  0  0  0.295724  0.387404  0  0.956094  0
H  H23  1  0.66974886  0.69665346  0.20386528  1  0  0.424513  0  0.882192  0  0  0.394602  0  0.945542  0  0  0.404728  0  0.930883  0  0  0.295645  0.387377  0  0.956161  0
H  H24  1  0.12014634  0.87498773  0.73285083  1  0  0.399694  0  0.812416  0  0  0.384355  0  0.86499  0  0  0.392227  0  0.856246  0  0  0.339353  0.378675  0  0.871355  0
H  H25  1  0.87985752  0.12501615  0.26716033  1  0  0.399741  0  0.812308  0  0  0.384398  0  0.864886  0  0  0.392278  0  0.856137  0  0  0.339351  0.378713  0  0.87125  0
H  H26  1  0.01507548  0.21358332  0.50161020  1  0  0.418841  0  0.775732  0  0  0.405499  0  0.823689  0  0  0.414912  0  0.813965  0  0  0.355701  0.398692  0  0.830865  0
H  H27  1  0.98491723  0.78641650  0.49838104  1  0  0.41885  0  0.77581  0  0  0.405498  0  0.823766  0  0  0.41491  0  0.814045  0  0  0.355727  0.398692  0  0.830942  0
C  C28  1  0.39978735  0.68595362  0.21794863  1  0  0.665603  0  3.8792  0  0  0.61675  0  4.165818  0  0  0.649961  0  4.162382  0  0  0.212866  0.594056  0  4.170177  0
C  C29  1  0.60021709  0.31404359  0.78205827  1  0  0.665675  0  3.878973  0  0  0.616877  0  4.165534  0  0  0.650088  0  4.162092  0  0  0.212939  0.59419  0  4.169892  0
C  C30  1  0.47212058  0.76123638  0.34771266  1  0  -0.04305  0  3.776331  0  0  -0.017421  0  4.013816  0  0  -0.024315  0  4.035547  0  0  -0.016249  -0.012919  0  3.998576  0
C  C31  1  0.52787840  0.23876426  0.65229303  1  0  -0.043011  0  3.776445  0  0  -0.017418  0  4.013953  0  0  -0.024313  0  4.03568  0  0  -0.016239  -0.012911  0  3.998711  0
C  C32  1  0.62291473  0.88320939  0.38836122  1  0  -0.089857  0  3.721682  0  0  -0.134991  0  3.981193  0  0  -0.132862  0  3.999287  0  0  -0.091061  -0.136072  0  3.968733  0
C  C33  1  0.37708196  0.11679123  0.61164657  1  0  -0.090025  0  3.721756  0  0  -0.135124  0  3.981245  0  0  -0.132993  0  3.999338  0  0  -0.091117  -0.136196  0  3.968777  0
C  C34  1  0.69519871  0.95416746  0.50963044  1  0  -0.06411  0  3.814704  0  0  -0.039938  0  4.056124  0  0  -0.048895  0  4.081535  0  0  -0.021831  -0.034364  0  4.039253  0
C  C35  1  0.30479548  0.04583548  0.49037397  1  0  -0.063886  0  3.814675  0  0  -0.039767  0  4.056065  0  0  -0.048728  0  4.081475  0  0  -0.021789  -0.034209  0  4.039212  0
C  C36  1  0.61697078  0.90407570  0.59111607  1  0  -0.188472  0  3.680462  0  0  -0.221462  0  3.930076  0  0  -0.223988  0  3.952618  0  0  -0.090487  -0.219327  0  3.914926  0
C  C37  1  0.38302389  0.09592831  0.40889108  1  0  -0.188252  0  3.680062  0  0  -0.221297  0  3.929822  0  0  -0.223817  0  3.952359  0  0  -0.090412  -0.219166  0  3.914654  0
C  C38  1  0.46449521  0.78253045  0.54986577  1  0  0.328038  0  3.827998  0  0  0.324306  0  4.094757  0  0  0.332536  0  4.112429  0  0  0.084505  0.318439  0  4.082046  0
C  C39  1  0.53550750  0.21747345  0.45014438  1  0  0.327957  0  3.827842  0  0  0.324167  0  4.094729  0  0  0.332396  0  4.112397  0  0  0.084427  0.318297  0  4.082019  0
C  C40  1  0.39304159  0.71133780  0.42784873  1  0  -0.145554  0  3.629815  0  0  -0.182289  0  3.879689  0  0  -0.183111  0  3.895974  0  0  -0.080931  -0.180855  0  3.867397  0
C  C41  1  0.60696016  0.28866391  0.57215842  1  0  -0.145658  0  3.630033  0  0  -0.182412  0  3.879962  0  0  -0.18322  0  3.896249  0  0  -0.080975  -0.180983  0  3.867677  0
C  C42  1  0.85341842  0.08529678  0.55321586  1  0  0.6524  0  3.78629  0  0  0.598679  0  4.09293  0  0  0.631747  0  4.084204  0  0  0.237791  0.576106  0  4.098475  0
C  C43  1  0.14659087  0.91471712  0.44679780  1  0  0.651974  0  3.786385  0  0  0.598377  0  4.092856  0  0  0.631448  0  4.084133  0  0  0.23758  0.575805  0  4.0984  0
C  C44  1  0.55443165  0.70309014  0.89047914  1  0  0.689055  0  3.876673  0  0  0.643736  0  4.161727  0  0  0.677572  0  4.157585  0  0  0.221428  0.620367  0  4.167915  0
C  C45  1  0.44556528  0.29691403  0.10951847  1  0  0.689013  0  3.87669  0  0  0.643722  0  4.161721  0  0  0.677557  0  4.157576  0  0  0.221418  0.620337  0  4.167928  0
C  C46  1  0.70234115  0.80723420  0.87183918  1  0  -0.05163  0  3.803664  0  0  -0.026493  0  4.041599  0  0  -0.032166  0  4.061688  0  0  -0.014172  -0.022684  0  4.027798  0
C  C47  1  0.29765234  0.19276999  0.12815869  1  0  -0.051572  0  3.803676  0  0  -0.026513  0  4.041717  0  0  -0.032185  0  4.061808  0  0  -0.014205  -0.022705  0  4.027919  0
C  C48  1  0.73783735  0.95998291  0.91003203  1  0  -0.107672  0  3.714217  0  0  -0.147047  0  3.967639  0  0  -0.146119  0  3.984229  0  0  -0.086452  -0.147385  0  3.956204  0
C  C49  1  0.26216072  0.04002128  0.08996412  1  0  -0.107521  0  3.713979  0  0  -0.146817  0  3.967512  0  0  -0.14589  0  3.984105  0  0  -0.086359  -0.147156  0  3.956077  0
C  C50  1  0.88092747  0.06162554  0.90024627  1  0  -0.041857  0  3.75232  0  0  -0.016199  0  3.983786  0  0  -0.022756  0  4.005418  0  0  -0.012536  -0.011996  0  3.968602  0
C  C51  1  0.11906641  0.93837417  0.09975096  1  0  -0.04171  0  3.752096  0  0  -0.016281  0  3.983869  0  0  -0.022842  0  4.005504  0  0  -0.012515  -0.012069  0  3.968668  0
C  C52  1  0.98349479  0.01030773  0.84702177  1  0  -0.182058  0  3.708871  0  0  -0.21783  0  3.965341  0  0  -0.219202  0  3.98324  0  0  -0.089386  -0.216319  0  3.952844  0
C  C53  1  0.01650368  0.98969191  0.15297705  1  0  -0.182116  0  3.708989  0  0  -0.217739  0  3.965569  0  0  -0.219109  0  3.983468  0  0  -0.089354  -0.216231  0  3.953072  0
C  C54  1  0.94117718  0.85705128  0.80324847  1  0  0.320587  0  3.8116  0  0  0.312279  0  4.084986  0  0  0.320266  0  4.101758  0  0  0.080597  0.30655  0  4.073595  0
C  C55  1  0.05881229  0.14294629  0.19674436  1  0  0.32072  0  3.811599  0  0  0.312398  0  4.084973  0  0  0.320384  0  4.101749  0  0  0.080644  0.306659  0  4.073586  0
C  C56  1  0.80317202  0.75483713  0.81817415  1  0  -0.171235  0  3.665113  0  0  -0.205905  0  3.915169  0  0  -0.20741  0  3.931981  0  0  -0.08784  -0.205101  0  3.904074  0
C  C57  1  0.19681448  0.24516165  0.18181506  1  0  -0.171425  0  3.665355  0  0  -0.206077  0  3.915425  0  0  -0.207591  0  3.932242  0  0  -0.08788  -0.205278  0  3.904344  0
C  C58  1  0.92028845  0.22508532  0.94819766  1  0  0.729065  0  3.85608  0  0  0.681166  0  4.145846  0  0  0.716325  0  4.138204  0  0  0.236866  0.657538  0  4.152185  0
C  C59  1  0.07970974  0.77491097  0.05180058  1  0  0.729031  0  3.855969  0  0  0.681166  0  4.145798  0  0  0.716331  0  4.13814  0  0  0.236838  0.65754  0  4.152133  0
O  O60  1  0.25540545  0.58298641  0.17524737  1  0  -0.698257  0  2.057188  0  0  -0.640542  0  2.293448  0  0  -0.670534  0  2.284168  0  0  -0.339759  -0.623067  0  2.299391  0
O  O61  1  0.74459830  0.41701197  0.82475711  1  0  -0.698263  0  2.057017  0  0  -0.640579  0  2.293294  0  0  -0.670566  0  2.284008  0  0  -0.339762  -0.62311  0  2.299242  0
O  O62  1  0.48737144  0.72517484  0.15054390  1  0  -0.699417  0  1.99781  0  0  -0.642518  0  2.223555  0  0  -0.671897  0  2.213926  0  0  -0.359008  -0.625338  0  2.229597  0
O  O63  1  0.51263703  0.27481556  0.84946593  1  0  -0.699469  0  1.997745  0  0  -0.642593  0  2.223462  0  0  -0.671964  0  2.213822  0  0  -0.359095  -0.625414  0  2.22951  0
O  O64  1  0.37475292  0.72739918  0.61930859  1  0  -0.506725  0  2.095072  0  0  -0.46092  0  2.291625  0  0  -0.477967  0  2.282471  0  0  -0.354437  -0.448599  0  2.297188  0
O  O65  1  0.62524597  0.27259587  0.38069620  1  0  -0.506631  0  2.095029  0  0  -0.460781  0  2.291604  0  0  -0.47783  0  2.282447  0  0  -0.35437  -0.448461  0  2.297159  0
O  O66  1  0.92531231  0.15660595  0.65750472  1  0  -0.531589  0  2.002822  0  0  -0.47886  0  2.2204  0  0  -0.50022  0  2.213218  0  0  -0.256476  -0.464119  0  2.225082  0
O  O67  1  0.07468478  0.84339613  0.34248431  1  0  -0.531637  0  2.002261  0  0  -0.478887  0  2.219727  0  0  -0.500249  0  2.21255  0  0  -0.256422  -0.464138  0  2.224401  0
O  O68  1  0.91548529  0.12223693  0.46515388  1  0  -0.552893  0  2.076887  0  0  -0.511489  0  2.294183  0  0  -0.530837  0  2.278206  0  0  -0.331072  -0.497838  0  2.304886  0
O  O69  1  0.08450965  0.87775717  0.53484264  1  0  -0.552699  0  2.077167  0  0  -0.51133  0  2.294416  0  0  -0.530675  0  2.278443  0  0  -0.331005  -0.497677  0  2.305113  0
O  O70  1  0.56611053  0.59909382  0.93884756  1  0  -0.78492  0  2.083722  0  0  -0.727327  0  2.339259  0  0  -0.76377  0  2.328302  0  0  -0.408725  -0.709292  0  2.345417  0
O  O71  1  0.43389700  0.40091363  0.06115070  1  0  -0.784929  0  2.083654  0  0  -0.727402  0  2.339315  0  0  -0.763854  0  2.328377  0  0  -0.408777  -0.709361  0  2.345474  0
O  O72  1  0.41796351  0.72286421  0.86026549  1  0  -0.672415  0  1.919547  0  0  -0.620978  0  2.142152  0  0  -0.648965  0  2.12999  0  0  -0.354997  -0.605145  0  2.149476  0
O  O73  1  0.58202961  0.27713107  0.13972842  1  0  -0.672372  0  1.919637  0  0  -0.620947  0  2.14225  0  0  -0.648926  0  2.130083  0  0  -0.354968  -0.605109  0  2.149575  0
O  O74  1  0.03170322  0.79744729  0.74584746  1  0  -0.519015  0  2.116035  0  0  -0.463182  0  2.312978  0  0  -0.479418  0  2.302381  0  0  -0.340121  -0.451284  0  2.319977  0
O  O75  1  0.96829296  0.20255238  0.25415097  1  0  -0.519074  0  2.116032  0  0  -0.463223  0  2.312965  0  0  -0.47947  0  2.302375  0  0  -0.340114  -0.451316  0  2.319964  0
O  O76  1  0.04904414  0.31829732  0.93839002  1  0  -0.759396  0  2.072599  0  0  -0.708209  0  2.346647  0  0  -0.740538  0  2.331264  0  0  -0.421223  -0.690898  0  2.35528  0
O  O77  1  0.95094964  0.68169686  0.06160218  1  0  -0.759453  0  2.072612  0  0  -0.70826  0  2.346669  0  0  -0.740587  0  2.33128  0  0  -0.421284  -0.690954  0  2.355306  0
O  O78  1  0.82079625  0.25989954  0.99623286  1  0  -0.741215  0  2.074752  0  0  -0.691619  0  2.334006  0  0  -0.722783  0  2.320697  0  0  -0.401254  -0.674739  0  2.341548  0
O  O79  1  0.17920847  0.74010103  0.00377462  1  0  -0.741207  0  2.074811  0  0  -0.691598  0  2.334072  0  0  -0.722767  0  2.320759  0  0  -0.401207  -0.674729  0  2.341624  0
O  O80  1  0.25433954  0.35725573  0.77870469  1  0  -0.906528  0  1.862618  0  0  -0.861543  0  2.045674  0  0  -0.884599  0  2.010064  0  0  -0.64682  -0.849271  0  2.067999  0
O  O81  1  0.74567895  0.64274465  0.22130757  1  0  -0.906661  0  1.862468  0  0  -0.86166  0  2.04551  0  0  -0.884729  0  2.009925  0  0  -0.646794  -0.849372  0  2.067812  0
O  O82  1  0.03862025  0.51499263  0.77928635  1  0  -0.883967  0  1.823731  0  0  -0.836766  0  2.001733  0  0  -0.859993  0  1.967167  0  0  -0.632483  -0.824139  0  2.023654  0
O  O83  1  0.96138204  0.48500254  0.22070992  1  0  -0.883995  0  1.823699  0  0  -0.836851  0  2.001626  0  0  -0.860075  0  1.967066  0  0  -0.632497  -0.824222  0  2.023555  0
