# generated using pymatgen
data_CdH18C26(N2O3)2
_symmetry_space_group_name_H-M   'P 1'
_cell_length_a   9.53960266
_cell_length_b   11.47496397
_cell_length_c   12.12657804
_cell_angle_alpha   96.94361604
_cell_angle_beta   90.78611430
_cell_angle_gamma   89.60185960
_symmetry_Int_Tables_number   1
_chemical_formula_structural   CdH18C26(N2O3)2
_chemical_formula_sum   'Cd2 H36 C52 N8 O12'
_cell_volume   1317.57640381
_cell_formula_units_Z   2
loop_
 _symmetry_equiv_pos_site_id
 _symmetry_equiv_pos_as_xyz
  1  'x, y, z'
loop_
 _atom_site_type_symbol
 _atom_site_label
 _atom_site_symmetry_multiplicity
 _atom_site_fract_x
 _atom_site_fract_y
 _atom_site_fract_z
 _atom_site_occupancy
 _atom_site_pbe_bader_charge
 _atom_site_pbe_bader_spin_density
 _atom_site_pbe_cm5_charge
 _atom_site_pbe_ddec_charge
 _atom_site_pbe_ddec_spin_density
 _atom_site_pbe_ddec_sum_bond_order
 _atom_site_pbe_magmom
Cd  Cd0  1  0.37591699  0.12340418  0.56867716  1  1.281568  0  0.768273  0.879751  0  2.177348  0
Cd  Cd1  1  0.62407801  0.87660126  0.43132440  1  1.281476  0  0.768289  0.879777  0  2.177181  0
H  H2  1  0.13832165  0.91780208  0.50874907  1  0.128692  0  0.116157  0.089638  0  1.031819  0
H  H3  1  0.86167955  0.08220076  0.49124395  1  0.128863  0  0.116149  0.08961  0  1.031679  0
H  H4  1  0.07420101  0.19817906  0.82805083  1  0.055873  0  0.106199  0.123241  0  1.015302  0
H  H5  1  0.92578878  0.80182372  0.17195696  1  0.055724  0  0.106222  0.12326  0  1.015297  0
H  H6  1  0.04769366  0.40530513  0.16342701  1  0.137331  0  0.110272  0.124355  0  1.017896  0
H  H7  1  0.95230555  0.59469312  0.83658356  1  0.137438  0  0.110286  0.124388  0  1.017899  0
H  H8  1  0.97022585  0.75796696  0.49242493  1  0.13005  0  0.119535  0.102228  0  0.992716  0
H  H9  1  0.02977316  0.24202804  0.50756379  1  0.130275  0  0.119596  0.102402  0  0.992648  0
H  H10  1  0.61654401  0.32159617  0.64594124  1  0.160954  0  0.121915  0.10027  0  1.003528  0
H  H11  1  0.38347072  0.67838978  0.35405551  1  0.160866  0  0.121921  0.100298  0  1.003453  0
H  H12  1  0.97154269  0.05114231  0.67998588  1  0.0731  0  0.098627  0.097553  0  1.041766  0
H  H13  1  0.02845334  0.94885781  0.32001831  1  0.073  0  0.098617  0.097559  0  1.041849  0
H  H14  1  0.66055439  0.27525771  0.95618447  1  0.079519  0  0.102464  0.111929  0  1.025898  0
H  H15  1  0.33943328  0.72474157  0.04382369  1  0.078883  0  0.102391  0.111794  0  1.025839  0
H  H16  1  0.95499440  0.56632500  0.29360017  1  0.092991  0  0.103167  0.107125  0  1.022575  0
H  H17  1  0.04502067  0.43368711  0.70641306  1  0.09329  0  0.103096  0.107048  0  1.022635  0
H  H18  1  0.36190552  0.02662195  0.79648194  1  0.11815  0  0.117082  0.091313  0  1.008258  0
H  H19  1  0.63808422  0.97338358  0.20351713  1  0.11806  0  0.117112  0.091307  0  1.008229  0
H  H20  1  0.71495267  0.50527194  0.36648047  1  0.104551  0  0.108506  0.102112  0  1.064653  0
H  H21  1  0.28503174  0.49472933  0.63351225  1  0.104502  0  0.108508  0.102081  0  1.064692  0
H  H22  1  0.54872591  0.37486745  0.25232078  1  0.11333  0  0.114948  0.1225  0  0.975327  0
H  H23  1  0.45125328  0.62513651  0.74767225  1  0.113497  0  0.114988  0.122446  0  0.975256  0
H  H24  1  0.71421830  0.45753589  0.92980925  1  0.103984  0  0.110056  0.131804  0  1.001133  0
H  H25  1  0.28578403  0.54246237  0.07019805  1  0.103945  0  0.110059  0.131844  0  1.00103  0
H  H26  1  0.55959118  0.13550133  0.80657732  1  0.086685  0  0.101641  0.112476  0  1.047707  0
H  H27  1  0.44040483  0.86449614  0.19342737  1  0.086813  0  0.101643  0.112476  0  1.047696  0
H  H28  1  0.61991119  0.62063951  0.06407040  1  0.093281  0  0.102507  0.105973  0  0.999445  0
H  H29  1  0.38010897  0.37936122  0.93593483  1  0.093137  0  0.102444  0.105918  0  0.99935  0
H  H30  1  0.42300613  0.21885042  0.34143358  1  0.112392  0  0.122058  0.09792  0  0.983606  0
H  H31  1  0.57698886  0.78115326  0.65856858  1  0.112401  0  0.122079  0.097955  0  0.983545  0
H  H32  1  0.24921845  0.87429966  0.89842678  1  0.095937  0  0.106752  0.112553  0  1.007443  0
H  H33  1  0.75079112  0.12569422  0.10157259  1  0.095818  0  0.106735  0.112523  0  1.007567  0
H  H34  1  0.07432437  0.73739026  0.79573405  1  0.110077  0  0.108938  0.10803  0  1.050098  0
H  H35  1  0.92569345  0.26259663  0.20425541  1  0.109642  0  0.108907  0.108008  0  1.050094  0
H  H36  1  0.81617278  0.61397658  0.47721281  1  0.512084  0  0.307621  0.260165  0  1.016284  0
H  H37  1  0.18383256  0.38602185  0.52277803  1  0.512036  0  0.307656  0.260169  0  1.016345  0
C  C38  1  0.69819786  0.00218845  0.64002039  1  1.539744  0  0.193223  0.564545  0  4.220069  0
C  C39  1  0.30179191  0.99781168  0.35998789  1  1.539977  0  0.193236  0.564624  0  4.219931  0
C  C40  1  0.72140440  0.69684509  0.27182677  1  1.513137  0  0.188702  0.55424  0  4.240674  0
C  C41  1  0.27860208  0.30316565  0.72816315  1  1.512918  0  0.188775  0.554295  0  4.239935  0
C  C42  1  0.09400209  0.81426068  0.64299545  1  0.022711  0  -0.000133  0.03633  0  4.028866  0
C  C43  1  0.90600220  0.18573510  0.35699752  1  0.022661  0  -0.000157  0.036507  0  4.029032  0
C  C44  1  0.67817272  0.42485416  0.51685568  1  0.014947  0  -0.0107  -0.074702  0  3.978264  0
C  C45  1  0.32183683  0.57514242  0.48313908  1  0.014886  0  -0.010825  -0.075076  0  3.978437  0
C  C46  1  0.16137037  0.90321670  0.59431353  1  0.474216  0  0.050145  0.043108  0  3.902846  0
C  C47  1  0.83862665  0.09678796  0.40567887  1  0.474429  0  0.050159  0.043075  0  3.90282  0
C  C48  1  0.77659087  0.60073320  0.19002897  1  0.019183  0  -0.035282  -0.079954  0  4.026594  0
C  C49  1  0.22342613  0.39927914  0.80996451  1  0.018789  0  -0.035278  -0.080054  0  4.026207  0
C  C50  1  0.96178702  0.18283821  0.82185196  1  0.053285  0  -0.099782  -0.191906  0  3.971317  0
C  C51  1  0.03820177  0.81716806  0.17815792  1  0.052927  0  -0.099689  -0.191796  0  3.971185  0
C  C52  1  0.95093133  0.44915685  0.14287533  1  -0.03252  0  -0.09836  -0.197442  0  4.005306  0
C  C53  1  0.04906688  0.55084400  0.85713805  1  -0.032716  0  -0.098352  -0.197652  0  4.005798  0
C  C54  1  0.99368058  0.73889615  0.57732939  1  0.612572  0  0.061024  0.018011  0  3.930718  0
C  C55  1  0.00632785  0.26110055  0.42265631  1  0.611711  0  0.061039  0.017767  0  3.930891  0
C  C56  1  0.60373244  0.33528747  0.55891120  1  0.453007  0  0.058764  0.082084  0  3.888714  0
C  C57  1  0.39628864  0.66470543  0.44108646  1  0.45353  0  0.058868  0.082266  0  3.888758  0
C  C58  1  0.88011221  0.41524213  0.04260195  1  0.381354  0  0.090351  0.264255  0  4.022205  0
C  C59  1  0.11988177  0.58475437  0.95741167  1  0.381122  0  0.090425  0.264493  0  4.022443  0
C  C60  1  0.87384853  0.24748835  0.89848258  1  0.396248  0  0.095379  0.279588  0  4.016836  0
C  C61  1  0.12613810  0.75251092  0.10152722  1  0.396366  0  0.095303  0.279608  0  4.016588  0
C  C62  1  0.90424936  0.10144616  0.74019437  1  -0.052102  0  -0.08556  -0.067922  0  3.987436  0
C  C63  1  0.09573936  0.89855754  0.25981024  1  -0.052027  0  -0.085545  -0.067906  0  3.987418  0
C  C64  1  0.75866919  0.08390903  0.73271649  1  0.019211  0  -0.035989  -0.0745  0  4.021974  0
C  C65  1  0.24131956  0.91609730  0.26728927  1  0.019678  0  -0.036033  -0.074661  0  4.022017  0
C  C66  1  0.72910533  0.22772093  0.89520183  1  -0.058921  0  -0.109023  -0.221111  0  4.017555  0
C  C67  1  0.27088234  0.77228101  0.10480420  1  -0.057813  0  -0.108974  -0.221024  0  4.017256  0
C  C68  1  0.89862834  0.54048343  0.21605613  1  -0.010931  0  -0.083227  -0.066346  0  3.991687  0
C  C69  1  0.10137836  0.45953053  0.78395729  1  -0.010872  0  -0.083267  -0.066215  0  3.99143  0
C  C70  1  0.28568535  0.96486586  0.75587515  1  0.441  0  0.048082  0.090787  0  3.942137  0
C  C71  1  0.71431166  0.03513258  0.24412224  1  0.441158  0  0.047982  0.090711  0  3.942022  0
C  C72  1  0.77343893  0.49782632  0.59656062  1  1.409313  0  0.235095  0.432079  0  4.158451  0
C  C73  1  0.22656745  0.50216588  0.40343522  1  1.410033  0  0.235006  0.432079  0  4.158497  0
C  C74  1  0.65887769  0.43859368  0.40457604  1  -0.061927  0  -0.061295  -0.050653  0  3.924038  0
C  C75  1  0.34111823  0.56140127  0.59542008  1  -0.062374  0  -0.061256  -0.050504  0  3.923899  0
C  C76  1  0.56616198  0.36519062  0.33974668  1  -0.056447  0  -0.077286  -0.115956  0  3.967545  0
C  C77  1  0.43382767  0.63481238  0.66024382  1  -0.055892  0  -0.077364  -0.115817  0  3.967471  0
C  C78  1  0.76219509  0.47808163  0.01172916  1  0.021166  0  -0.104241  -0.214959  0  3.993385  0
C  C79  1  0.23780196  0.52191318  0.98827685  1  0.021281  0  -0.104266  -0.215181  0  3.993466  0
C  C80  1  0.67258552  0.14710536  0.81164776  1  -0.00774  0  -0.085559  -0.069137  0  3.986285  0
C  C81  1  0.32740319  0.85289569  0.18835816  1  -0.008438  0  -0.085468  -0.069039  0  3.986359  0
C  C82  1  0.71129126  0.57031578  0.08615782  1  -0.127987  0  -0.084372  -0.0665  0  3.983643  0
C  C83  1  0.28872891  0.42969293  0.91384183  1  -0.127463  0  -0.084348  -0.066339  0  3.983277  0
C  C84  1  0.49631576  0.27888073  0.38837876  1  0.491971  0  0.051083  0.097782  0  3.933021  0
C  C85  1  0.50368442  0.72111941  0.61162051  1  0.491479  0  0.051127  0.097722  0  3.932931  0
C  C86  1  0.22263559  0.87997876  0.81152681  1  -0.077703  0  -0.083645  -0.125757  0  3.987735  0
C  C87  1  0.77736665  0.12001519  0.18847335  1  -0.077795  0  -0.083653  -0.125735  0  3.987868  0
C  C88  1  0.12589200  0.80432451  0.75493281  1  0.024737  0  -0.058267  -0.058667  0  3.899192  0
C  C89  1  0.87412169  0.19566765  0.24505976  1  0.025549  0  -0.058156  -0.058641  0  3.899104  0
N  N90  1  0.25466412  0.97650859  0.64925555  1  -1.251758  0  -0.327693  -0.228289  0  3.510412  0
N  N91  1  0.74532146  0.02350049  0.35074393  1  -1.252278  0  -0.327649  -0.22824  0  3.510227  0
N  N92  1  0.51543378  0.26404605  0.49612575  1  -1.234441  0  -0.32404  -0.237212  0  3.507963  0
N  N93  1  0.48457892  0.73595138  0.50386831  1  -1.234722  0  -0.32409  -0.23726  0  3.508143  0
N  N94  1  0.93445238  0.65403460  0.62014922  1  -0.722568  0  -0.199621  -0.100897  0  3.330176  0
N  N95  1  0.06556446  0.34596021  0.37984041  1  -0.722003  0  -0.199614  -0.100746  0  3.330422  0
N  N96  1  0.84149903  0.58802470  0.55431151  1  -0.820196  0  -0.289599  -0.237286  0  3.637034  0
N  N97  1  0.15850736  0.41197016  0.44568218  1  -0.820558  0  -0.289634  -0.23735  0  3.637406  0
O  O98  1  0.56695792  0.00739233  0.61609577  1  -1.198321  0  -0.34427  -0.596967  0  2.350791  0
O  O99  1  0.43303598  0.99261232  0.38389991  1  -1.198179  0  -0.344264  -0.596954  0  2.350843  0
O  O100  1  0.77367195  0.70816558  0.37124833  1  -1.192913  0  -0.337625  -0.592  0  2.269721  0
O  O101  1  0.22631137  0.29182687  0.62874740  1  -1.192499  0  -0.337605  -0.591971  0  2.269292  0
O  O102  1  0.77899415  0.92904589  0.58385760  1  -1.16695  0  -0.327744  -0.553336  0  2.222359  0
O  O103  1  0.22099561  0.07094713  0.41615639  1  -1.167166  0  -0.327841  -0.553441  0  2.222232  0
O  O104  1  0.94263790  0.32306790  0.97746891  1  -1.110025  0  -0.139821  -0.198744  0  2.607676  0
O  O105  1  0.05734978  0.67693047  0.02254079  1  -1.110183  0  -0.139826  -0.198836  0  2.607674  0
O  O106  1  0.62557223  0.76489027  0.24311587  1  -1.173714  0  -0.329284  -0.560098  0  2.203091  0
O  O107  1  0.37444582  0.23512741  0.75687169  1  -1.173987  0  -0.3293  -0.560149  0  2.202906  0
O  O108  1  0.78887439  0.47567225  0.69325837  1  -1.121164  0  -0.286162  -0.463383  0  2.139003  0
O  O109  1  0.21113721  0.52431904  0.30673573  1  -1.121214  0  -0.286149  -0.463445  0  2.139091  0
