# generated using pymatgen
data_CdNiH16(C4N3)4
_symmetry_space_group_name_H-M   'P 1'
_cell_length_a   7.37054036
_cell_length_b   9.77737685
_cell_length_c   15.53133631
_cell_angle_alpha   90.00013586
_cell_angle_beta   90.00034407
_cell_angle_gamma   105.29327925
_symmetry_Int_Tables_number   1
_chemical_formula_structural   CdNiH16(C4N3)4
_chemical_formula_sum   'Cd2 Ni2 H32 C32 N24'
_cell_volume   1079.62398805
_cell_formula_units_Z   2
loop_
 _symmetry_equiv_pos_site_id
 _symmetry_equiv_pos_as_xyz
  1  'x, y, z'
loop_
 _atom_site_type_symbol
 _atom_site_label
 _atom_site_symmetry_multiplicity
 _atom_site_fract_x
 _atom_site_fract_y
 _atom_site_fract_z
 _atom_site_occupancy
 _atom_site_hle17_bader_spin_density
 _atom_site_hle17_ddec_charge
 _atom_site_hle17_ddec_spin_density
 _atom_site_hle17_ddec_sum_bond_order
 _atom_site_hle17_magmom
 _atom_site_hse06_10hf_bader_spin_density
 _atom_site_hse06_10hf_ddec_charge
 _atom_site_hse06_10hf_ddec_spin_density
 _atom_site_hse06_10hf_ddec_sum_bond_order
 _atom_site_hse06_10hf_magmom
 _atom_site_hse06_bader_spin_density
 _atom_site_hse06_ddec_charge
 _atom_site_hse06_ddec_spin_density
 _atom_site_hse06_ddec_sum_bond_order
 _atom_site_hse06_magmom
 _atom_site_pbe_bader_spin_density
 _atom_site_pbe_cm5_charge
 _atom_site_pbe_ddec_charge
 _atom_site_pbe_ddec_spin_density
 _atom_site_pbe_ddec_sum_bond_order
 _atom_site_pbe_magmom
Cd  Cd0  1  0.49999722  0.49999871  0.49999863  1  0  1.016834  0  1.919297  0  0  0.806411  0  2.387094  0  0  0.854416  0  2.347782  0  0  0.797802  0.773122  0  2.413244  0
Cd  Cd1  1  0.00000043  0.49999928  0.00000166  1  0  1.016818  0  1.919258  0  0  0.806386  0  2.387043  0  0  0.85439  0  2.347736  0  0  0.797768  0.773096  0  2.413193  0
Ni  Ni2  1  0.99999070  0.99999572  0.49999649  1  0  0.13023  0  3.348559  0  0  0.139589  0  3.815204  0  0  0.154626  0  3.759256  0  0  0.395102  0.137999  0  3.848442  0
Ni  Ni3  1  0.49999662  0.99999630  0.00000339  1  0  0.130184  0  3.348641  0  0  0.139625  0  3.815275  0  0  0.154697  0  3.759347  0  0  0.39511  0.13801  0  3.848537  0
H  H4  1  0.69120625  0.22157027  0.44251749  1  0  0.083553  0  0.949518  0  0  0.092042  0  1.015233  0  0  0.093952  0  1.013001  0  0  0.131082  0.090549  0  1.01693  0
H  H5  1  0.80879795  0.77843467  0.94252269  1  0  0.083649  0  0.949468  0  0  0.092101  0  1.015206  0  0  0.094011  0  1.012975  0  0  0.131072  0.090605  0  1.016909  0
H  H6  1  0.30879980  0.77842928  0.55748041  1  0  0.083651  0  0.949419  0  0  0.092112  0  1.015154  0  0  0.094022  0  1.012922  0  0  0.131076  0.090616  0  1.016856  0
H  H7  1  0.19120477  0.22156699  0.05747843  1  0  0.083615  0  0.949452  0  0  0.09208  0  1.015186  0  0  0.09399  0  1.012954  0  0  0.131084  0.090584  0  1.016887  0
H  H8  1  0.74222605  0.35402384  0.18206550  1  0  0.113839  0  0.968992  0  0  0.121958  0  1.032435  0  0  0.124268  0  1.031828  0  0  0.118582  0.120296  0  1.032953  0
H  H9  1  0.75777090  0.64598145  0.68206972  1  0  0.113818  0  0.968931  0  0  0.121926  0  1.032405  0  0  0.124238  0  1.031791  0  0  0.118549  0.120264  0  1.032923  0
H  H10  1  0.25776925  0.64597994  0.81793240  1  0  0.113832  0  0.968966  0  0  0.121944  0  1.032424  0  0  0.124255  0  1.031812  0  0  0.118568  0.120282  0  1.032943  0
H  H11  1  0.24223034  0.35401597  0.31793204  1  0  0.113809  0  0.968983  0  0  0.121924  0  1.032446  0  0  0.124236  0  1.031834  0  0  0.118539  0.120261  0  1.032964  0
H  H12  1  0.62594840  0.55222231  0.28118187  1  0  0.083827  0  0.997844  0  0  0.088971  0  1.069305  0  0  0.090425  0  1.070314  0  0  0.103533  0.087746  0  1.069017  0
H  H13  1  0.87405657  0.44778685  0.78118291  1  0  0.083876  0  0.997849  0  0  0.089014  0  1.069308  0  0  0.090465  0  1.070321  0  0  0.10354  0.087797  0  1.069011  0
H  H14  1  0.37405542  0.44778254  0.71882053  1  0  0.083854  0  0.997808  0  0  0.088988  0  1.069279  0  0  0.09044  0  1.070291  0  0  0.103531  0.087774  0  1.068979  0
H  H15  1  0.12594713  0.55221376  0.21881949  1  0  0.08384  0  0.99786  0  0  0.088972  0  1.069331  0  0  0.090423  0  1.070345  0  0  0.103514  0.087761  0  1.069029  0
H  H16  1  0.58801278  0.80685546  0.36041408  1  0  0.084812  0  0.969527  0  0  0.09344  0  1.034147  0  0  0.094945  0  1.033155  0  0  0.126678  0.092147  0  1.03513  0
H  H17  1  0.91198723  0.19314044  0.86041421  1  0  0.084797  0  0.969585  0  0  0.093426  0  1.034203  0  0  0.094948  0  1.033191  0  0  0.126669  0.092134  0  1.035186  0
H  H18  1  0.41198512  0.19314408  0.63958446  1  0  0.084798  0  0.969518  0  0  0.093425  0  1.034141  0  0  0.094931  0  1.033148  0  0  0.126682  0.092133  0  1.035125  0
H  H19  1  0.08801672  0.80685698  0.13958691  1  0  0.084801  0  0.969517  0  0  0.093441  0  1.034127  0  0  0.094951  0  1.03313  0  0  0.12668  0.092149  0  1.03511  0
H  H20  1  0.00051447  0.73917164  0.33011380  1  0  0.107099  0  0.967995  0  0  0.115516  0  1.029841  0  0  0.117304  0  1.030546  0  0  0.118856  0.114127  0  1.02965  0
H  H21  1  0.49948715  0.26082965  0.83011557  1  0  0.107054  0  0.968057  0  0  0.115439  0  1.029935  0  0  0.117225  0  1.030643  0  0  0.118838  0.114051  0  1.029744  0
H  H22  1  0.99948923  0.26082896  0.66988538  1  0  0.107093  0  0.967986  0  0  0.1155  0  1.02985  0  0  0.117289  0  1.030555  0  0  0.118851  0.114111  0  1.029659  0
H  H23  1  0.50051310  0.73916883  0.16988555  1  0  0.107101  0  0.967959  0  0  0.115492  0  1.029836  0  0  0.117279  0  1.030543  0  0  0.11886  0.114105  0  1.029644  0
H  H24  1  0.07096761  0.52393540  0.43069427  1  0  0.106211  0  0.956834  0  0  0.114  0  1.020213  0  0  0.116516  0  1.019337  0  0  0.116732  0.112178  0  1.020899  0
H  H25  1  0.42903033  0.47606338  0.93069487  1  0  0.106244  0  0.956897  0  0  0.114039  0  1.020265  0  0  0.116546  0  1.019399  0  0  0.116751  0.11222  0  1.020947  0
H  H26  1  0.92902992  0.47606308  0.56930620  1  0  0.106266  0  0.95689  0  0  0.114063  0  1.020252  0  0  0.116566  0  1.019394  0  0  0.116755  0.112243  0  1.020933  0
H  H27  1  0.57097152  0.52393192  0.06930754  1  0  0.106213  0  0.956906  0  0  0.114023  0  1.020254  0  0  0.116527  0  1.01939  0  0  0.116749  0.112217  0  1.020936  0
H  H28  1  0.77877092  0.16505699  0.29148549  1  0  0.299182  0  0.917582  0  0  0.282041  0  0.976312  0  0  0.289036  0  0.971665  0  0  0.314003  0.277152  0  0.97963  0
H  H29  1  0.72122631  0.83494904  0.79148989  1  0  0.299179  0  0.917553  0  0  0.282006  0  0.976304  0  0  0.289002  0  0.971658  0  0  0.313978  0.27712  0  0.979623  0
H  H30  1  0.22122463  0.83494361  0.70851048  1  0  0.299198  0  0.91756  0  0  0.282085  0  0.97623  0  0  0.289083  0  0.971575  0  0  0.313995  0.277201  0  0.979548  0
H  H31  1  0.27877603  0.16505156  0.20851123  1  0  0.299154  0  0.917553  0  0  0.281981  0  0.976302  0  0  0.288977  0  0.971656  0  0  0.313967  0.277095  0  0.97962  0
H  H32  1  0.32765111  0.89265220  0.28704790  1  0  0.29943  0  0.935908  0  0  0.277777  0  1.002437  0  0  0.286282  0  0.995525  0  0  0.306541  0.271803  0  1.007338  0
H  H33  1  0.17234876  0.10734562  0.78704658  1  0  0.299361  0  0.935934  0  0  0.277705  0  1.002463  0  0  0.28621  0  0.995552  0  0  0.306525  0.271733  0  1.00736  0
H  H34  1  0.67234889  0.10734946  0.71295257  1  0  0.299334  0  0.93598  0  0  0.277697  0  1.002483  0  0  0.286202  0  0.995574  0  0  0.30653  0.271728  0  1.007379  0
H  H35  1  0.82765223  0.89265498  0.21295197  1  0  0.299403  0  0.935919  0  0  0.277746  0  1.002438  0  0  0.286251  0  0.995528  0  0  0.30653  0.271774  0  1.007333  0
C  C36  1  0.68859502  0.28665766  0.38632018  1  0  0.202119  0  3.703389  0  0  0.144568  0  3.970826  0  0  0.157314  0  3.985781  0  0  0.132652  0.13642  0  3.960299  0
C  C37  1  0.81141068  0.71334585  0.88632207  1  0  0.201951  0  3.703286  0  0  0.144402  0  3.970664  0  0  0.157144  0  3.985621  0  0  0.132603  0.13626  0  3.960136  0
C  C38  1  0.31140930  0.71334083  0.61367837  1  0  0.201931  0  3.703406  0  0  0.144358  0  3.970809  0  0  0.157099  0  3.985769  0  0  0.132583  0.136219  0  3.960283  0
C  C39  1  0.18859586  0.28665900  0.11367840  1  0  0.202038  0  3.703363  0  0  0.144472  0  3.970759  0  0  0.157217  0  3.985716  0  0  0.132629  0.13633  0  3.960232  0
C  C40  1  0.71514327  0.35802283  0.25044464  1  0  -0.004379  0  3.683211  0  0  -0.042276  0  3.943573  0  0  -0.039939  0  3.962466  0  0  -0.000878  -0.043716  0  3.930706  0
C  C41  1  0.78485754  0.64198717  0.75044765  1  0  -0.004376  0  3.683191  0  0  -0.042308  0  3.943547  0  0  -0.039972  0  3.96244  0  0  -0.000852  -0.043744  0  3.930686  0
C  C42  1  0.28485351  0.64198518  0.74955326  1  0  -0.004315  0  3.683269  0  0  -0.042249  0  3.943617  0  0  -0.039912  0  3.962511  0  0  -0.000829  -0.043686  0  3.930757  0
C  C43  1  0.21514690  0.35801556  0.24955411  1  0  -0.004292  0  3.683274  0  0  -0.042231  0  3.943612  0  0  -0.039893  0  3.962505  0  0  -0.000808  -0.043666  0  3.930748  0
C  C44  1  0.65927539  0.45537775  0.30073587  1  0  -0.01768  0  3.774946  0  0  -0.046438  0  4.037794  0  0  -0.045807  0  4.059578  0  0  -0.013927  -0.046768  0  4.023132  0
C  C45  1  0.84073185  0.54462942  0.80073888  1  0  -0.017718  0  3.775074  0  0  -0.046474  0  4.037935  0  0  -0.045843  0  4.059721  0  0  -0.013872  -0.046812  0  4.02327  0
C  C46  1  0.34072806  0.54462603  0.69926332  1  0  -0.017745  0  3.775092  0  0  -0.04651  0  4.037963  0  0  -0.045879  0  4.059746  0  0  -0.013891  -0.04685  0  4.023293  0
C  C47  1  0.15927049  0.45537119  0.19926481  1  0  -0.017738  0  3.775156  0  0  -0.046491  0  4.038013  0  0  -0.045859  0  4.059797  0  0  -0.013887  -0.046834  0  4.023341  0
C  C48  1  0.43881824  0.75616632  0.36602636  1  0  0.197852  0  3.69458  0  0  0.143246  0  3.95838  0  0  0.156228  0  3.972453  0  0  0.132438  0.134983  0  3.948594  0
C  C49  1  0.06117874  0.24383202  0.86602556  1  0  0.197953  0  3.694557  0  0  0.143328  0  3.958359  0  0  0.1563  0  3.972421  0  0  0.132502  0.135065  0  3.948573  0
C  C50  1  0.56118065  0.24383216  0.63397348  1  0  0.197958  0  3.694551  0  0  0.143347  0  3.958363  0  0  0.156329  0  3.972435  0  0  0.132479  0.135085  0  3.948581  0
C  C51  1  0.93881854  0.75616963  0.13397492  1  0  0.197949  0  3.694512  0  0  0.143312  0  3.958306  0  0  0.156292  0  3.972373  0  0  0.132497  0.135049  0  3.948519  0
C  C52  1  0.13123783  0.71968817  0.35110251  1  0  -0.019773  0  3.712351  0  0  -0.055414  0  3.976353  0  0  -0.054043  0  3.995423  0  0  -0.002034  -0.056282  0  3.963466  0
C  C53  1  0.36876212  0.28031538  0.85110329  1  0  -0.019778  0  3.712413  0  0  -0.055407  0  3.976428  0  0  -0.054034  0  3.995496  0  0  -0.002073  -0.056275  0  3.963541  0
C  C54  1  0.86876081  0.28031349  0.64889668  1  0  -0.019824  0  3.712217  0  0  -0.055459  0  3.976227  0  0  -0.054088  0  3.995293  0  0  -0.002074  -0.056326  0  3.963338  0
C  C55  1  0.63123985  0.71968416  0.14889590  1  0  -0.019827  0  3.712321  0  0  -0.055467  0  3.976338  0  0  -0.054099  0  3.99541  0  0  -0.002083  -0.056334  0  3.963452  0
C  C56  1  0.16841116  0.61444497  0.40123339  1  0  -0.003172  0  3.740827  0  0  -0.034189  0  4.004585  0  0  -0.032823  0  4.024856  0  0  -0.0031  -0.034907  0  3.990793  0
C  C57  1  0.33158843  0.38555574  0.90123358  1  0  -0.00318  0  3.741022  0  0  -0.034201  0  4.004755  0  0  -0.03283  0  4.025027  0  0  -0.0031  -0.034918  0  3.990964  0
C  C58  1  0.83158476  0.38555669  0.59876515  1  0  -0.003231  0  3.741114  0  0  -0.03426  0  4.004859  0  0  -0.032887  0  4.025129  0  0  -0.003109  -0.034979  0  3.991067  0
C  C59  1  0.66841614  0.61443957  0.09876690  1  0  -0.00307  0  3.741009  0  0  -0.034101  0  4.004743  0  0  -0.032723  0  4.025019  0  0  -0.003034  -0.034841  0  3.990939  0
C  C60  1  0.85826957  0.81566643  0.51139698  1  0  0.066665  0  3.518414  0  0  0.032783  0  3.856873  0  0  0.039571  0  3.860514  0  0  0.01034  0.02456  0  3.856016  0
C  C61  1  0.64172791  0.18433877  0.01140574  1  0  0.066603  0  3.518468  0  0  0.032716  0  3.856904  0  0  0.039478  0  3.860579  0  0  0.010387  0.024507  0  3.856042  0
C  C62  1  0.14173018  0.18433841  0.48859062  1  0  0.066586  0  3.518365  0  0  0.032726  0  3.856775  0  0  0.039494  0  3.86044  0  0  0.010412  0.02451  0  3.85591  0
C  C63  1  0.35826987  0.81565653  0.98860053  1  0  0.066741  0  3.518644  0  0  0.032863  0  3.857069  0  0  0.039618  0  3.860754  0  0  0.010434  0.024655  0  3.856207  0
C  C64  1  0.07142950  0.00040752  0.61348434  1  0  0.074955  0  3.495475  0  0  0.048931  0  3.834888  0  0  0.055362  0  3.835722  0  0  0.018463  0.042689  0  3.833596  0
C  C65  1  0.42856578  0.99959123  0.11349191  1  0  0.075026  0  3.495122  0  0  0.048986  0  3.834548  0  0  0.055413  0  3.8354  0  0  0.01838  0.042743  0  3.833259  0
C  C66  1  0.92855013  0.99959411  0.38650197  1  0  0.075037  0  3.495835  0  0  0.049026  0  3.835228  0  0  0.05545  0  3.836066  0  0  0.01843  0.042789  0  3.83393  0
C  C67  1  0.57143520  0.00040937  0.88651887  1  0  0.074976  0  3.495179  0  0  0.048927  0  3.834606  0  0  0.055352  0  3.835454  0  0  0.018468  0.042686  0  3.833321  0
N  N68  1  0.64271790  0.40972107  0.38529582  1  0  -0.396665  0  3.24522  0  0  -0.319655  0  3.519948  0  0  -0.339389  0  3.537877  0  0  -0.361297  -0.306146  0  3.507147  0
N  N69  1  0.85728938  0.59027925  0.88529509  1  0  -0.396607  0  3.245278  0  0  -0.319582  0  3.519975  0  0  -0.339313  0  3.537903  0  0  -0.361324  -0.306075  0  3.507175  0
N  N70  1  0.35728642  0.59027742  0.61470659  1  0  -0.396536  0  3.245354  0  0  -0.319514  0  3.520064  0  0  -0.339245  0  3.537994  0  0  -0.361274  -0.306006  0  3.507263  0
N  N71  1  0.14271740  0.40972241  0.11470731  1  0  -0.396591  0  3.245387  0  0  -0.319572  0  3.520096  0  0  -0.339303  0  3.538024  0  0  -0.361306  -0.306065  0  3.507302  0
N  N72  1  0.73244129  0.25244736  0.30590472  1  0  -0.280171  0  3.492167  0  0  -0.21332  0  3.724397  0  0  -0.229392  0  3.741238  0  0  -0.382008  -0.20254  0  3.712767  0
N  N73  1  0.76756221  0.74755666  0.80590655  1  0  -0.280133  0  3.492267  0  0  -0.213173  0  3.724399  0  0  -0.229244  0  3.741244  0  0  -0.38195  -0.202405  0  3.712775  0
N  N74  1  0.26756007  0.74755430  0.69409189  1  0  -0.280211  0  3.492339  0  0  -0.213287  0  3.724414  0  0  -0.229358  0  3.741258  0  0  -0.381999  -0.202524  0  3.712794  0
N  N75  1  0.23244248  0.25244289  0.19409328  1  0  -0.28019  0  3.492166  0  0  -0.213223  0  3.724302  0  0  -0.229298  0  3.74115  0  0  -0.381993  -0.202456  0  3.712677  0
N  N76  1  0.36075841  0.63821928  0.40999468  1  0  -0.390605  0  3.232667  0  0  -0.314361  0  3.509731  0  0  -0.333673  0  3.527047  0  0  -0.356773  -0.301142  0  3.49744  0
N  N77  1  0.13924219  0.36177619  0.90999428  1  0  -0.39069  0  3.232658  0  0  -0.314461  0  3.509788  0  0  -0.333773  0  3.527106  0  0  -0.356792  -0.301243  0  3.497498  0
N  N78  1  0.63924517  0.36177708  0.59000515  1  0  -0.390677  0  3.23278  0  0  -0.314439  0  3.50987  0  0  -0.333749  0  3.527183  0  0  -0.356792  -0.301221  0  3.497579  0
N  N79  1  0.86075695  0.63821911  0.09000812  1  0  -0.390702  0  3.23278  0  0  -0.314479  0  3.50992  0  0  -0.33379  0  3.527231  0  0  -0.356829  -0.30126  0  3.497636  0
N  N80  1  0.30381051  0.80844681  0.32964749  1  0  -0.289179  0  3.478759  0  0  -0.223365  0  3.717063  0  0  -0.239163  0  3.731133  0  0  -0.382204  -0.212882  0  3.707485  0
N  N81  1  0.19618691  0.19155023  0.82964764  1  0  -0.28909  0  3.478565  0  0  -0.223241  0  3.716823  0  0  -0.239041  0  3.730899  0  0  -0.382167  -0.212757  0  3.707246  0
N  N82  1  0.69618468  0.19155272  0.67035170  1  0  -0.289055  0  3.478651  0  0  -0.223248  0  3.716962  0  0  -0.239044  0  3.731034  0  0  -0.382175  -0.212766  0  3.707385  0
N  N83  1  0.80381198  0.80844825  0.17035219  1  0  -0.289192  0  3.47873  0  0  -0.223328  0  3.716984  0  0  -0.239127  0  3.731059  0  0  -0.38221  -0.212845  0  3.707404  0
N  N84  1  0.76702265  0.69823265  0.51843157  1  0  -0.435894  0  2.947995  0  0  -0.36843  0  3.233983  0  0  -0.387099  0  3.248522  0  0  -0.36366  -0.354837  0  3.224493  0
N  N85  1  0.73297025  0.30176305  0.01843755  1  0  -0.435809  0  2.948238  0  0  -0.368347  0  3.234223  0  0  -0.387011  0  3.248765  0  0  -0.363701  -0.354753  0  3.224731  0
N  N86  1  0.23297143  0.30176371  0.48156247  1  0  -0.435838  0  2.948236  0  0  -0.368381  0  3.234223  0  0  -0.387045  0  3.248761  0  0  -0.363747  -0.354792  0  3.224731  0
N  N87  1  0.26702567  0.69823860  0.98156422  1  0  -0.435934  0  2.948433  0  0  -0.36848  0  3.234429  0  0  -0.38714  0  3.248971  0  0  -0.363736  -0.354886  0  3.224936  0
N  N88  1  0.11975540  0.00056908  0.68571580  1  0  -0.455568  0  2.831663  0  0  -0.410851  0  3.079784  0  0  -0.424414  0  3.091225  0  0  -0.360471  -0.401024  0  3.072031  0
N  N89  1  0.38024207  0.99943334  0.18572967  1  0  -0.455648  0  2.83131  0  0  -0.410914  0  3.079421  0  0  -0.424477  0  3.090869  0  0  -0.360411  -0.401079  0  3.071666  0
N  N90  1  0.88024002  0.99943893  0.31427695  1  0  -0.455653  0  2.832196  0  0  -0.410926  0  3.080299  0  0  -0.424486  0  3.091742  0  0  -0.360479  -0.4011  0  3.072543  0
N  N91  1  0.61975928  0.00056832  0.81428175  1  0  -0.455563  0  2.831316  0  0  -0.410824  0  3.079405  0  0  -0.424386  0  3.090853  0  0  -0.360471  -0.400992  0  3.071652  0
