# generated using pymatgen
data_H11PbC15N3(ClO4)2
_symmetry_space_group_name_H-M   'P 1'
_cell_length_a   9.96309007
_cell_length_b   9.96293012
_cell_length_c   10.22412450
_cell_angle_alpha   96.27642805
_cell_angle_beta   96.27280602
_cell_angle_gamma   115.93580166
_symmetry_Int_Tables_number   1
_chemical_formula_structural   H11PbC15N3(ClO4)2
_chemical_formula_sum   'H22 Pb2 C30 N6 Cl4 O16'
_cell_volume   893.06402431
_cell_formula_units_Z   2
loop_
 _symmetry_equiv_pos_site_id
 _symmetry_equiv_pos_as_xyz
  1  'x, y, z'
loop_
 _atom_site_type_symbol
 _atom_site_label
 _atom_site_symmetry_multiplicity
 _atom_site_fract_x
 _atom_site_fract_y
 _atom_site_fract_z
 _atom_site_occupancy
 _atom_site_pbe_bader_spin_density
 _atom_site_pbe_cm5_charge
 _atom_site_pbe_ddec_charge
 _atom_site_pbe_ddec_spin_density
 _atom_site_pbe_ddec_sum_bond_order
 _atom_site_pbe_magmom
H  H0  1  0.18581983  0.90177843  0.68766093  1  0  0.111929  0.131758  0  1.021289  0
H  H1  1  0.59821357  0.31422013  0.81238007  1  0  0.112015  0.131837  0  1.021129  0
H  H2  1  0.81418824  0.09822301  0.31234211  1  0  0.111919  0.13171  0  1.021313  0
H  H3  1  0.40178359  0.68579567  0.18763407  1  0  0.111964  0.131768  0  1.021227  0
H  H4  1  0.46577014  0.03426913  0.75003222  1  0  0.113645  0.114638  0  0.977699  0
H  H5  1  0.53423978  0.96574817  0.24998236  1  0  0.113643  0.114693  0  0.977768  0
H  H6  1  0.96391064  0.80380164  0.64246103  1  0  0.108593  0.127171  0  1.026028  0
H  H7  1  0.69614838  0.53607672  0.85754056  1  0  0.108594  0.12724  0  1.025985  0
H  H8  1  0.03607343  0.19617449  0.35753909  1  0  0.108618  0.127213  0  1.026015  0
H  H9  1  0.30385022  0.46392811  0.14248438  1  0  0.10861  0.127194  0  1.02604  0
H  H10  1  0.68630700  0.69333524  0.57191174  1  0  0.106644  0.114702  0  1.019864  0
H  H11  1  0.80663945  0.81368983  0.92809516  1  0  0.106635  0.114698  0  1.019939  0
H  H12  1  0.31367981  0.30665208  0.42808389  1  0  0.106614  0.114634  0  1.019953  0
H  H13  1  0.19336070  0.18631392  0.07192885  1  0  0.106631  0.114724  0  1.019913  0
H  H14  1  0.56311354  0.86528937  0.57197311  1  0  0.102535  0.108955  0  1.027873  0
H  H15  1  0.63471182  0.93690783  0.92802005  1  0  0.102626  0.109022  0  1.027973  0
H  H16  1  0.43687694  0.13469929  0.42803084  1  0  0.102559  0.109008  0  1.027861  0
H  H17  1  0.36529295  0.06310014  0.07197744  1  0  0.102596  0.108986  0  1.028012  0
H  H18  1  0.72958913  0.14633717  0.64145573  1  0  0.111016  0.081573  0  1.038572  0
H  H19  1  0.35366795  0.77046812  0.85851598  1  0  0.111069  0.08165  0  1.038619  0
H  H20  1  0.27041404  0.85364606  0.35853329  1  0  0.111046  0.081678  0  1.038408  0
H  H21  1  0.64633734  0.22954624  0.14145872  1  0  0.111083  0.081698  0  1.038482  0
Pb  Pb22  1  0.08332471  0.41665647  0.74999653  1  0  0.640378  1.025031  0  1.811653  0
Pb  Pb23  1  0.91666607  0.58332857  0.24998753  1  0  0.640419  1.025084  0  1.811655  0
C  C24  1  0.16407809  0.11025423  0.71552182  1  0  0.130811  0.183861  0  3.971821  0
C  C25  1  0.38972669  0.33592608  0.78447590  1  0  0.13076  0.183644  0  3.971905  0
C  C26  1  0.83591820  0.88974570  0.28447795  1  0  0.130877  0.183856  0  3.971929  0
C  C27  1  0.61026712  0.66407500  0.21553058  1  0  0.13087  0.183893  0  3.971757  0
C  C28  1  0.24424687  0.02447330  0.71479792  1  0  -0.072513  -0.144444  0  3.913718  0
C  C29  1  0.47552225  0.25577248  0.78523216  1  0  -0.072432  -0.144224  0  3.913279  0
C  C30  1  0.75575142  0.97552893  0.28520228  1  0  -0.072499  -0.144328  0  3.913667  0
C  C31  1  0.52447411  0.74423209  0.21477884  1  0  -0.072503  -0.144273  0  3.913464  0
C  C32  1  0.40123521  0.09877552  0.75001856  1  0  -0.061974  -0.008528  0  3.946786  0
C  C33  1  0.59876169  0.90122567  0.24998922  1  0  -0.061937  -0.008634  0  3.947046  0
C  C34  1  0.99633219  0.03622690  0.67608772  1  0  0.124757  0.173785  0  3.984408  0
C  C35  1  0.46374084  0.50367835  0.82391067  1  0  0.124843  0.173938  0  3.984285  0
C  C36  1  0.00366232  0.96375726  0.32390543  1  0  0.124636  0.173698  0  3.984274  0
C  C37  1  0.53625046  0.49632384  0.17610057  1  0  0.124745  0.173717  0  3.984377  0
C  C38  1  0.91078329  0.87848109  0.64014619  1  0  -0.076917  -0.148751  0  3.895685  0
C  C39  1  0.62148401  0.58921941  0.85985822  1  0  -0.076869  -0.148872  0  3.895503  0
C  C40  1  0.08920884  0.12150202  0.35985640  1  0  -0.0769  -0.148748  0  3.895546  0
C  C41  1  0.37851102  0.41078189  0.14016113  1  0  -0.076935  -0.148755  0  3.895636  0
C  C42  1  0.75417543  0.81559441  0.60121541  1  0  -0.063712  -0.009029  0  3.924383  0
C  C43  1  0.68438531  0.74583454  0.89878998  1  0  -0.063797  -0.009144  0  3.924671  0
C  C44  1  0.24581806  0.18439427  0.39878395  1  0  -0.063711  -0.008944  0  3.924328  0
C  C45  1  0.31561381  0.25416916  0.10123294  1  0  -0.063667  -0.00909  0  3.924481  0
C  C46  1  0.68534850  0.91087050  0.60070317  1  0  -0.08317  -0.120689  0  3.958829  0
C  C47  1  0.58912188  0.81467512  0.89928222  1  0  -0.08325  -0.120734  0  3.959004  0
C  C48  1  0.31464293  0.08911583  0.39929184  1  0  -0.083251  -0.120866  0  3.958757  0
C  C49  1  0.41088200  0.18533296  0.10072498  1  0  -0.083226  -0.120693  0  3.958988  0
C  C50  1  0.77679288  0.06617261  0.63887200  1  0  0.047093  0.098983  0  3.969548  0
C  C51  1  0.43382008  0.72324367  0.86111522  1  0  0.047086  0.099002  0  3.96945  0
C  C52  1  0.22320576  0.93381170  0.36112352  1  0  0.047136  0.099026  0  3.969312  0
C  C53  1  0.56618093  0.27676744  0.13887537  1  0  0.047017  0.098813  0  3.969656  0
N  N54  1  0.23709117  0.26289402  0.75000223  1  0  -0.285395  -0.310232  0  3.386856  0
N  N55  1  0.76290264  0.73710478  0.25000110  1  0  -0.285494  -0.31043  0  3.387058  0
N  N56  1  0.92792102  0.12696040  0.67435917  1  0  -0.302204  -0.294675  0  3.457085  0
N  N57  1  0.37302314  0.57210643  0.82563144  1  0  -0.302316  -0.294808  0  3.457054  0
N  N58  1  0.07207497  0.87302487  0.32563130  1  0  -0.302104  -0.294624  0  3.456924  0
N  N59  1  0.62697098  0.42790016  0.17436975  1  0  -0.302241  -0.294628  0  3.45714  0
Cl  Cl60  1  0.08376500  0.75795918  0.97717078  1  0  0.735055  1.275987  0  6.777682  0
Cl  Cl61  1  0.74205067  0.41625097  0.52281753  1  0  0.734667  1.275382  0  6.778666  0
Cl  Cl62  1  0.91625132  0.24205008  0.02281526  1  0  0.734853  1.275617  0  6.778258  0
Cl  Cl63  1  0.25795521  0.58375484  0.47718279  1  0  0.734984  1.275782  0  6.777863  0
O  O64  1  0.10089832  0.71584734  0.84036618  1  0  -0.294934  -0.512141  0  2.15962  0
O  O65  1  0.78416312  0.39913473  0.65962412  1  0  -0.294806  -0.511978  0  2.15977  0
O  O66  1  0.89909720  0.28415117  0.15961381  1  0  -0.294854  -0.511961  0  2.159693  0
O  O67  1  0.21583393  0.60088096  0.34038218  1  0  -0.294883  -0.512062  0  2.159648  0
O  O68  1  0.94074566  0.63563766  0.00219757  1  0  -0.300321  -0.52547  0  2.142489  0
O  O69  1  0.86435161  0.55927481  0.49777837  1  0  -0.30019  -0.525269  0  2.142933  0
O  O70  1  0.05928754  0.36436346  0.99780989  1  0  -0.300221  -0.525359  0  2.142673  0
O  O71  1  0.13565227  0.44072184  0.50221008  1  0  -0.300341  -0.525491  0  2.142586  0
O  O72  1  0.21055104  0.76983734  0.07187867  1  0  -0.302482  -0.50029  0  2.098256  0
O  O73  1  0.73019737  0.28947072  0.42811107  1  0  -0.302401  -0.500185  0  2.098539  0
O  O74  1  0.78948653  0.23019354  0.92809205  1  0  -0.302442  -0.50028  0  2.098456  0
O  O75  1  0.26980917  0.71053182  0.57189388  1  0  -0.302426  -0.500238  0  2.098431  0
O  O76  1  0.07407758  0.89950127  0.99073647  1  0  -0.285571  -0.451771  0  2.116529  0
O  O77  1  0.60049635  0.42591404  0.50924774  1  0  -0.285525  -0.451618  0  2.116488  0
O  O78  1  0.92592107  0.10049969  0.00925190  1  0  -0.285576  -0.451687  0  2.116546  0
O  O79  1  0.39951033  0.57409386  0.49074113  1  0  -0.285579  -0.451704  0  2.116487  0
