# generated using pymatgen
data_MgH7C19NO5
_symmetry_space_group_name_H-M   'P 1'
_cell_length_a   6.80006713
_cell_length_b   41.53320656
_cell_length_c   41.52600432
_cell_angle_alpha   119.68543497
_cell_angle_beta   93.12534954
_cell_angle_gamma   93.13624356
_symmetry_Int_Tables_number   1
_chemical_formula_structural   MgH7C19NO5
_chemical_formula_sum   'Mg6 H42 C114 N6 O30'
_cell_volume   10128.51139703
_cell_formula_units_Z   6
loop_
 _symmetry_equiv_pos_site_id
 _symmetry_equiv_pos_as_xyz
  1  'x, y, z'
loop_
 _atom_site_type_symbol
 _atom_site_label
 _atom_site_symmetry_multiplicity
 _atom_site_fract_x
 _atom_site_fract_y
 _atom_site_fract_z
 _atom_site_occupancy
 _atom_site_pbe_bader_charge
 _atom_site_pbe_bader_spin_density
 _atom_site_pbe_cm5_charge
 _atom_site_pbe_ddec_charge
 _atom_site_pbe_ddec_spin_density
 _atom_site_pbe_ddec_sum_bond_order
 _atom_site_pbe_magmom
Mg  Mg0  1  0.85249923  0.69010843  0.32951722  1  1.683831  0  0.912954  1.41145  0  1.328288  0
Mg  Mg1  1  0.30244921  0.30903263  0.66913557  1  1.682698  0  0.912192  1.409724  0  1.32965  0
Mg  Mg2  1  0.16246494  0.63947029  0.30986478  1  1.681798  0  0.913027  1.4116  0  1.328076  0
Mg  Mg3  1  0.99313472  0.35994191  0.69093295  1  1.682133  0  0.912367  1.41038  0  1.328764  0
Mg  Mg4  1  0.52298947  0.67045253  0.36051336  1  1.683608  0  0.912878  1.410725  0  1.329246  0
Mg  Mg5  1  0.63309735  0.33083308  0.63999037  1  1.683521  0  0.91249  1.410289  0  1.328804  0
H  H6  1  0.15815117  0.55476447  0.96055353  1  0.048741  0  0.108441  0.108233  0  1.003437  0
H  H7  1  0.95246769  0.52319350  0.90026404  1  0.130918  0  0.118  0.124492  0  0.976701  0
H  H8  1  0.29864381  0.58122349  0.01008977  1  0.04447  0  0.108239  0.107206  0  1.004376  0
H  H9  1  0.49661950  0.61166984  0.07118700  1  0.12238  0  0.117017  0.122389  0  0.97879  0
H  H10  1  0.21053734  0.47068443  0.09880563  1  0.119088  0  0.118301  0.124748  0  0.976428  0
H  H11  1  0.00283737  0.43927678  0.03877515  1  0.074816  0  0.108291  0.10742  0  1.002932  0
H  H12  1  0.39113417  0.59066637  0.20485720  1  0.086288  0  0.112645  0.12369  0  1.002869  0
H  H13  1  0.11138104  0.62701441  0.21939783  1  0.071316  0  0.108054  0.123657  0  1.002181  0
H  H14  1  0.93292910  0.59040738  0.15594510  1  0.080074  0  0.109907  0.11511  0  0.979115  0
H  H15  1  0.84198415  0.41499579  0.99108864  1  0.043417  0  0.108046  0.106961  0  1.00427  0
H  H16  1  0.64268688  0.38483421  0.93016127  1  0.106713  0  0.116798  0.121971  0  0.978371  0
H  H17  1  0.76272580  0.40512890  0.79546309  1  0.10969  0  0.11263  0.123315  0  1.004846  0
H  H18  1  0.04186117  0.36905657  0.77994935  1  0.085306  0  0.107697  0.124081  0  1.003202  0
H  H19  1  0.21893551  0.40452635  0.84351429  1  0.081003  0  0.10987  0.115334  0  0.979312  0
H  H20  1  0.60288823  0.40586283  0.44521136  1  0.077929  0  0.108316  0.10807  0  1.004276  0
H  H21  1  0.42882059  0.37711826  0.47677147  1  0.13691  0  0.118248  0.124386  0  0.976505  0
H  H22  1  0.71908854  0.42900320  0.41899834  1  0.045066  0  0.10857  0.10754  0  1.004696  0
H  H23  1  0.88626099  0.45967769  0.38852630  1  0.122662  0  0.116919  0.121964  0  0.979248  0
H  H24  1  0.73952073  0.62817899  0.52938267  1  0.112935  0  0.11806  0.124211  0  0.976416  0
H  H25  1  0.56316667  0.59950846  0.56076646  1  0.04763  0  0.108529  0.107721  0  1.003805  0
H  H26  1  0.79990644  0.61419736  0.40926386  1  0.125363  0  0.112864  0.123944  0  1.00236  0
H  H27  1  0.48404542  0.59245230  0.37300351  1  0.079179  0  0.108245  0.124105  0  1.002233  0
H  H28  1  0.34220492  0.56567314  0.40968168  1  0.079985  0  0.109671  0.114767  0  0.978692  0
H  H29  1  0.42659097  0.57604743  0.58504055  1  0.09863  0  0.108306  0.107689  0  1.004001  0
H  H30  1  0.25744797  0.54522430  0.61516811  1  0.141313  0  0.116858  0.122156  0  0.9792  0
H  H31  1  0.35750518  0.39033389  0.59489092  1  0.122546  0  0.112681  0.123738  0  1.004314  0
H  H32  1  0.67253029  0.41069616  0.63089605  1  0.078054  0  0.107563  0.123881  0  1.003401  0
H  H33  1  0.81404571  0.43887772  0.59547631  1  0.071125  0  0.109778  0.115036  0  0.978853  0
H  H34  1  0.19772315  0.03939944  0.59422336  1  0.069633  0  0.108348  0.108285  0  1.003834  0
H  H35  1  0.05248211  0.09968772  0.62293850  1  0.087879  0  0.118131  0.124366  0  0.976034  0
H  H36  1  0.29147944  0.99007146  0.57108184  1  0.010232  0  0.108132  0.107106  0  1.004286  0
H  H37  1  0.42708908  0.92885433  0.54037158  1  0.117942  0  0.117197  0.122679  0  0.979142  0
H  H38  1  0.10974050  0.90113184  0.37190004  1  0.119933  0  0.118229  0.124209  0  0.976691  0
H  H39  1  0.96292823  0.96124337  0.40056283  1  0.069862  0  0.108399  0.107459  0  1.003569  0
H  H40  1  0.18533163  0.79497279  0.38569317  1  0.116127  0  0.112808  0.123803  0  1.002921  0
H  H41  1  0.89144140  0.78068785  0.40755406  1  0.081981  0  0.108074  0.124262  0  1.002814  0
H  H42  1  0.77577079  0.84405807  0.43435036  1  0.070432  0  0.1096  0.114792  0  0.977801  0
H  H43  1  0.85124475  0.00899898  0.42396973  1  0.040112  0  0.107971  0.107155  0  1.00393  0
H  H44  1  0.71348224  0.06998529  0.45474155  1  0.107013  0  0.117041  0.122462  0  0.978987  0
H  H45  1  0.96776973  0.20454790  0.60962336  1  0.100079  0  0.112658  0.123383  0  1.004921  0
H  H46  1  0.26222849  0.22000333  0.58914815  1  0.067623  0  0.107687  0.124345  0  1.00259  0
H  H47  1  0.37597679  0.15644869  0.56102081  1  0.08947  0  0.110029  0.115547  0  0.979056  0
C  C48  1  0.60850478  0.40808133  0.88134845  1  1.328013  0  0.238423  0.433329  0  4.107093  0
C  C49  1  0.71691195  0.46058419  0.87095997  1  1.32645  0  0.240238  0.436024  0  4.10521  0
C  C50  1  0.83919289  0.47817310  0.90707901  1  -0.021099  0  -0.012487  -0.076244  0  4.01064  0
C  C51  1  0.84114930  0.46179381  0.92995270  1  0.030889  0  0.003338  0.035294  0  4.011049  0
C  C52  1  0.95842618  0.47968626  0.96507534  1  -0.041697  0  0.004028  -0.001573  0  3.917336  0
C  C53  1  0.95875033  0.46257953  0.98767366  1  0.009183  0  0.004973  0.040545  0  3.974667  0
C  C54  1  0.07957882  0.48080405  0.02347295  1  -0.065787  0  0.004787  0.039574  0  3.976745  0
C  C55  1  0.19263224  0.51547396  0.03517074  1  -0.011717  0  0.003878  -0.002395  0  3.918268  0
C  C56  1  0.19043538  0.53276216  0.01275092  1  -0.015419  0  0.005248  0.041327  0  3.976144  0
C  C57  1  0.07314686  0.51414180  0.97659887  1  0.021303  0  0.004462  0.040699  0  3.978269  0
C  C58  1  0.06947449  0.52890928  0.95271402  1  -0.035939  0  -0.080909  -0.12272  0  3.969922  0
C  C59  1  0.95428627  0.51136253  0.91855783  1  -0.031622  0  -0.06742  -0.065531  0  3.970559  0
C  C60  1  0.30026981  0.56722407  0.02636769  1  0.04075  0  -0.080886  -0.120777  0  3.968683  0
C  C61  1  0.41289829  0.58472152  0.06077766  1  -0.018987  0  -0.067195  -0.064967  0  3.97213  0
C  C62  1  0.42001509  0.56810133  0.08270434  1  -0.044267  0  -0.011828  -0.073205  0  4.006881  0
C  C63  1  0.31015564  0.53340261  0.07026849  1  -0.040285  0  0.002744  0.035735  0  4.007774  0
C  C64  1  0.31611987  0.51661083  0.09276250  1  -0.023366  0  -0.012126  -0.076036  0  4.008859  0
C  C65  1  0.20486924  0.48296464  0.08090899  1  -0.033091  0  -0.067882  -0.066926  0  3.969874  0
C  C66  1  0.08830872  0.46551415  0.04688879  1  0.015467  0  -0.08081  -0.119833  0  3.967153  0
C  C67  1  0.43901644  0.53424346  0.12882735  1  1.333641  0  0.239801  0.43533  0  4.104594  0
C  C68  1  0.53952509  0.58754598  0.11912005  1  1.35677  0  0.238234  0.433433  0  4.108029  0
C  C69  1  0.64955969  0.58867744  0.17644181  1  0.33344  0  0.073657  0.159469  0  4.047012  0
C  C70  1  0.54888135  0.59875137  0.20762609  1  0.038241  0  -0.074267  -0.128592  0  3.958295  0
C  C71  1  0.64638534  0.61951016  0.24366529  1  -0.0021  0  -0.037043  -0.193886  0  3.956806  0
C  C72  1  0.85377110  0.63061304  0.24826038  1  0.550578  0  0.100271  0.371698  0  4.072154  0
C  C73  1  0.95312489  0.61885467  0.21581336  1  0.001634  0  -0.102388  -0.202178  0  3.960712  0
C  C74  1  0.85358363  0.59838724  0.18054192  1  0.026187  0  -0.073377  -0.101596  0  3.98798  0
C  C75  1  0.52595695  0.62924279  0.27514175  1  1.516512  0  0.239876  0.6783  0  4.122088  0
C  C76  1  0.84378529  0.42868516  0.97451724  1  -0.06116  0  -0.080115  -0.119856  0  3.968284  0
C  C77  1  0.73018799  0.41136197  0.94019379  1  0.086418  0  -0.067405  -0.064991  0  3.969829  0
C  C78  1  0.72745395  0.42753293  0.91784370  1  -0.035833  0  -0.011637  -0.07221  0  4.00661  0
C  C79  1  0.50345389  0.40661759  0.82350408  1  0.383572  0  0.073981  0.159889  0  4.044926  0
C  C80  1  0.60491260  0.39706675  0.79250023  1  -0.043006  0  -0.075031  -0.128881  0  3.96261  0
C  C81  1  0.50789084  0.37708667  0.75638035  1  -0.026373  0  -0.037266  -0.193981  0  3.956199  0
C  C82  1  0.30014016  0.36606736  0.75140050  1  0.605446  0  0.099937  0.371969  0  4.071058  0
C  C83  1  0.20024357  0.37711582  0.78369975  1  0.023738  0  -0.10211  -0.203904  0  3.960439  0
C  C84  1  0.29918575  0.39694765  0.81908919  1  -0.062051  0  -0.074202  -0.101871  0  3.986096  0
C  C85  1  0.62906628  0.36846900  0.72520745  1  1.52468  0  0.239648  0.678313  0  4.120782  0
C  C86  1  0.19977566  0.47319701  0.59187103  1  1.338865  0  0.238443  0.434096  0  4.104828  0
C  C87  1  0.25620762  0.41037265  0.53941507  1  1.334182  0  0.240163  0.435005  0  4.105106  0
C  C88  1  0.36078242  0.42892028  0.52181912  1  -0.051064  0  -0.012471  -0.076599  0  4.01049  0
C  C89  1  0.37913576  0.46815757  0.53819700  1  0.020854  0  0.002902  0.035511  0  4.010196  0
C  C90  1  0.47840681  0.48541452  0.52031822  1  0.014968  0  0.003901  -0.001093  0  3.916314  0
C  C91  1  0.49577182  0.52510799  0.53743672  1  -0.067612  0  0.005717  0.04194  0  3.974828  0
C  C92  1  0.59829914  0.54271803  0.51922782  1  -0.01663  0  0.004835  0.039338  0  3.977791  0
C  C93  1  0.67662132  0.51976861  0.48455609  1  -0.055103  0  0.003666  -0.002091  0  3.919114  0
C  C94  1  0.65761895  0.48007515  0.46729907  1  0.009798  0  0.005296  0.041741  0  3.97745  0
C  C95  1  0.55865666  0.46250991  0.48585968  1  -0.02704  0  0.004731  0.040047  0  3.977978  0
C  C96  1  0.54010170  0.42386623  0.47107130  1  -0.077162  0  -0.0812  -0.122965  0  3.970218  0
C  C97  1  0.44253906  0.40723546  0.48861561  1  -0.017531  0  -0.067459  -0.064701  0  3.970067  0
C  C98  1  0.73396383  0.45926294  0.43293742  1  -0.01027  0  -0.08107  -0.121551  0  3.971147  0
C  C99  1  0.82882423  0.47618515  0.41541660  1  -0.055479  0  -0.067288  -0.063712  0  3.97197  0
C  C100  1  0.85154354  0.51471421  0.43196482  1  0.0288  0  -0.012246  -0.074558  0  4.009054  0
C  C101  1  0.77610523  0.53695347  0.46663267  1  -0.032511  0  0.003016  0.035838  0  4.008477  0
C  C102  1  0.79903851  0.57623334  0.48343123  1  0.048924  0  -0.01209  -0.0762  0  4.009575  0
C  C103  1  0.72148816  0.59801168  0.51708450  1  -0.092561  0  -0.067323  -0.064972  0  3.9708  0
C  C104  1  0.62239523  0.58141544  0.53452279  1  0.048083  0  -0.08119  -0.121358  0  3.969348  0
C  C105  1  0.90463681  0.59466322  0.46581458  1  1.304294  0  0.23921  0.434059  0  4.105879  0
C  C106  1  0.95120314  0.53168548  0.41248411  1  1.364482  0  0.23881  0.434851  0  4.10799  0
C  C107  1  0.06047705  0.58784267  0.41133585  1  0.34547  0  0.074291  0.160788  0  4.044523  0
C  C108  1  0.94956277  0.60888858  0.40120273  1  -0.040916  0  -0.074521  -0.129172  0  3.957915  0
C  C109  1  0.02641312  0.62413894  0.38042137  1  -0.030308  0  -0.037066  -0.194189  0  3.9564  0
C  C110  1  0.22283698  0.61767714  0.36935030  1  0.590696  0  0.100063  0.371284  0  4.070914  0
C  C111  1  0.33397845  0.59701941  0.38114576  1  -0.000918  0  -0.102792  -0.203098  0  3.961439  0
C  C112  1  0.25487678  0.58225677  0.40165288  1  0.015153  0  -0.07341  -0.101464  0  3.986489  0
C  C113  1  0.89638454  0.64593542  0.37073309  1  1.512536  0  0.240098  0.679081  0  4.121778  0
C  C114  1  0.41476837  0.54579994  0.57133875  1  0.007207  0  -0.08056  -0.121468  0  3.968592  0
C  C115  1  0.31845897  0.52876833  0.58864302  1  -0.094847  0  -0.067863  -0.065349  0  3.971192  0
C  C116  1  0.29959423  0.49026237  0.57245017  1  0.056597  0  -0.011296  -0.072507  0  4.00613  0
C  C117  1  0.09657997  0.41681067  0.59336844  1  0.334132  0  0.07391  0.15975  0  4.043514  0
C  C118  1  0.20768201  0.39536872  0.60293163  1  0.003892  0  -0.074906  -0.129857  0  3.960745  0
C  C119  1  0.13075801  0.37920166  0.62291529  1  -0.051706  0  -0.037101  -0.192705  0  3.955002  0
C  C120  1  0.93395018  0.38519329  0.63389423  1  0.603288  0  0.099367  0.370394  0  4.072291  0
C  C121  1  0.82291428  0.40644447  0.62285679  1  -0.000727  0  -0.102199  -0.203934  0  3.960833  0
C  C122  1  0.90196399  0.42203218  0.60303656  1  0.001183  0  -0.073739  -0.100594  0  3.984007  0
C  C123  1  0.26050030  0.35663671  0.63152290  1  1.511457  0  0.239474  0.678621  0  4.120948  0
C  C124  1  0.72743862  0.11865629  0.52677379  1  1.328677  0  0.239534  0.434989  0  4.104739  0
C  C125  1  0.84676909  0.12906254  0.58963843  1  1.33342  0  0.239862  0.434393  0  4.106212  0
C  C126  1  0.93270017  0.09293561  0.57111328  1  0.006759  0  -0.012513  -0.075919  0  4.009636  0
C  C127  1  0.91178881  0.07007037  0.53186859  1  -0.075245  0  0.002861  0.035534  0  4.009543  0
C  C128  1  0.99373433  0.03494574  0.51464186  1  0.101009  0  0.003932  -0.00229  0  3.918325  0
C  C129  1  0.97118764  0.01235866  0.47494831  1  -0.038689  0  0.004989  0.041422  0  3.975212  0
C  C130  1  0.05544677  0.97650099  0.45735933  1  -0.00143  0  0.005143  0.040302  0  3.976193  0
C  C131  1  0.15675549  0.96477487  0.48030758  1  0.010161  0  0.003691  -0.001954  0  3.918338  0
C  C132  1  0.17809049  0.98725419  0.52000426  1  -0.026583  0  0.004905  0.03966  0  3.978109  0
C  C133  1  0.09687543  0.02339388  0.53756073  1  -0.014737  0  0.004854  0.041497  0  3.978619  0
C  C134  1  0.11697481  0.04725282  0.57620551  1  -0.116703  0  -0.080842  -0.123058  0  3.969764  0
C  C135  1  0.03611830  0.08142402  0.59281633  1  0.09245  0  -0.067394  -0.065003  0  3.968434  0
C  C136  1  0.27553103  0.97371511  0.54081164  1  -0.024603  0  -0.080268  -0.119517  0  3.970241  0
C  C137  1  0.35308052  0.93924435  0.52387021  1  0.046905  0  -0.067761  -0.065857  0  3.973211  0
C  C138  1  0.33672207  0.91722957  0.48533804  1  -0.007255  0  -0.012374  -0.07387  0  4.009047  0
C  C139  1  0.23870612  0.92964299  0.46311175  1  -0.025434  0  0.00347  0.036199  0  4.008046  0
C  C140  1  0.22167230  0.90713499  0.42383428  1  -0.019444  0  -0.012367  -0.075215  0  4.009903  0
C  C141  1  0.12225049  0.91902104  0.40206760  1  -0.022313  0  -0.067643  -0.066  0  3.972359  0
C  C142  1  0.04022725  0.95308004  0.41865591  1  -0.031558  0  -0.080814  -0.120646  0  3.968186  0
C  C143  1  0.30818346  0.87104620  0.40537732  1  1.339299  0  0.23937  0.433595  0  4.107443  0
C  C144  1  0.41943150  0.88079031  0.46835384  1  1.344112  0  0.239015  0.433789  0  4.108294  0
C  C145  1  0.47194042  0.82347876  0.41215518  1  0.347784  0  0.07404  0.159845  0  4.045838  0
C  C146  1  0.34033848  0.79226827  0.39103581  1  0.000449  0  -0.074623  -0.129032  0  3.958797  0
C  C147  1  0.40231897  0.75628372  0.37577975  1  -0.027216  0  -0.036636  -0.193268  0  3.95538  0
C  C148  1  0.60520509  0.75172180  0.38229647  1  0.64026  0  0.10012  0.371194  0  4.071029  0
C  C149  1  0.73673064  0.78420408  0.40296514  1  -0.010216  0  -0.102684  -0.203606  0  3.961347  0
C  C150  1  0.67198586  0.81943477  0.41775108  1  -0.071531  0  -0.073271  -0.101209  0  3.985285  0
C  C151  1  0.25065193  0.72477939  0.35397580  1  1.516161  0  0.239768  0.678635  0  4.121208  0
C  C152  1  0.86975987  0.02557168  0.45422260  1  -0.007636  0  -0.080221  -0.120557  0  3.968559  0
C  C153  1  0.79073460  0.05990767  0.47122197  1  -0.004081  0  -0.067471  -0.065339  0  3.971603  0
C  C154  1  0.81027996  0.08220367  0.50973215  1  -0.027196  0  -0.012238  -0.073927  0  4.008214  0
C  C155  1  0.68052876  0.17648125  0.58310744  1  0.361869  0  0.073673  0.159763  0  4.043877  0
C  C156  1  0.81289319  0.20749598  0.60453332  1  -0.024521  0  -0.075022  -0.128947  0  3.96113  0
C  C157  1  0.75185113  0.24360375  0.62070701  1  -0.017229  0  -0.037346  -0.194436  0  3.958291  0
C  C158  1  0.54901493  0.24855870  0.61469898  1  0.602736  0  0.099527  0.371031  0  4.071671  0
C  C159  1  0.41693060  0.21624493  0.59342004  1  0.004763  0  -0.10245  -0.204523  0  3.960121  0
C  C160  1  0.48060661  0.18086985  0.57786205  1  -0.031109  0  -0.074006  -0.101671  0  3.984524  0
C  C161  1  0.90404165  0.27477639  0.64331799  1  1.520355  0  0.239047  0.678114  0  4.122164  0
N  N162  1  0.61058293  0.42591706  0.85988857  1  -1.176536  0  -0.229458  -0.215829  0  3.58701  0
N  N163  1  0.54169552  0.56925184  0.14014185  1  -1.207677  0  -0.229776  -0.215816  0  3.589267  0
N  N164  1  0.18446345  0.43392182  0.57408072  1  -1.187885  0  -0.22986  -0.215694  0  3.584705  0
N  N165  1  0.97212083  0.57098126  0.43079313  1  -1.208853  0  -0.230153  -0.216315  0  3.588879  0
N  N166  1  0.75138771  0.14012900  0.56605001  1  -1.186825  0  -0.229861  -0.214897  0  3.586824  0
N  N167  1  0.40019536  0.85975474  0.42904307  1  -1.187903  0  -0.230265  -0.215527  0  3.589685  0
O  O168  1  0.34664004  0.61588724  0.26977353  1  -1.241458  0  -0.354507  -0.638904  0  2.145952  0
O  O169  1  0.60613637  0.65235175  0.30843347  1  -1.305186  0  -0.401358  -0.768389  0  2.417862  0
O  O170  1  0.95678420  0.65158386  0.28158446  1  -1.309862  0  -0.448337  -0.779643  0  2.314283  0
O  O171  1  0.80841717  0.38194809  0.73109424  1  -1.239241  0  -0.354218  -0.638305  0  2.148981  0
O  O172  1  0.54957882  0.34630303  0.69161659  1  -1.306819  0  -0.402099  -0.768526  0  2.415646  0
O  O173  1  0.19748841  0.34594207  0.71791963  1  -1.30997  0  -0.446293  -0.777809  0  2.309605  0
O  O174  1  0.51250830  0.37780727  0.86975825  1  -1.102211  0  -0.281843  -0.441406  0  2.071471  0
O  O175  1  0.70731859  0.47493759  0.85123895  1  -1.103828  0  -0.280308  -0.436582  0  2.070207  0
O  O176  1  0.45214377  0.51967883  0.14832504  1  -1.103489  0  -0.280666  -0.436638  0  2.065116  0
O  O177  1  0.63253717  0.61813484  0.13100596  1  -1.104715  0  -0.281492  -0.44087  0  2.071494  0
O  O178  1  0.73046734  0.65391730  0.38409305  1  -1.240113  0  -0.35443  -0.638617  0  2.146572  0
O  O179  1  0.95368286  0.65617445  0.34766080  1  -1.293009  0  -0.401398  -0.769059  0  2.416953  0
O  O180  1  0.30503876  0.63004451  0.34839418  1  -1.30926  0  -0.447933  -0.778729  0  2.313286  0
O  O181  1  0.42638515  0.34905936  0.61804663  1  -1.243017  0  -0.354272  -0.638501  0  2.148679  0
O  O182  1  0.20317944  0.34517620  0.65366959  1  -1.286887  0  -0.401955  -0.76962  0  2.418053  0
O  O183  1  0.85141698  0.37178760  0.65399079  1  -1.312309  0  -0.446102  -0.777092  0  2.310044  0
O  O184  1  0.13336783  0.49186011  0.62207541  1  -1.111187  0  -0.28165  -0.44184  0  2.071802  0
O  O185  1  0.23242174  0.37630880  0.52505916  1  -1.100585  0  -0.280008  -0.43597  0  2.070987  0
O  O186  1  0.93271990  0.62871289  0.48040251  1  -1.072194  0  -0.280665  -0.436198  0  2.065325  0
O  O187  1  0.01307975  0.51297781  0.38183949  1  -1.108709  0  -0.281718  -0.441504  0  2.071216  0
O  O188  1  0.07678041  0.73013474  0.34594032  1  -1.239793  0  -0.354819  -0.639168  0  2.146392  0
O  O189  1  0.29770670  0.69150056  0.34380161  1  -1.291895  0  -0.401546  -0.768526  0  2.417772  0
O  O190  1  0.67517668  0.71842766  0.36997025  1  -1.307206  0  -0.447691  -0.778854  0  2.312555  0
O  O191  1  0.07753386  0.26889823  0.65092007  1  -1.243292  0  -0.353829  -0.637961  0  2.148935  0
O  O192  1  0.85787170  0.30835572  0.65481286  1  -1.294721  0  -0.401546  -0.768549  0  2.418022  0
O  O193  1  0.47968615  0.28203365  0.62811946  1  -1.307823  0  -0.446119  -0.77702  0  2.308164  0
O  O194  1  0.64231999  0.13018599  0.50809692  1  -1.101246  0  -0.282083  -0.441934  0  2.070464  0
O  O195  1  0.85702976  0.14878470  0.62370778  1  -1.105559  0  -0.279585  -0.435765  0  2.069855  0
O  O196  1  0.30098818  0.85152173  0.37131599  1  -1.120257  0  -0.280326  -0.435953  0  2.066942  0
O  O197  1  0.50064919  0.86888890  0.48704623  1  -1.10196  0  -0.281689  -0.440926  0  2.071528  0
