# generated using pymatgen
data_Cd3H32C38S6(N5O7)2
_symmetry_space_group_name_H-M   'P 1'
_cell_length_a   9.10298941
_cell_length_b   11.08258671
_cell_length_c   13.11957222
_cell_angle_alpha   108.13203382
_cell_angle_beta   107.50883149
_cell_angle_gamma   95.21924441
_symmetry_Int_Tables_number   1
_chemical_formula_structural   Cd3H32C38S6(N5O7)2
_chemical_formula_sum   'Cd3 H32 C38 S6 N10 O14'
_cell_volume   1174.41814835
_cell_formula_units_Z   1
loop_
 _symmetry_equiv_pos_site_id
 _symmetry_equiv_pos_as_xyz
  1  'x, y, z'
loop_
 _atom_site_type_symbol
 _atom_site_label
 _atom_site_symmetry_multiplicity
 _atom_site_fract_x
 _atom_site_fract_y
 _atom_site_fract_z
 _atom_site_occupancy
 _atom_site_hle17_bader_spin_density
 _atom_site_hle17_ddec_charge
 _atom_site_hle17_ddec_spin_density
 _atom_site_hle17_ddec_sum_bond_order
 _atom_site_hle17_magmom
 _atom_site_hse06_10hf_bader_spin_density
 _atom_site_hse06_10hf_ddec_charge
 _atom_site_hse06_10hf_ddec_spin_density
 _atom_site_hse06_10hf_ddec_sum_bond_order
 _atom_site_hse06_10hf_magmom
 _atom_site_hse06_bader_spin_density
 _atom_site_hse06_ddec_charge
 _atom_site_hse06_ddec_spin_density
 _atom_site_hse06_ddec_sum_bond_order
 _atom_site_hse06_magmom
 _atom_site_pbe_bader_spin_density
 _atom_site_pbe_cm5_charge
 _atom_site_pbe_ddec_charge
 _atom_site_pbe_ddec_spin_density
 _atom_site_pbe_ddec_sum_bond_order
 _atom_site_pbe_magmom
Cd  Cd0  1  0.99999981  0.49999968  0.49999887  1  0  1.323887  0  1.667683  0  0  1.156715  0  2.136448  0  0  1.212663  0  2.07205  0  0  0.793576  1.116013  0  2.181284  0
Cd  Cd1  1  0.84184486  0.77897656  0.63356238  1  0  1.125613  0  1.700262  0  0  0.931893  0  2.151488  0  0  0.989992  0  2.097489  0  0  0.770378  0.890635  0  2.188409  0
Cd  Cd2  1  0.15815482  0.22102472  0.36643684  1  0  1.125565  0  1.700267  0  0  0.931836  0  2.151482  0  0  0.989937  0  2.097484  0  0  0.770369  0.890575  0  2.188402  0
H  H3  1  0.55620097  0.29273496  0.54618033  1  0  0.120542  0  0.928173  0  0  0.134483  0  0.987333  0  0  0.136563  0  0.986131  0  0  0.103608  0.133049  0  0.988321  0
H  H4  1  0.44379918  0.70726342  0.45381899  1  0  0.120547  0  0.928185  0  0  0.134489  0  0.98733  0  0  0.136555  0  0.986139  0  0  0.103619  0.133058  0  0.988316  0
H  H5  1  0.49841041  0.43045227  0.62878365  1  0  0.142648  0  0.946627  0  0  0.150367  0  1.011733  0  0  0.15306  0  1.010518  0  0  0.109435  0.148483  0  1.012636  0
H  H6  1  0.50158977  0.56954612  0.37121263  1  0  0.142699  0  0.946581  0  0  0.150361  0  1.011732  0  0  0.153052  0  1.010518  0  0  0.109443  0.14848  0  1.012634  0
H  H7  1  0.80489637  0.79870349  0.26341952  1  0  0.130396  0  0.946881  0  0  0.140665  0  1.010456  0  0  0.143929  0  1.00788  0  0  0.103745  0.138395  0  1.012304  0
H  H8  1  0.19510239  0.20129391  0.73658153  1  0  0.130374  0  0.946961  0  0  0.140655  0  1.01054  0  0  0.14392  0  1.007964  0  0  0.103755  0.138385  0  1.01239  0
H  H9  1  0.62562703  0.68794675  0.22345133  1  0  0.129695  0  0.94867  0  0  0.138564  0  1.017659  0  0  0.140291  0  1.017932  0  0  0.107682  0.137369  0  1.017554  0
H  H10  1  0.37437288  0.31205550  0.77654743  1  0  0.129727  0  0.948577  0  0  0.138586  0  1.017593  0  0  0.140312  0  1.017863  0  0  0.1077  0.137391  0  1.017485  0
H  H11  1  0.43466420  0.72468719  0.70860823  1  0  0.144811  0  0.908091  0  0  0.158094  0  0.961785  0  0  0.160566  0  0.961228  0  0  0.111185  0.156402  0  0.962346  0
H  H12  1  0.56533203  0.27530922  0.29139126  1  0  0.144784  0  0.908123  0  0  0.158073  0  0.961837  0  0  0.160539  0  0.961277  0  0  0.111171  0.156381  0  0.962396  0
H  H13  1  0.30524596  0.59329045  0.70893259  1  0  0.137814  0  0.978669  0  0  0.141566  0  1.052071  0  0  0.144846  0  1.050107  0  0  0.102907  0.139254  0  1.053575  0
H  H14  1  0.69475047  0.40671177  0.29106771  1  0  0.137812  0  0.97868  0  0  0.14158  0  1.052058  0  0  0.14486  0  1.050086  0  0  0.102918  0.139269  0  1.053559  0
H  H15  1  0.04274871  0.66777130  0.82675449  1  0  0.070004  0  0.961988  0  0  0.074857  0  1.035357  0  0  0.076942  0  1.033887  0  0  0.107672  0.073252  0  1.036295  0
H  H16  1  0.95725004  0.33223094  0.17324554  1  0  0.069964  0  0.962024  0  0  0.074822  0  1.035384  0  0  0.076907  0  1.033914  0  0  0.107661  0.073219  0  1.03632  0
H  H17  1  0.09479679  0.68898567  0.02956728  1  0  0.10979  0  0.972749  0  0  0.109449  0  1.049653  0  0  0.113919  0  1.046895  0  0  0.099445  0.106007  0  1.052296  0
H  H18  1  0.90520247  0.31100884  0.97043007  1  0  0.10984  0  0.972653  0  0  0.109499  0  1.049551  0  0  0.113968  0  1.046793  0  0  0.099449  0.106057  0  1.052192  0
H  H19  1  0.96613775  0.84651379  0.14400938  1  0  0.106867  0  0.942848  0  0  0.119897  0  0.998476  0  0  0.122466  0  0.996853  0  0  0.107802  0.117866  0  0.999872  0
H  H20  1  0.03386197  0.15347782  0.85598959  1  0  0.10689  0  0.942793  0  0  0.119882  0  0.998475  0  0  0.122448  0  0.996855  0  0  0.107793  0.117854  0  0.99987  0
H  H21  1  0.78446397  0.96115503  0.04718549  1  0  0.115356  0  0.960993  0  0  0.125458  0  1.022565  0  0  0.128951  0  1.020938  0  0  0.106969  0.122872  0  1.024093  0
H  H22  1  0.21553411  0.03883946  0.95281541  1  0  0.115368  0  0.961112  0  0  0.125459  0  1.022688  0  0  0.128957  0  1.021046  0  0  0.10697  0.122875  0  1.024213  0
H  H23  1  0.64266172  0.05020308  0.96197962  1  0  0.097898  0  0.993042  0  0  0.103271  0  1.0651  0  0  0.106832  0  1.063121  0  0  0.099698  0.100622  0  1.066867  0
H  H24  1  0.35734161  0.94980405  0.03802343  1  0  0.09779  0  0.993127  0  0  0.103195  0  1.065121  0  0  0.106755  0  1.063143  0  0  0.099649  0.100543  0  1.066894  0
H  H25  1  0.45830419  0.14958499  0.84870066  1  0  0.096856  0  0.955515  0  0  0.103154  0  1.024669  0  0  0.106222  0  1.021602  0  0  0.10357  0.100733  0  1.02727  0
H  H26  1  0.54170008  0.85042118  0.15130082  1  0  0.096865  0  0.955551  0  0  0.103179  0  1.024656  0  0  0.106242  0  1.0216  0  0  0.103583  0.100759  0  1.027255  0
H  H27  1  0.41884141  0.09254905  0.63898372  1  0  0.106995  0  0.970399  0  0  0.112999  0  1.038124  0  0  0.116609  0  1.036503  0  0  0.101538  0.110274  0  1.039572  0
H  H28  1  0.58116473  0.90745036  0.36101867  1  0  0.107015  0  0.970297  0  0  0.113022  0  1.038023  0  0  0.116654  0  1.036379  0  0  0.101557  0.110295  0  1.039477  0
H  H29  1  0.57733940  0.93960552  0.55676891  1  0  0.071752  0  0.943992  0  0  0.082633  0  1.006888  0  0  0.084648  0  1.005171  0  0  0.114161  0.08103  0  1.008444  0
H  H30  1  0.42266143  0.06039094  0.44323309  1  0  0.071802  0  0.943947  0  0  0.082673  0  1.00685  0  0  0.0847  0  1.005122  0  0  0.114173  0.081069  0  1.008406  0
H  H31  1  0.01415100  0.97939839  0.60188993  1  0  0.409517  0  0.841212  0  0  0.392922  0  0.8964  0  0  0.401598  0  0.886526  0  0  0.306959  0.386709  0  0.903503  0
H  H32  1  0.98584689  0.02059998  0.39810356  1  0  0.409542  0  0.841154  0  0  0.392928  0  0.896379  0  0  0.401603  0  0.886506  0  0  0.306908  0.386715  0  0.903481  0
H  H33  1  0.11189320  0.96015374  0.71679632  1  0  0.409164  0  0.906472  0  0  0.376152  0  0.973954  0  0  0.387953  0  0.957055  0  0  0.279477  0.367889  0  0.985741  0
H  H34  1  0.88810675  0.03984852  0.28319864  1  0  0.409076  0  0.906597  0  0  0.376046  0  0.974109  0  0  0.387847  0  0.95721  0  0  0.279386  0.36778  0  0.985901  0
C  C35  1  0.67012411  0.47550918  0.85071158  1  0  0.385956  0  3.825569  0  0  0.365012  0  4.121921  0  0  0.386864  0  4.129643  0  0  0.245871  0.350125  0  4.116464  0
C  C36  1  0.32987487  0.52449404  0.14928724  1  0  0.386008  0  3.82555  0  0  0.365104  0  4.121829  0  0  0.386957  0  4.129549  0  0  0.245877  0.350217  0  4.116367  0
C  C37  1  0.71928286  0.56858378  0.04048025  1  0  0.380024  0  3.830868  0  0  0.358426  0  4.128387  0  0  0.379691  0  4.137346  0  0  0.241868  0.344118  0  4.121944  0
C  C38  1  0.28071312  0.43141649  0.95951944  1  0  0.380033  0  3.831031  0  0  0.358428  0  4.12856  0  0  0.379692  0  4.137519  0  0  0.241896  0.344121  0  4.122111  0
C  C39  1  0.55268776  0.63827392  0.91543966  1  0  0.381759  0  3.845397  0  0  0.359848  0  4.141371  0  0  0.381606  0  4.149567  0  0  0.245707  0.345123  0  4.135615  0
C  C40  1  0.44731099  0.36172832  0.08456037  1  0  0.381665  0  3.845602  0  0  0.359774  0  4.141537  0  0  0.38153  0  4.149735  0  0  0.245671  0.345049  0  4.13578  0
C  C41  1  0.59779272  0.38810363  0.61495458  1  0  -0.288954  0  3.593449  0  0  -0.323502  0  3.846559  0  0  -0.327453  0  3.850573  0  0  -0.150518  -0.320887  0  3.843653  0
C  C42  1  0.40220998  0.61189575  0.38504402  1  0  -0.288984  0  3.593455  0  0  -0.323501  0  3.846562  0  0  -0.327432  0  3.850567  0  0  -0.150555  -0.320895  0  3.843664  0
C  C43  1  0.70605824  0.47579114  0.58608857  1  0  0.733667  0  3.846716  0  0  0.687091  0  4.142774  0  0  0.722302  0  4.135046  0  0  0.208389  0.663109  0  4.147125  0
C  C44  1  0.29394562  0.52420825  0.41390951  1  0  0.733545  0  3.846832  0  0  0.68703  0  4.142772  0  0  0.722241  0  4.135044  0  0  0.208384  0.663048  0  4.147121  0
C  C45  1  0.75419437  0.70446544  0.26239901  1  0  -0.306966  0  3.618256  0  0  -0.339431  0  3.870944  0  0  -0.344191  0  3.875691  0  0  -0.152298  -0.336224  0  3.867614  0
C  C46  1  0.24580367  0.29553389  0.73760391  1  0  -0.306897  0  3.618214  0  0  -0.339374  0  3.870964  0  0  -0.344134  0  3.875714  0  0  -0.152283  -0.336167  0  3.867634  0
C  C47  1  0.79485842  0.70422661  0.38351396  1  0  0.733328  0  3.847979  0  0  0.685658  0  4.141636  0  0  0.720479  0  4.133585  0  0  0.209804  0.661879  0  4.146468  0
C  C48  1  0.20513780  0.29576980  0.61648553  1  0  0.733278  0  3.847893  0  0  0.68557  0  4.141628  0  0  0.720391  0  4.133579  0  0  0.209775  0.661791  0  4.146459  0
C  C49  1  0.34706924  0.69858720  0.74445248  1  0  -0.309221  0  3.598885  0  0  -0.341786  0  3.851044  0  0  -0.346615  0  3.855106  0  0  -0.151999  -0.338758  0  3.848396  0
C  C50  1  0.65292788  0.30141309  0.25554822  1  0  -0.309214  0  3.598884  0  0  -0.341832  0  3.851102  0  0  -0.346635  0  3.855127  0  0  -0.152018  -0.338803  0  3.84845  0
C  C51  1  0.21342573  0.77075705  0.72161870  1  0  0.728129  0  3.824392  0  0  0.677327  0  4.123365  0  0  0.712321  0  4.114796  0  0  0.214851  0.653532  0  4.128378  0
C  C52  1  0.78657417  0.22924521  0.27838159  1  0  0.728014  0  3.824694  0  0  0.677228  0  4.123637  0  0  0.712218  0  4.115068  0  0  0.214791  0.653433  0  4.128649  0
C  C53  1  0.98824590  0.73264131  0.87861560  1  0  0.137442  0  3.709346  0  0  0.105153  0  3.965434  0  0  0.111454  0  3.985282  0  0  0.044994  0.101425  0  3.95166  0
C  C54  1  0.01175239  0.26735899  0.12138459  1  0  0.137551  0  3.709206  0  0  0.10527  0  3.965289  0  0  0.111572  0  3.985135  0  0  0.045042  0.10154  0  3.951511  0
C  C55  1  0.01717142  0.74530240  0.99228751  1  0  -0.105761  0  3.697785  0  0  -0.115653  0  3.948696  0  0  -0.122797  0  3.970367  0  0  -0.082084  -0.111865  0  3.935038  0
C  C56  1  0.98282806  0.25469307  0.00771090  1  0  -0.105979  0  3.697733  0  0  -0.115835  0  3.948622  0  0  -0.12298  0  3.970292  0  0  -0.082154  -0.112059  0  3.934997  0
C  C57  1  0.94450077  0.83054550  0.05395867  1  0  0.004461  0  3.688826  0  0  -0.015042  0  3.938004  0  0  -0.01258  0  3.957477  0  0  -0.068798  -0.016356  0  3.925356  0
C  C58  1  0.05549848  0.16944900  0.94603944  1  0  0.004537  0  3.688637  0  0  -0.014978  0  3.937847  0  0  -0.012513  0  3.957317  0  0  -0.068788  -0.016297  0  3.925199  0
C  C59  1  0.84288273  0.89611785  0.99945823  1  0  -0.135554  0  3.682343  0  0  -0.158033  0  3.936565  0  0  -0.164447  0  3.957463  0  0  -0.080154  -0.154387  0  3.923195  0
C  C60  1  0.15711950  0.10387958  0.00054281  1  0  -0.135575  0  3.682423  0  0  -0.158021  0  3.936605  0  0  -0.164433  0  3.957503  0  0  -0.080128  -0.154374  0  3.923234  0
C  C61  1  0.81782432  0.87678229  0.88417411  1  0  0.169815  0  3.760509  0  0  0.166615  0  4.001273  0  0  0.17246  0  4.022682  0  0  0.117683  0.162795  0  3.986752  0
C  C62  1  0.18217927  0.12322097  0.11582798  1  0  0.169813  0  3.76049  0  0  0.166673  0  4.001245  0  0  0.172518  0  4.022655  0  0  0.117687  0.162856  0  3.98672  0
C  C63  1  0.70729776  0.94056280  0.81974910  1  0  0.178888  0  3.750928  0  0  0.175352  0  3.989457  0  0  0.182317  0  4.010087  0  0  0.121238  0.170679  0  3.975518  0
C  C64  1  0.29270283  0.05943752  0.18025311  1  0  0.178907  0  3.750681  0  0  0.175211  0  3.989423  0  0  0.182176  0  4.010055  0  0  0.121191  0.170539  0  3.975482  0
C  C65  1  0.62578145  0.02681288  0.87190692  1  0  -0.142354  0  3.718723  0  0  -0.16403  0  3.971333  0  0  -0.170998  0  3.992281  0  0  -0.079604  -0.159326  0  3.95735  0
C  C66  1  0.37422191  0.97318941  0.12809562  1  0  -0.14224  0  3.718688  0  0  -0.163885  0  3.971353  0  0  -0.170852  0  3.992306  0  0  -0.079557  -0.159184  0  3.957372  0
C  C67  1  0.52174514  0.08241735  0.80796225  1  0  0.02418  0  3.696026  0  0  0.003733  0  3.94949  0  0  0.008035  0  3.966498  0  0  -0.062931  0.001143  0  3.938548  0
C  C68  1  0.47825591  0.91758492  0.19203904  1  0  0.024147  0  3.696155  0  0  0.003721  0  3.949598  0  0  0.008024  0  3.966607  0  0  -0.062933  0.001132  0  3.938652  0
C  C69  1  0.50037069  0.05159318  0.69221810  1  0  -0.128366  0  3.742324  0  0  -0.142073  0  3.995611  0  0  -0.149238  0  4.017609  0  0  -0.086  -0.137579  0  3.981391  0
C  C70  1  0.49963635  0.94841012  0.30778550  1  0  -0.128347  0  3.74231  0  0  -0.142074  0  3.995596  0  0  -0.149257  0  4.017584  0  0  -0.086022  -0.137579  0  3.981371  0
C  C71  1  0.58627580  0.96611930  0.64618534  1  0  0.12489  0  3.733872  0  0  0.095297  0  3.983225  0  0  0.101547  0  4.003195  0  0  0.043294  0.09076  0  3.970139  0
C  C72  1  0.41372687  0.03388008  0.35381782  1  0  0.124745  0  3.733934  0  0  0.095164  0  3.983282  0  0  0.101403  0  4.003256  0  0  0.043219  0.090627  0  3.970198  0
S  S73  1  0.70766285  0.35848059  0.74245339  1  0  0.040427  0  2.33369  0  0  0.039063  0  2.658476  0  0  0.033543  0  2.656569  0  0  0.057553  0.043987  0  2.659625  0
S  S74  1  0.29233705  0.64152167  0.25754690  1  0  0.04042  0  2.333663  0  0  0.039037  0  2.658407  0  0  0.033516  0  2.656491  0  0  0.057554  0.043962  0  2.659559  0
S  S75  1  0.82332459  0.57502622  0.17777500  1  0  0.063121  0  2.393992  0  0  0.0573  0  2.736565  0  0  0.052656  0  2.734346  0  0  0.063636  0.060851  0  2.737733  0
S  S76  1  0.17667463  0.42497313  0.82222513  1  0  0.063111  0  2.394026  0  0  0.057307  0  2.73661  0  0  0.052665  0  2.734391  0  0  0.063627  0.060857  0  2.737778  0
S  S77  1  0.43464041  0.75032989  0.89863662  1  0  0.045004  0  2.456359  0  0  0.041915  0  2.811187  0  0  0.036232  0  2.810072  0  0  0.065926  0.04665  0  2.812301  0
S  S78  1  0.56535994  0.24967430  0.10136427  1  0  0.045078  0  2.45645  0  0  0.042001  0  2.811287  0  0  0.036311  0  2.810164  0  0  0.065932  0.046737  0  2.8124  0
N  N79  1  0.74706912  0.47766485  0.95635625  1  0  -0.471183  0  3.005822  0  0  -0.436676  0  3.280112  0  0  -0.454422  0  3.28658  0  0  -0.329377  -0.424619  0  3.276172  0
N  N80  1  0.25292709  0.52233639  0.04364298  1  0  -0.471179  0  3.00591  0  0  -0.436683  0  3.280186  0  0  -0.454428  0  3.286654  0  0  -0.329396  -0.424625  0  3.276245  0
N  N81  1  0.62270641  0.65122627  0.02565531  1  0  -0.480102  0  3.031745  0  0  -0.443169  0  3.306446  0  0  -0.462573  0  3.316399  0  0  -0.33361  -0.429838  0  3.299613  0
N  N82  1  0.37729255  0.34877694  0.97434655  1  0  -0.480106  0  3.031965  0  0  -0.443168  0  3.306628  0  0  -0.462585  0  3.316605  0  0  -0.33362  -0.429838  0  3.299796  0
N  N83  1  0.57107238  0.55308592  0.82452057  1  0  -0.452665  0  3.024089  0  0  -0.4151  0  3.292946  0  0  -0.433725  0  3.302825  0  0  -0.326074  -0.402713  0  3.286266  0
N  N84  1  0.42892544  0.44691728  0.17547952  1  0  -0.452698  0  3.024057  0  0  -0.415138  0  3.292876  0  0  -0.433763  0  3.302753  0  0  -0.326048  -0.40276  0  3.286219  0
N  N85  1  0.89326272  0.79761581  0.82665219  1  0  -0.357887  0  3.24189  0  0  -0.288106  0  3.500319  0  0  -0.307641  0  3.520121  0  0  -0.324812  -0.274749  0  3.486558  0
N  N86  1  0.10673948  0.20238647  0.17335011  1  0  -0.35784  0  3.241757  0  0  -0.288076  0  3.500187  0  0  -0.30761  0  3.519989  0  0  -0.324794  -0.274717  0  3.486424  0
N  N87  1  0.68607110  0.91183187  0.70773104  1  0  -0.356489  0  3.2451  0  0  -0.284473  0  3.504125  0  0  -0.304206  0  3.522425  0  0  -0.327531  -0.271042  0  3.491798  0
N  N88  1  0.31393019  0.08816652  0.29227157  1  0  -0.356426  0  3.244913  0  0  -0.284355  0  3.503968  0  0  -0.304089  0  3.522273  0  0  -0.327438  -0.270925  0  3.491639  0
O  O89  1  0.81410993  0.42553703  0.55660538  1  0  -0.680239  0  2.002807  0  0  -0.617335  0  2.257105  0  0  -0.647769  0  2.244633  0  0  -0.34466  -0.595865  0  2.264899  0
O  O90  1  0.18589300  0.57446332  0.44339276  1  0  -0.6802  0  2.002794  0  0  -0.617319  0  2.257053  0  0  -0.647753  0  2.244585  0  0  -0.344648  -0.595844  0  2.264835  0
O  O91  1  0.67976869  0.58819512  0.59558196  1  0  -0.639875  0  2.001009  0  0  -0.575045  0  2.256626  0  0  -0.604604  0  2.245399  0  0  -0.329222  -0.554252  0  2.263614  0
O  O92  1  0.32023401  0.41180426  0.40441663  1  0  -0.639802  0  2.001067  0  0  -0.574991  0  2.256649  0  0  -0.604551  0  2.245423  0  0  -0.329226  -0.554197  0  2.263634  0
O  O93  1  0.83056032  0.60374972  0.40180232  1  0  -0.671651  0  2.072498  0  0  -0.603448  0  2.332672  0  0  -0.631027  0  2.31804  0  0  -0.3253  -0.584105  0  2.342242  0
O  O94  1  0.16943244  0.39624665  0.59819719  1  0  -0.671631  0  2.072473  0  0  -0.6034  0  2.332665  0  0  -0.630979  0  2.318034  0  0  -0.325274  -0.584057  0  2.342235  0
O  O95  1  0.78435150  0.80640509  0.45840510  1  0  -0.66386  0  1.938449  0  0  -0.597797  0  2.181325  0  0  -0.627254  0  2.169007  0  0  -0.337175  -0.577063  0  2.189095  0
O  O96  1  0.21564747  0.19359328  0.54159777  1  0  -0.66385  0  1.938432  0  0  -0.597773  0  2.181324  0  0  -0.627227  0  2.169001  0  0  -0.337184  -0.577041  0  2.189093  0
O  O97  1  0.07904595  0.70454516  0.64734132  1  0  -0.70225  0  2.103317  0  0  -0.619108  0  2.378071  0  0  -0.652199  0  2.361955  0  0  -0.331342  -0.595577  0  2.388067  0
O  O98  1  0.92095073  0.29545803  0.35265624  1  0  -0.702189  0  2.10359  0  0  -0.619026  0  2.378305  0  0  -0.652117  0  2.362189  0  0  -0.331314  -0.595495  0  2.388299  0
O  O99  1  0.24004774  0.89043472  0.77757145  1  0  -0.611872  0  1.965164  0  0  -0.552654  0  2.18162  0  0  -0.578164  0  2.173799  0  0  -0.307078  -0.534856  0  2.186517  0
O  O100  1  0.75995403  0.10956562  0.22242796  1  0  -0.611807  0  1.965202  0  0  -0.552602  0  2.181683  0  0  -0.578113  0  2.173868  0  0  -0.307027  -0.534801  0  2.186579  0
O  O101  1  0.01737551  0.99310590  0.67959472  1  0  -0.813516  0  1.82319  0  0  -0.760152  0  1.999032  0  0  -0.781366  0  1.971067  0  0  -0.583255  -0.744992  0  2.01835  0
O  O102  1  0.98262168  0.00689440  0.32039914  1  0  -0.813481  0  1.823173  0  0  -0.760088  0  1.999036  0  0  -0.781302  0  1.971075  0  0  -0.583141  -0.744927  0  2.018354  0
