# generated using pymatgen
data_CuH5C6NCl
_symmetry_space_group_name_H-M   'P 1'
_cell_length_a   3.68195900
_cell_length_b   10.57488388
_cell_length_c   14.99201968
_cell_angle_alpha   89.99992812
_cell_angle_beta   90.00024218
_cell_angle_gamma   94.63733185
_symmetry_Int_Tables_number   1
_chemical_formula_structural   CuH5C6NCl
_chemical_formula_sum   'Cu4 H20 C24 N4 Cl4'
_cell_volume   581.82270614
_cell_formula_units_Z   4
loop_
 _symmetry_equiv_pos_site_id
 _symmetry_equiv_pos_as_xyz
  1  'x, y, z'
loop_
 _atom_site_type_symbol
 _atom_site_label
 _atom_site_symmetry_multiplicity
 _atom_site_fract_x
 _atom_site_fract_y
 _atom_site_fract_z
 _atom_site_occupancy
 _atom_site_hle17_bader_spin_density
 _atom_site_hle17_ddec_charge
 _atom_site_hle17_ddec_spin_density
 _atom_site_hle17_ddec_sum_bond_order
 _atom_site_hle17_magmom
 _atom_site_hse06_10hf_bader_spin_density
 _atom_site_hse06_10hf_ddec_charge
 _atom_site_hse06_10hf_ddec_spin_density
 _atom_site_hse06_10hf_ddec_sum_bond_order
 _atom_site_hse06_10hf_magmom
 _atom_site_hse06_bader_spin_density
 _atom_site_hse06_ddec_charge
 _atom_site_hse06_ddec_spin_density
 _atom_site_hse06_ddec_sum_bond_order
 _atom_site_hse06_magmom
 _atom_site_pbe_bader_spin_density
 _atom_site_pbe_cm5_charge
 _atom_site_pbe_ddec_charge
 _atom_site_pbe_ddec_spin_density
 _atom_site_pbe_ddec_sum_bond_order
 _atom_site_pbe_magmom
Cu  Cu0  1  0.76415690  0.06220444  0.43773194  1  0  0.400124  0  1.959986  0  0  0.305472  0  2.45634  0  0  0.310036  0  2.40284  0  0  0.348471  0.305067  0  2.490654  0
Cu  Cu1  1  0.23584516  0.43779859  0.93773083  1  0  0.40007  0  1.960034  0  0  0.305442  0  2.456371  0  0  0.309998  0  2.40288  0  0  0.348474  0.305038  0  2.490702  0
Cu  Cu2  1  0.23583226  0.93779528  0.56226952  1  0  0.400107  0  1.959973  0  0  0.305469  0  2.456344  0  0  0.310041  0  2.402853  0  0  0.34851  0.305069  0  2.490669  0
Cu  Cu3  1  0.76416648  0.56220386  0.06226663  1  0  0.400113  0  1.9599  0  0  0.305473  0  2.45625  0  0  0.310091  0  2.402773  0  0  0.34849  0.305073  0  2.490594  0
H  H4  1  0.76468975  0.87273094  0.00922761  1  0  0.095057  0  0.980582  0  0  0.104848  0  1.045895  0  0  0.107925  0  1.044884  0  0  0.090006  0.102623  0  1.046535  0
H  H5  1  0.23530272  0.62726829  0.50922544  1  0  0.095035  0  0.980591  0  0  0.10481  0  1.045928  0  0  0.107895  0  1.044907  0  0  0.089995  0.102585  0  1.046564  0
H  H6  1  0.23530791  0.12726018  0.99077452  1  0  0.09514  0  0.980639  0  0  0.104873  0  1.046002  0  0  0.10794  0  1.045007  0  0  0.090044  0.102678  0  1.046607  0
H  H7  1  0.76469369  0.37273803  0.49077403  1  0  0.095125  0  0.98058  0  0  0.10486  0  1.045951  0  0  0.107928  0  1.044951  0  0  0.090022  0.102657  0  1.046557  0
H  H8  1  0.56758376  0.81238736  0.15167932  1  0  0.101143  0  0.973396  0  0  0.108807  0  1.043961  0  0  0.113122  0  1.041132  0  0  0.097425  0.105449  0  1.046487  0
H  H9  1  0.43241885  0.68761070  0.65167731  1  0  0.101155  0  0.973409  0  0  0.108831  0  1.043946  0  0  0.113154  0  1.041109  0  0  0.097432  0.105473  0  1.046475  0
H  H10  1  0.43241171  0.18760567  0.84832482  1  0  0.101202  0  0.973468  0  0  0.108882  0  1.043981  0  0  0.113201  0  1.041158  0  0  0.097463  0.105527  0  1.046505  0
H  H11  1  0.56759551  0.31239174  0.34832216  1  0  0.101189  0  0.973396  0  0  0.108851  0  1.043949  0  0  0.113169  0  1.041124  0  0  0.097435  0.105492  0  1.046473  0
H  H12  1  0.10831031  0.20328239  0.28943929  1  0  0.067333  0  0.970788  0  0  0.077518  0  1.038082  0  0  0.079688  0  1.036096  0  0  0.106752  0.075571  0  1.040279  0
H  H13  1  0.89168914  0.29671989  0.78943969  1  0  0.067342  0  0.970788  0  0  0.077523  0  1.038081  0  0  0.079692  0  1.036095  0  0  0.106757  0.075575  0  1.040279  0
H  H14  1  0.89168918  0.79671537  0.71056151  1  0  0.067374  0  0.970834  0  0  0.077515  0  1.038189  0  0  0.079683  0  1.036201  0  0  0.106748  0.075571  0  1.040387  0
H  H15  1  0.10830894  0.70328263  0.21056044  1  0  0.067382  0  0.970811  0  0  0.077536  0  1.038141  0  0  0.079705  0  1.036151  0  0  0.106765  0.075591  0  1.04034  0
H  H16  1  0.16996143  0.17828786  0.12623651  1  0  0.109805  0  0.960461  0  0  0.119442  0  1.022856  0  0  0.122749  0  1.022348  0  0  0.100667  0.116991  0  1.023341  0
H  H17  1  0.83002651  0.32171183  0.62623615  1  0  0.109746  0  0.960394  0  0  0.119368  0  1.022817  0  0  0.122676  0  1.022304  0  0  0.100619  0.116914  0  1.023294  0
H  H18  1  0.83002914  0.82170709  0.87376362  1  0  0.109798  0  0.960454  0  0  0.1194  0  1.022891  0  0  0.122709  0  1.022377  0  0  0.100654  0.116951  0  1.023372  0
H  H19  1  0.16996151  0.67829359  0.37376265  1  0  0.10982  0  0.960445  0  0  0.119423  0  1.022878  0  0  0.122731  0  1.022366  0  0  0.100654  0.116974  0  1.023355  0
H  H20  1  0.52471584  0.85433963  0.31599203  1  0  0.075864  0  0.954188  0  0  0.084889  0  1.019771  0  0  0.087664  0  1.017602  0  0  0.105387  0.082829  0  1.02147  0
H  H21  1  0.47529016  0.64566105  0.81599010  1  0  0.075899  0  0.954215  0  0  0.084911  0  1.019799  0  0  0.087683  0  1.017632  0  0  0.105374  0.08285  0  1.021502  0
H  H22  1  0.47526195  0.14565824  0.68401144  1  0  0.075954  0  0.954237  0  0  0.08498  0  1.019814  0  0  0.08775  0  1.017649  0  0  0.105414  0.082922  0  1.021503  0
H  H23  1  0.52473452  0.35433943  0.18400870  1  0  0.075896  0  0.954211  0  0  0.084918  0  1.019808  0  0  0.087689  0  1.017642  0  0  0.105395  0.082864  0  1.021498  0
C  C24  1  0.87508605  0.99073174  0.12412809  1  0  0.136541  0  3.793364  0  0  0.151251  0  4.020921  0  0  0.158697  0  4.040109  0  0  0.003806  0.146422  0  4.007703  0
C  C25  1  0.12491175  0.50927018  0.62412523  1  0  0.136655  0  3.793399  0  0  0.151306  0  4.021038  0  0  0.158752  0  4.040228  0  0  0.003764  0.146477  0  4.00781  0
C  C26  1  0.12490995  0.00926319  0.87587338  1  0  0.136758  0  3.793116  0  0  0.15142  0  4.020719  0  0  0.158867  0  4.039905  0  0  0.003859  0.146589  0  4.007509  0
C  C27  1  0.87509202  0.49073326  0.37587224  1  0  0.136658  0  3.793073  0  0  0.151321  0  4.020685  0  0  0.158769  0  4.039864  0  0  0.003885  0.146491  0  4.007472  0
C  C28  1  0.90558977  0.96266508  0.03014745  1  0  -0.090235  0  3.699141  0  0  -0.111283  0  3.950527  0  0  -0.112373  0  3.966277  0  0  -0.085352  -0.111239  0  3.940847  0
C  C29  1  0.09442500  0.53733496  0.53014920  1  0  -0.090285  0  3.699216  0  0  -0.111311  0  3.950627  0  0  -0.11241  0  3.966376  0  0  -0.085328  -0.111265  0  3.94094  0
C  C30  1  0.09441410  0.03732886  0.96985535  1  0  -0.090527  0  3.699314  0  0  -0.111545  0  3.950776  0  0  -0.112632  0  3.966532  0  0  -0.085417  -0.111519  0  3.941072  0
C  C31  1  0.90560422  0.46267214  0.46985627  1  0  -0.090426  0  3.699136  0  0  -0.111426  0  3.950558  0  0  -0.112518  0  3.966325  0  0  -0.085389  -0.111399  0  3.94085  0
C  C32  1  0.69011035  0.90053225  0.18043064  1  0  -0.170182  0  3.715272  0  0  -0.185055  0  3.959435  0  0  -0.193504  0  3.979311  0  0  -0.087516  -0.179402  0  3.946513  0
C  C33  1  0.30988781  0.59946769  0.68042791  1  0  -0.170276  0  3.715381  0  0  -0.185118  0  3.959503  0  0  -0.193578  0  3.979389  0  0  -0.08756  -0.179467  0  3.946579  0
C  C34  1  0.30988564  0.09946268  0.81957216  1  0  -0.17031  0  3.715602  0  0  -0.185159  0  3.959757  0  0  -0.193626  0  3.979646  0  0  -0.087603  -0.17951  0  3.946833  0
C  C35  1  0.69011841  0.40053479  0.31957022  1  0  -0.170267  0  3.715407  0  0  -0.185114  0  3.959587  0  0  -0.193574  0  3.979469  0  0  -0.087607  -0.179458  0  3.946661  0
C  C36  1  0.99047539  0.11819364  0.25616811  1  0  0.107734  0  3.724676  0  0  0.076965  0  3.979648  0  0  0.084616  0  3.994347  0  0  0.027283  0.071845  0  3.970488  0
C  C37  1  0.00951811  0.38180871  0.75616814  1  0  0.107752  0  3.724719  0  0  0.077003  0  3.979681  0  0  0.084645  0  3.994407  0  0  0.027291  0.071885  0  3.970511  0
C  C38  1  0.00950626  0.88179851  0.74383269  1  0  0.107703  0  3.724737  0  0  0.076979  0  3.979668  0  0  0.084614  0  3.994418  0  0  0.027324  0.071862  0  3.970509  0
C  C39  1  0.99048723  0.61820042  0.24383066  1  0  0.107715  0  3.724724  0  0  0.076973  0  3.979675  0  0  0.084611  0  3.994419  0  0  0.02728  0.071856  0  3.970516  0
C  C40  1  0.02490403  0.10319089  0.16511048  1  0  -0.152358  0  3.690259  0  0  -0.168225  0  3.933079  0  0  -0.176102  0  3.954239  0  0  -0.083923  -0.162827  0  3.918626  0
C  C41  1  0.97509073  0.39681157  0.66510955  1  0  -0.152361  0  3.690194  0  0  -0.1682  0  3.933044  0  0  -0.176077  0  3.954202  0  0  -0.083871  -0.162797  0  3.91857  0
C  C42  1  0.97509144  0.89680214  0.83488966  1  0  -0.152385  0  3.690172  0  0  -0.168198  0  3.932981  0  0  -0.176078  0  3.954137  0  0  -0.083929  -0.162801  0  3.918527  0
C  C43  1  0.02490944  0.60319854  0.33488725  1  0  -0.152391  0  3.690224  0  0  -0.168206  0  3.933041  0  0  -0.176082  0  3.954191  0  0  -0.08391  -0.162805  0  3.91858  0
C  C44  1  0.66476174  0.92313969  0.27110286  1  0  0.118172  0  3.71057  0  0  0.088874  0  3.959517  0  0  0.096283  0  3.975726  0  0  0.030748  0.083284  0  3.950327  0
C  C45  1  0.33523865  0.57686298  0.77110151  1  0  0.11807  0  3.710674  0  0  0.088782  0  3.959651  0  0  0.096209  0  3.975838  0  0  0.030748  0.08319  0  3.950468  0
C  C46  1  0.33523311  0.07686095  0.72889994  1  0  0.117946  0  3.71084  0  0  0.088626  0  3.959862  0  0  0.096071  0  3.976017  0  0  0.030645  0.083039  0  3.95067  0
C  C47  1  0.66476757  0.42313950  0.22889796  1  0  0.118072  0  3.710702  0  0  0.088762  0  3.959688  0  0  0.096187  0  3.975884  0  0  0.030716  0.083173  0  3.950507  0
N  N48  1  0.81262592  0.03060534  0.31011275  1  0  -0.297138  0  3.396155  0  0  -0.224737  0  3.698428  0  0  -0.234291  0  3.703065  0  0  -0.375901  -0.219334  0  3.695243  0
N  N49  1  0.18737089  0.46939597  0.81011289  1  0  -0.29704  0  3.396202  0  0  -0.224669  0  3.698511  0  0  -0.234232  0  3.703151  0  0  -0.375878  -0.219268  0  3.695331  0
N  N50  1  0.18736027  0.96939344  0.68988671  1  0  -0.297014  0  3.396065  0  0  -0.224644  0  3.698336  0  0  -0.234211  0  3.702982  0  0  -0.37586  -0.219244  0  3.695162  0
N  N51  1  0.81263507  0.53060555  0.18988590  1  0  -0.297096  0  3.396042  0  0  -0.224705  0  3.698309  0  0  -0.234286  0  3.702982  0  0  -0.375868  -0.219307  0  3.695149  0
Cl  Cl52  1  0.69853383  0.83704062  0.49810369  1  0  -0.501788  0  1.461522  0  0  -0.428674  0  1.867337  0  0  -0.444411  0  1.827064  0  0  -0.277858  -0.417197  0  1.893622  0
Cl  Cl53  1  0.30146176  0.66296083  0.99810089  1  0  -0.501792  0  1.461532  0  0  -0.428677  0  1.867323  0  0  -0.444432  0  1.827068  0  0  -0.277836  -0.417193  0  1.893621  0
Cl  Cl54  1  0.30146128  0.16296097  0.50189578  1  0  -0.501808  0  1.461533  0  0  -0.428694  0  1.86734  0  0  -0.444428  0  1.82706  0  0  -0.277853  -0.417219  0  1.893621  0
Cl  Cl55  1  0.69854910  0.33703877  0.00189324  1  0  -0.50177  0  1.461475  0  0  -0.428666  0  1.867279  0  0  -0.4444  0  1.827003  0  0  -0.277842  -0.417196  0  1.893601  0
