# generated using pymatgen
data_CdH18C16(NO2)4
_symmetry_space_group_name_H-M   'P 1'
_cell_length_a   8.37092906
_cell_length_b   10.35274065
_cell_length_c   11.25225667
_cell_angle_alpha   89.99956219
_cell_angle_beta   92.64664309
_cell_angle_gamma   90.00029942
_symmetry_Int_Tables_number   1
_chemical_formula_structural   CdH18C16(NO2)4
_chemical_formula_sum   'Cd2 H36 C32 N8 O16'
_cell_volume   974.10353910
_cell_formula_units_Z   2
loop_
 _symmetry_equiv_pos_site_id
 _symmetry_equiv_pos_as_xyz
  1  'x, y, z'
loop_
 _atom_site_type_symbol
 _atom_site_label
 _atom_site_symmetry_multiplicity
 _atom_site_fract_x
 _atom_site_fract_y
 _atom_site_fract_z
 _atom_site_occupancy
 _atom_site_hle17_bader_spin_density
 _atom_site_hle17_ddec_charge
 _atom_site_hle17_ddec_spin_density
 _atom_site_hle17_ddec_sum_bond_order
 _atom_site_hle17_magmom
 _atom_site_hse06_10hf_bader_spin_density
 _atom_site_hse06_10hf_ddec_charge
 _atom_site_hse06_10hf_ddec_spin_density
 _atom_site_hse06_10hf_ddec_sum_bond_order
 _atom_site_hse06_10hf_magmom
 _atom_site_hse06_bader_spin_density
 _atom_site_hse06_ddec_charge
 _atom_site_hse06_ddec_spin_density
 _atom_site_hse06_ddec_sum_bond_order
 _atom_site_hse06_magmom
 _atom_site_pbe_bader_spin_density
 _atom_site_pbe_cm5_charge
 _atom_site_pbe_ddec_charge
 _atom_site_pbe_ddec_spin_density
 _atom_site_pbe_ddec_sum_bond_order
 _atom_site_pbe_magmom
Cd  Cd0  1  0.99999960  0.00000002  0.99999890  1  0  1.160826  0  1.660066  0  0  0.971835  0  2.109313  0  0  1.026687  0  2.057208  0  0  0.810862  0.932614  0  2.145411  0
Cd  Cd1  1  0.49999949  0.49999901  0.49999903  1  0  1.160828  0  1.660075  0  0  0.971845  0  2.10935  0  0  1.026688  0  2.057248  0  0  0.810903  0.932627  0  2.145449  0
H  H2  1  0.01564857  0.75492723  0.57686428  1  0  0.331216  0  0.900383  0  0  0.303103  0  0.973023  0  0  0.313752  0  0.96343  0  0  0.313822  0.29554  0  0.979902  0
H  H3  1  0.48435066  0.25493170  0.92313126  1  0  0.331175  0  0.900458  0  0  0.303057  0  0.973083  0  0  0.313708  0  0.963487  0  0  0.313794  0.295495  0  0.979961  0
H  H4  1  0.98435161  0.24506886  0.42313380  1  0  0.331193  0  0.900417  0  0  0.30305  0  0.973071  0  0  0.313698  0  0.96348  0  0  0.3138  0.295489  0  0.979944  0
H  H5  1  0.51565078  0.74507116  0.07686861  1  0  0.331116  0  0.900465  0  0  0.303005  0  0.973092  0  0  0.313655  0  0.963499  0  0  0.313796  0.295442  0  0.97997  0
H  H6  1  0.44850386  0.72036144  0.82263901  1  0  0.388925  0  0.921182  0  0  0.354843  0  1.003958  0  0  0.36822  0  0.986011  0  0  0.294021  0.345544  0  1.012711  0
H  H7  1  0.05149681  0.22035251  0.67737102  1  0  0.388889  0  0.921097  0  0  0.354794  0  1.00393  0  0  0.368169  0  0.986057  0  0  0.294008  0.345496  0  1.012679  0
H  H8  1  0.55150105  0.27964238  0.17735737  1  0  0.388872  0  0.921213  0  0  0.3548  0  1.003987  0  0  0.368178  0  0.986066  0  0  0.293983  0.345501  0  1.012739  0
H  H9  1  0.94849984  0.77964648  0.32262877  1  0  0.388878  0  0.921102  0  0  0.354816  0  1.003877  0  0  0.368191  0  0.986023  0  0  0.293983  0.345518  0  1.012627  0
H  H10  1  0.72659388  0.88604001  0.80271189  1  0  0.115651  0  0.911004  0  0  0.134108  0  0.963171  0  0  0.13594  0  0.962564  0  0  0.109859  0.132831  0  0.96366  0
H  H11  1  0.77340389  0.38604154  0.69728420  1  0  0.115678  0  0.91102  0  0  0.134157  0  0.963136  0  0  0.135985  0  0.962525  0  0  0.109872  0.132879  0  0.963625  0
H  H12  1  0.27340388  0.11395899  0.19728525  1  0  0.115634  0  0.911024  0  0  0.134084  0  0.963186  0  0  0.135914  0  0.962579  0  0  0.109851  0.132806  0  0.963675  0
H  H13  1  0.22659754  0.61396035  0.30271568  1  0  0.115595  0  0.911031  0  0  0.134055  0  0.963193  0  0  0.135883  0  0.962585  0  0  0.109841  0.132778  0  0.963682  0
H  H14  1  0.72145285  0.79170030  0.67135467  1  0  0.111554  0  0.946004  0  0  0.122887  0  1.009812  0  0  0.125106  0  1.009127  0  0  0.101718  0.121318  0  1.010452  0
H  H15  1  0.77854802  0.29170367  0.82864391  1  0  0.111538  0  0.945905  0  0  0.122853  0  1.009744  0  0  0.125068  0  1.00906  0  0  0.101703  0.121284  0  1.010384  0
H  H16  1  0.27854614  0.20829580  0.32864338  1  0  0.111556  0  0.94591  0  0  0.122874  0  1.009741  0  0  0.125092  0  1.009058  0  0  0.101711  0.121305  0  1.010381  0
H  H17  1  0.22144866  0.70829822  0.17135677  1  0  0.111554  0  0.946001  0  0  0.122865  0  1.009836  0  0  0.12508  0  1.009151  0  0  0.101719  0.121296  0  1.010476  0
H  H18  1  0.76975231  0.98590938  0.54922739  1  0  0.055137  0  0.928258  0  0  0.074776  0  0.984918  0  0  0.075848  0  0.985034  0  0  0.084371  0.073975  0  0.984816  0
H  H19  1  0.73024002  0.48591541  0.95076702  1  0  0.055111  0  0.928226  0  0  0.074766  0  0.984865  0  0  0.075833  0  0.984988  0  0  0.084373  0.073964  0  0.984766  0
H  H20  1  0.23024548  0.01408574  0.45077064  1  0  0.055146  0  0.928233  0  0  0.074768  0  0.984887  0  0  0.075841  0  0.985004  0  0  0.084366  0.073966  0  0.984786  0
H  H21  1  0.26975665  0.51408552  0.04923367  1  0  0.055164  0  0.928208  0  0  0.074809  0  0.984845  0  0  0.075883  0  0.984959  0  0  0.084392  0.074009  0  0.984744  0
H  H22  1  0.80654336  0.08039026  0.67851354  1  0  0.072004  0  0.94692  0  0  0.093977  0  1.000909  0  0  0.094841  0  1.001522  0  0  0.091368  0.093268  0  1.000676  0
H  H23  1  0.69345603  0.58039229  0.82147850  1  0  0.07199  0  0.946868  0  0  0.093923  0  1.00092  0  0  0.094787  0  1.001533  0  0  0.09134  0.093214  0  1.000687  0
H  H24  1  0.19345679  0.91960680  0.32148365  1  0  0.072  0  0.946944  0  0  0.093975  0  1.000904  0  0  0.094839  0  1.001518  0  0  0.091357  0.093266  0  1.000672  0
H  H25  1  0.30654543  0.41961250  0.17852227  1  0  0.072011  0  0.946869  0  0  0.09394  0  1.000913  0  0  0.094803  0  1.001529  0  0  0.091342  0.093232  0  1.00068  0
H  H26  1  0.48323537  0.95176489  0.60958193  1  0  0.08433  0  0.97037  0  0  0.106591  0  1.033034  0  0  0.107105  0  1.034437  0  0  0.080437  0.106147  0  1.032187  0
H  H27  1  0.01676035  0.45177047  0.89041662  1  0  0.084286  0  0.970467  0  0  0.106544  0  1.033142  0  0  0.107058  0  1.034545  0  0  0.080401  0.106102  0  1.032291  0
H  H28  1  0.51676362  0.04823314  0.39041612  1  0  0.084245  0  0.970498  0  0  0.106508  0  1.033153  0  0  0.107023  0  1.034554  0  0  0.080376  0.106065  0  1.032303  0
H  H29  1  0.98323880  0.54822852  0.10958678  1  0  0.084313  0  0.970434  0  0  0.106557  0  1.033105  0  0  0.107071  0  1.034507  0  0  0.080404  0.106114  0  1.032255  0
H  H30  1  0.52823103  0.11858373  0.59658247  1  0  0.094948  0  0.964318  0  0  0.115685  0  1.026398  0  0  0.116383  0  1.027962  0  0  0.082934  0.115157  0  1.025379  0
H  H31  1  0.97176525  0.61859018  0.90341725  1  0  0.094975  0  0.964344  0  0  0.115717  0  1.026402  0  0  0.116424  0  1.027956  0  0  0.082933  0.115178  0  1.025397  0
H  H32  1  0.47177032  0.88141429  0.40341474  1  0  0.095031  0  0.964289  0  0  0.115742  0  1.026387  0  0  0.116429  0  1.02796  0  0  0.082968  0.115203  0  1.02538  0
H  H33  1  0.02823749  0.38140881  0.09658621  1  0  0.09499  0  0.96427  0  0  0.115686  0  1.026382  0  0  0.116386  0  1.027944  0  0  0.082909  0.115147  0  1.025376  0
H  H34  1  0.52643722  0.04523252  0.73967918  1  0  0.093781  0  0.956338  0  0  0.112597  0  1.021824  0  0  0.113822  0  1.02236  0  0  0.081865  0.111689  0  1.021509  0
H  H35  1  0.97356339  0.54523435  0.76032024  1  0  0.093776  0  0.956408  0  0  0.112588  0  1.02189  0  0  0.11381  0  1.02243  0  0  0.081896  0.11168  0  1.021574  0
H  H36  1  0.47356060  0.95476648  0.26031975  1  0  0.093774  0  0.956374  0  0  0.112579  0  1.021868  0  0  0.113802  0  1.022402  0  0  0.081879  0.111671  0  1.021552  0
H  H37  1  0.02643813  0.45476464  0.23968230  1  0  0.093779  0  0.956335  0  0  0.112568  0  1.021838  0  0  0.11379  0  1.022378  0  0  0.081883  0.111661  0  1.021523  0
C  C38  1  0.19578615  0.77133042  0.72047525  1  0  -0.006907  0  3.737846  0  0  -0.020504  0  3.997186  0  0  -0.023402  0  4.016605  0  0  0.086534  -0.018631  0  3.984366  0
C  C39  1  0.30422038  0.27132948  0.77952119  1  0  -0.006918  0  3.738093  0  0  -0.020398  0  3.997269  0  0  -0.023293  0  4.016685  0  0  0.086616  -0.018524  0  3.984448  0
C  C40  1  0.80421645  0.22866954  0.27952376  1  0  -0.006831  0  3.737966  0  0  -0.020413  0  3.997234  0  0  -0.02331  0  4.016653  0  0  0.086575  -0.018541  0  3.984414  0
C  C41  1  0.69577991  0.72867241  0.22048044  1  0  -0.00694  0  3.738048  0  0  -0.020399  0  3.997202  0  0  -0.023295  0  4.01662  0  0  0.086657  -0.018525  0  3.984381  0
C  C42  1  0.29413831  0.83163551  0.93954845  1  0  0.634297  0  3.915314  0  0  0.581084  0  4.21782  0  0  0.615118  0  4.209446  0  0  0.21577  0.558032  0  4.222689  0
C  C43  1  0.20586514  0.33163690  0.56045286  1  0  0.634327  0  3.915005  0  0  0.581136  0  4.217472  0  0  0.61517  0  4.209093  0  0  0.21577  0.558085  0  4.222339  0
C  C44  1  0.70586910  0.16836542  0.06045153  1  0  0.634415  0  3.915113  0  0  0.581224  0  4.217596  0  0  0.615258  0  4.209214  0  0  0.215771  0.558173  0  4.222467  0
C  C45  1  0.79413162  0.66836305  0.43955050  1  0  0.634422  0  3.914961  0  0  0.581254  0  4.217403  0  0  0.615288  0  4.209025  0  0  0.215812  0.558204  0  4.222272  0
C  C46  1  0.18357511  0.82797581  0.83207955  1  0  -0.00348  0  3.792847  0  0  -0.015189  0  4.054629  0  0  -0.015411  0  4.075992  0  0  0.079055  -0.0152  0  4.040366  0
C  C47  1  0.31642702  0.32797777  0.66791820  1  0  -0.003522  0  3.792846  0  0  -0.015245  0  4.054576  0  0  -0.015467  0  4.075936  0  0  0.079047  -0.015255  0  4.040313  0
C  C48  1  0.81642752  0.17202415  0.16792035  1  0  -0.003544  0  3.79284  0  0  -0.01526  0  4.054613  0  0  -0.015482  0  4.075974  0  0  0.079006  -0.01527  0  4.040349  0
C  C49  1  0.68357205  0.67202412  0.33208253  1  0  -0.003601  0  3.792908  0  0  -0.015334  0  4.054635  0  0  -0.015556  0  4.075995  0  0  0.079004  -0.015345  0  4.040373  0
C  C50  1  0.95064242  0.85036326  0.73653823  1  0  0.437988  0  3.624483  0  0  0.402294  0  3.902185  0  0  0.420007  0  3.91439  0  0  0.24946  0.390617  0  3.893634  0
C  C51  1  0.54935995  0.35036713  0.76345908  1  0  0.437774  0  3.624521  0  0  0.402101  0  3.902182  0  0  0.419805  0  3.914386  0  0  0.249503  0.390426  0  3.893632  0
C  C52  1  0.04935776  0.14963670  0.26345984  1  0  0.437995  0  3.62447  0  0  0.402273  0  3.90218  0  0  0.419983  0  3.914388  0  0  0.249429  0.390596  0  3.893628  0
C  C53  1  0.45064029  0.64963573  0.23654078  1  0  0.437715  0  3.624461  0  0  0.402033  0  3.902172  0  0  0.419737  0  3.914378  0  0  0.249461  0.390356  0  3.893621  0
C  C54  1  0.32602959  0.70059314  0.66703538  1  0  0.630957  0  3.906873  0  0  0.581167  0  4.207987  0  0  0.615536  0  4.19865  0  0  0.224853  0.55764  0  4.214216  0
C  C55  1  0.17398009  0.20059119  0.83296072  1  0  0.630929  0  3.906884  0  0  0.581097  0  4.208017  0  0  0.615467  0  4.198678  0  0  0.224722  0.557571  0  4.214245  0
C  C56  1  0.67397299  0.29940682  0.33296274  1  0  0.630905  0  3.907029  0  0  0.581146  0  4.208087  0  0  0.615517  0  4.19875  0  0  0.224807  0.55762  0  4.214314  0
C  C57  1  0.82602012  0.79940781  0.16703825  1  0  0.630851  0  3.907008  0  0  0.58103  0  4.208128  0  0  0.615399  0  4.198792  0  0  0.224728  0.557505  0  4.214354  0
C  C58  1  0.77731453  0.87673859  0.71460972  1  0  -0.227306  0  3.673461  0  0  -0.265906  0  3.925067  0  0  -0.269895  0  3.935599  0  0  -0.154025  -0.263183  0  3.917782  0
C  C59  1  0.72268560  0.37674111  0.78538737  1  0  -0.227252  0  3.673425  0  0  -0.265819  0  3.924924  0  0  -0.269784  0  3.935432  0  0  -0.153996  -0.263098  0  3.917639  0
C  C60  1  0.22268445  0.12325847  0.28538834  1  0  -0.22729  0  3.673325  0  0  -0.265855  0  3.924854  0  0  -0.269839  0  3.935387  0  0  -0.153999  -0.263133  0  3.917568  0
C  C61  1  0.27731464  0.62326174  0.21461249  1  0  -0.227144  0  3.673486  0  0  -0.265724  0  3.925044  0  0  -0.269692  0  3.935558  0  0  -0.153963  -0.263002  0  3.917758  0
C  C62  1  0.73599774  0.99911896  0.64194076  1  0  -0.039392  0  3.677522  0  0  -0.075253  0  3.938208  0  0  -0.075615  0  3.95215  0  0  -0.165027  -0.074695  0  3.92826  0
C  C63  1  0.76400071  0.49912203  0.85805545  1  0  -0.039344  0  3.67743  0  0  -0.075214  0  3.938121  0  0  -0.075579  0  3.952061  0  0  -0.165021  -0.074657  0  3.928179  0
C  C64  1  0.26400128  0.00087810  0.35805819  1  0  -0.039431  0  3.677495  0  0  -0.075244  0  3.93809  0  0  -0.075606  0  3.952027  0  0  -0.165016  -0.074687  0  3.928147  0
C  C65  1  0.23599958  0.50088083  0.14194619  1  0  -0.039518  0  3.677516  0  0  -0.075342  0  3.938161  0  0  -0.07571  0  3.952102  0  0  -0.165063  -0.074783  0  3.928215  0
C  C66  1  0.55820758  0.03033160  0.64694581  1  0  -0.2877  0  3.714314  0  0  -0.36243  0  3.964187  0  0  -0.365321  0  3.977083  0  0  -0.250594  -0.360156  0  3.955239  0
C  C67  1  0.94179058  0.53033736  0.85305456  1  0  -0.287696  0  3.714592  0  0  -0.362423  0  3.96444  0  0  -0.36532  0  3.97733  0  0  -0.250598  -0.360138  0  3.955492  0
C  C68  1  0.44179146  0.96966643  0.35305403  1  0  -0.287655  0  3.714515  0  0  -0.362388  0  3.964366  0  0  -0.365267  0  3.977268  0  0  -0.250582  -0.360106  0  3.955422  0
C  C69  1  0.05821091  0.46966260  0.14694710  1  0  -0.287681  0  3.714418  0  0  -0.362332  0  3.964261  0  0  -0.365223  0  3.97716  0  0  -0.250559  -0.36005  0  3.955317  0
N  N70  1  0.04844304  0.78793077  0.66253496  1  0  -0.322199  0  3.345642  0  0  -0.261189  0  3.576563  0  0  -0.277298  0  3.588145  0  0  -0.3504  -0.250402  0  3.568731  0
N  N71  1  0.45156236  0.28793290  0.83746046  1  0  -0.322212  0  3.345833  0  0  -0.261246  0  3.576738  0  0  -0.277356  0  3.588317  0  0  -0.350506  -0.250461  0  3.568908  0
N  N72  1  0.95155717  0.21206725  0.33746401  1  0  -0.322257  0  3.345753  0  0  -0.261205  0  3.576659  0  0  -0.277313  0  3.588242  0  0  -0.350355  -0.250418  0  3.568825  0
N  N73  1  0.54843793  0.71207092  0.16254117  1  0  -0.321948  0  3.345641  0  0  -0.261004  0  3.576556  0  0  -0.277113  0  3.58814  0  0  -0.350475  -0.250217  0  3.568722  0
N  N74  1  0.03251319  0.87715276  0.83868623  1  0  -0.45542  0  3.232344  0  0  -0.389514  0  3.511879  0  0  -0.412642  0  3.528313  0  0  -0.354252  -0.373659  0  3.50061  0
N  N75  1  0.46748685  0.37715931  0.66131202  1  0  -0.455198  0  3.232046  0  0  -0.389321  0  3.511577  0  0  -0.412445  0  3.528016  0  0  -0.354225  -0.373468  0  3.500308  0
N  N76  1  0.96748821  0.12284526  0.16131275  1  0  -0.455383  0  3.232235  0  0  -0.38948  0  3.511774  0  0  -0.412607  0  3.528207  0  0  -0.354252  -0.373625  0  3.500504  0
N  N77  1  0.53251339  0.62284161  0.33868783  1  0  -0.455223  0  3.232065  0  0  -0.389334  0  3.511603  0  0  -0.41246  0  3.528042  0  0  -0.35423  -0.37348  0  3.500334  0
O  O78  1  0.24874895  0.88627781  0.03205730  1  0  -0.583101  0  1.956777  0  0  -0.52855  0  2.196211  0  0  -0.55345  0  2.184651  0  0  -0.30666  -0.511124  0  2.203583  0
O  O79  1  0.25125767  0.38628282  0.46794270  1  0  -0.583113  0  1.956531  0  0  -0.528599  0  2.196026  0  0  -0.553497  0  2.184464  0  0  -0.306676  -0.511173  0  2.203399  0
O  O80  1  0.75125607  0.11372118  0.96794264  1  0  -0.583089  0  1.956665  0  0  -0.528569  0  2.196152  0  0  -0.553468  0  2.184593  0  0  -0.306638  -0.511143  0  2.203526  0
O  O81  1  0.74874140  0.61371714  0.53205802  1  0  -0.583156  0  1.956615  0  0  -0.528648  0  2.1961  0  0  -0.553544  0  2.184537  0  0  -0.306706  -0.511223  0  2.203475  0
O  O82  1  0.42989699  0.77319333  0.93368495  1  0  -0.589748  0  2.016762  0  0  -0.532256  0  2.23232  0  0  -0.556804  0  2.21918  0  0  -0.305443  -0.5152  0  2.239674  0
O  O83  1  0.07010723  0.27319698  0.56631411  1  0  -0.589746  0  2.016587  0  0  -0.532267  0  2.232172  0  0  -0.556817  0  2.21905  0  0  -0.305445  -0.515214  0  2.239524  0
O  O84  1  0.57011156  0.22681242  0.06631327  1  0  -0.589788  0  2.016671  0  0  -0.53232  0  2.232241  0  0  -0.556875  0  2.219112  0  0  -0.305415  -0.515264  0  2.239595  0
O  O85  1  0.92989306  0.72680297  0.43368753  1  0  -0.589786  0  2.016499  0  0  -0.532351  0  2.232075  0  0  -0.556898  0  2.218953  0  0  -0.305431  -0.515296  0  2.239428  0
O  O86  1  0.31082553  0.66116436  0.56239053  1  0  -0.562938  0  1.971522  0  0  -0.513359  0  2.209633  0  0  -0.536386  0  2.197878  0  0  -0.296614  -0.497351  0  2.217333  0
O  O87  1  0.18918631  0.16116645  0.93760589  1  0  -0.562893  0  1.971606  0  0  -0.513327  0  2.209752  0  0  -0.536356  0  2.197997  0  0  -0.296495  -0.497319  0  2.217448  0
O  O88  1  0.68917585  0.33883463  0.43760757  1  0  -0.562937  0  1.97157  0  0  -0.513379  0  2.20968  0  0  -0.536408  0  2.197926  0  0  -0.296595  -0.497367  0  2.217367  0
O  O89  1  0.81081276  0.83883737  0.06239483  1  0  -0.562887  0  1.971671  0  0  -0.513315  0  2.2098  0  0  -0.536343  0  2.198048  0  0  -0.296495  -0.497305  0  2.217492  0
O  O90  1  0.45644618  0.68000150  0.73381314  1  0  -0.553051  0  2.122709  0  0  -0.504886  0  2.351711  0  0  -0.528805  0  2.3361  0  0  -0.318493  -0.488473  0  2.360107  0
O  O91  1  0.04355634  0.17999180  0.76618743  1  0  -0.552941  0  2.12257  0  0  -0.504773  0  2.351593  0  0  -0.52869  0  2.33603  0  0  -0.318455  -0.488362  0  2.359984  0
O  O92  1  0.54355403  0.31999653  0.26618582  1  0  -0.552975  0  2.122685  0  0  -0.504833  0  2.35167  0  0  -0.52875  0  2.33608  0  0  -0.318459  -0.488421  0  2.360065  0
O  O93  1  0.95644037  0.82001106  0.23381415  1  0  -0.552901  0  2.12259  0  0  -0.504764  0  2.351585  0  0  -0.52868  0  2.336038  0  0  -0.318458  -0.488354  0  2.359977  0
