# generated using pymatgen
data_NaZn3H13C19O17
_symmetry_space_group_name_H-M   'P 1'
_cell_length_a   7.69814549
_cell_length_b   9.40998129
_cell_length_c   9.78609952
_cell_angle_alpha   61.86956120
_cell_angle_beta   70.96981117
_cell_angle_gamma   79.70598125
_symmetry_Int_Tables_number   1
_chemical_formula_structural   NaZn3H13C19O17
_chemical_formula_sum   'Na1 Zn3 H13 C19 O17'
_cell_volume   590.72950717
_cell_formula_units_Z   1
loop_
 _symmetry_equiv_pos_site_id
 _symmetry_equiv_pos_as_xyz
  1  'x, y, z'
loop_
 _atom_site_type_symbol
 _atom_site_label
 _atom_site_symmetry_multiplicity
 _atom_site_fract_x
 _atom_site_fract_y
 _atom_site_fract_z
 _atom_site_occupancy
 _atom_site_hle17_bader_spin_density
 _atom_site_hle17_ddec_charge
 _atom_site_hle17_ddec_spin_density
 _atom_site_hle17_ddec_sum_bond_order
 _atom_site_hle17_magmom
 _atom_site_hse06_10hf_bader_spin_density
 _atom_site_hse06_10hf_ddec_charge
 _atom_site_hse06_10hf_ddec_spin_density
 _atom_site_hse06_10hf_ddec_sum_bond_order
 _atom_site_hse06_10hf_magmom
 _atom_site_hse06_bader_spin_density
 _atom_site_hse06_ddec_charge
 _atom_site_hse06_ddec_spin_density
 _atom_site_hse06_ddec_sum_bond_order
 _atom_site_hse06_magmom
 _atom_site_pbe_bader_spin_density
 _atom_site_pbe_cm5_charge
 _atom_site_pbe_ddec_charge
 _atom_site_pbe_ddec_spin_density
 _atom_site_pbe_ddec_sum_bond_order
 _atom_site_pbe_magmom
Na  Na0  1  0.55229630  0.95374415  0.17448843  1  0  0.911133  0  0.365195  0  0  0.867778  0  0.516327  0  0  0.878337  0  0.494706  0  0  0.657792  0.860196  0  0.531671  0
Zn  Zn1  1  0.03978209  0.45300739  0.68167173  1  0  1.210216  0  1.696512  0  0  1.04312  0  2.15326  0  0  1.093993  0  2.09011  0  0  0.69799  1.007094  0  2.196867  0
Zn  Zn2  1  0.79141415  0.26393836  0.03335735  1  0  1.160638  0  1.759214  0  0  0.997162  0  2.220431  0  0  1.048652  0  2.155208  0  0  0.678926  0.95931  0  2.267298  0
Zn  Zn3  1  0.27256128  0.66480729  0.30308876  1  0  1.154063  0  1.694834  0  0  0.989831  0  2.14581  0  0  1.042501  0  2.081158  0  0  0.669039  0.950411  0  2.192832  0
H  H4  1  0.44680347  0.28978891  0.18539690  1  0  0.432634  0  0.873159  0  0  0.402341  0  0.935188  0  0  0.413155  0  0.919691  0  0  0.293276  0.394608  0  0.946186  0
H  H5  1  0.45974522  0.29064538  0.01645157  1  0  0.417684  0  0.898164  0  0  0.386788  0  0.961368  0  0  0.398365  0  0.945145  0  0  0.289403  0.378588  0  0.972787  0
H  H6  1  0.92931199  0.56936737  0.37779213  1  0  0.435917  0  0.799191  0  0  0.42061  0  0.847495  0  0  0.428952  0  0.83837  0  0  0.332028  0.414361  0  0.8546  0
H  H7  1  0.89182663  0.74399950  0.37358303  1  0  0.441391  0  0.855961  0  0  0.40828  0  0.922316  0  0  0.419893  0  0.905598  0  0  0.295317  0.400057  0  0.93411  0
H  H8  1  0.64032428  0.61634117  0.17213349  1  0  0.441664  0  0.862138  0  0  0.406544  0  0.931341  0  0  0.418495  0  0.914242  0  0  0.292298  0.397964  0  0.943618  0
H  H9  1  0.58993579  0.58078133  0.35773587  1  0  0.43016  0  0.811659  0  0  0.417616  0  0.855015  0  0  0.425208  0  0.847372  0  0  0.329124  0.411876  0  0.861171  0
H  H10  1  0.80100799  0.84418108  0.95924532  1  0  0.101679  0  0.951059  0  0  0.110369  0  1.016376  0  0  0.114631  0  1.012106  0  0  0.116849  0.107435  0  1.019066  0
H  H11  1  0.35034175  0.18431549  0.74574237  1  0  0.117188  0  0.955228  0  0  0.12139  0  1.026201  0  0  0.125633  0  1.022223  0  0  0.110614  0.118293  0  1.028945  0
H  H12  1  0.26338186  0.09372807  0.38011465  1  0  0.101147  0  0.963731  0  0  0.107553  0  1.034878  0  0  0.111639  0  1.030678  0  0  0.11256  0.104898  0  1.037103  0
H  H13  1  0.72752700  0.72773398  0.60733844  1  0  0.105822  0  0.954541  0  0  0.115233  0  1.017546  0  0  0.119235  0  1.013566  0  0  0.111222  0.112154  0  1.020704  0
H  H14  1  0.83936585  0.21427195  0.47608931  1  0  0.111873  0  0.933016  0  0  0.11956  0  0.995685  0  0  0.12428  0  0.990893  0  0  0.108024  0.116132  0  0.999232  0
H  H15  1  0.24504705  0.70409337  0.85077599  1  0  0.12527  0  0.923072  0  0  0.132249  0  0.985106  0  0  0.136753  0  0.981072  0  0  0.11453  0.128986  0  0.988249  0
H  H16  1  0.16660212  0.23320020  0.10030063  1  0  0.012759  0  0.910859  0  0  0.024763  0  0.975804  0  0  0.024951  0  0.971228  0  0  0.117408  0.024709  0  0.978481  0
C  C17  1  0.30383857  0.15889422  0.55143210  1  0  -0.085169  0  3.776532  0  0  -0.057994  0  4.016436  0  0  -0.070025  0  4.040944  0  0  -0.020406  -0.05043  0  3.999768  0
C  C18  1  0.84039667  0.16409328  0.77525911  1  0  0.703829  0  3.825287  0  0  0.652737  0  4.111281  0  0  0.68894  0  4.103367  0  0  0.231851  0.62802  0  4.115959  0
C  C19  1  0.22187150  0.77208556  0.55348392  1  0  0.698243  0  3.841152  0  0  0.647275  0  4.125398  0  0  0.68324  0  4.118256  0  0  0.231271  0.622598  0  4.129726  0
C  C20  1  0.31342514  0.88094951  0.98292694  1  0  0.663167  0  3.911942  0  0  0.616708  0  4.199724  0  0  0.650887  0  4.193928  0  0  0.208414  0.593452  0  4.202644  0
C  C21  1  0.75695127  0.59295233  0.90829863  1  0  0.682653  0  3.834923  0  0  0.628839  0  4.122021  0  0  0.664235  0  4.114426  0  0  0.224728  0.604666  0  4.126454  0
C  C22  1  0.78957178  0.88183523  0.83886607  1  0  -0.03362  0  3.668867  0  0  -0.076651  0  3.923031  0  0  -0.070643  0  3.939784  0  0  -0.059059  -0.079507  0  3.910937  0
C  C23  1  0.30460672  0.33396664  0.43976642  1  0  0.664084  0  3.847254  0  0  0.610925  0  4.134624  0  0  0.645615  0  4.128048  0  0  0.217594  0.587208  0  4.138459  0
C  C24  1  0.32149074  0.10205098  0.70692187  1  0  -0.038608  0  3.648244  0  0  -0.080367  0  3.901392  0  0  -0.075016  0  3.918899  0  0  -0.065043  -0.08285  0  3.888839  0
C  C25  1  0.27702431  0.04985047  0.50089946  1  0  -0.055736  0  3.698678  0  0  -0.097334  0  3.951741  0  0  -0.092556  0  3.970453  0  0  -0.067655  -0.099325  0  3.938326  0
C  C26  1  0.75381158  0.81670961  0.63879743  1  0  -0.035751  0  3.681005  0  0  -0.077705  0  3.932182  0  0  -0.072407  0  3.950404  0  0  -0.066786  -0.080327  0  3.919383  0
C  C27  1  0.81393305  0.09000913  0.56698080  1  0  -0.030661  0  3.657042  0  0  -0.070756  0  3.907805  0  0  -0.065374  0  3.924952  0  0  -0.063415  -0.074537  0  3.897153  0
C  C28  1  0.26515155  0.83094588  0.76580321  1  0  -0.02736  0  3.628899  0  0  -0.067908  0  3.87949  0  0  -0.062476  0  3.895966  0  0  -0.058953  -0.072102  0  3.86987  0
C  C29  1  0.76184530  0.76785144  0.79553826  1  0  -0.078179  0  3.764863  0  0  -0.051515  0  4.004666  0  0  -0.063293  0  4.028208  0  0  -0.015436  -0.044287  0  3.988868  0
C  C30  1  0.30032992  0.93834318  0.81474304  1  0  -0.062113  0  3.713883  0  0  -0.033583  0  3.94878  0  0  -0.045055  0  3.973128  0  0  -0.010946  -0.026392  0  3.932745  0
C  C31  1  0.78498965  0.97612584  0.52301071  1  0  -0.088322  0  3.760539  0  0  -0.061105  0  3.999191  0  0  -0.073511  0  4.02488  0  0  -0.020301  -0.053175  0  3.981878  0
C  C32  1  0.81191862  0.04404317  0.72556602  1  0  -0.076636  0  3.736079  0  0  -0.050527  0  3.97526  0  0  -0.062501  0  3.999389  0  0  -0.012252  -0.043277  0  3.959805  0
C  C33  1  0.20285159  0.29683852  0.96668373  1  0  0.614823  0  3.844238  0  0  0.539821  0  4.149223  0  0  0.573557  0  4.141237  0  0  0.16238  0.516843  0  4.153877  0
C  C34  1  0.25847746  0.88601907  0.60720050  1  0  -0.084121  0  3.758115  0  0  -0.05778  0  3.998222  0  0  -0.069778  0  4.022936  0  0  -0.015547  -0.05044  0  3.982569  0
C  C35  1  0.79216819  0.02316358  0.35244587  1  0  0.673732  0  3.892601  0  0  0.623433  0  4.183593  0  0  0.657973  0  4.176897  0  0  0.217223  0.599878  0  4.187331  0
O  O36  1  0.13987505  0.64461565  0.66293817  1  0  -0.637072  0  2.132419  0  0  -0.565591  0  2.399914  0  0  -0.596117  0  2.38807  0  0  -0.300649  -0.544129  0  2.407369  0
O  O37  1  0.90550642  0.30006747  0.66328160  1  0  -0.662221  0  2.053232  0  0  -0.593566  0  2.315029  0  0  -0.623883  0  2.301059  0  0  -0.318618  -0.572104  0  2.323843  0
O  O38  1  0.51037495  0.23446233  0.11523499  1  0  -0.914146  0  1.953845  0  0  -0.851634  0  2.178278  0  0  -0.876006  0  2.141522  0  0  -0.630461  -0.834141  0  2.203778  0
O  O39  1  0.38064103  0.96979085  0.01487972  1  0  -0.67464  0  1.944173  0  0  -0.631986  0  2.183224  0  0  -0.65541  0  2.173726  0  0  -0.390718  -0.614696  0  2.189424  0
O  O40  1  0.81509175  0.17290252  0.25531672  1  0  -0.635854  0  2.062902  0  0  -0.570342  0  2.332805  0  0  -0.599455  0  2.316865  0  0  -0.313976  -0.549561  0  2.343202  0
O  O41  1  0.27445401  0.43773732  0.49991160  1  0  -0.713376  0  2.137539  0  0  -0.626544  0  2.418321  0  0  -0.659081  0  2.40021  0  0  -0.326117  -0.603682  0  2.430277  0
O  O42  1  0.77924184  0.49388429  0.84568341  1  0  -0.68402  0  2.114782  0  0  -0.600999  0  2.382306  0  0  -0.632585  0  2.366129  0  0  -0.316525  -0.578526  0  2.392768  0
O  O43  1  0.25211249  0.73848257  0.08588093  1  0  -0.657988  0  2.035363  0  0  -0.588045  0  2.296355  0  0  -0.618337  0  2.280438  0  0  -0.330437  -0.566061  0  2.306686  0
O  O44  1  0.27454260  0.81274376  0.40145726  1  0  -0.6905  0  2.056752  0  0  -0.621964  0  2.32587  0  0  -0.650724  0  2.309423  0  0  -0.348154  -0.601858  0  2.337828  0
O  O45  1  0.79819750  0.12009929  0.92638607  1  0  -0.667782  0  2.072056  0  0  -0.602614  0  2.340783  0  0  -0.62992  0  2.324278  0  0  -0.338285  -0.583677  0  2.352378  0
O  O46  1  0.96716052  0.63926271  0.41051018  1  0  -0.835657  0  1.901  0  0  -0.777155  0  2.115284  0  0  -0.798486  0  2.081015  0  0  -0.547132  -0.761881  0  2.139714  0
O  O47  1  0.57444717  0.66169826  0.25359632  1  0  -0.869424  0  1.865261  0  0  -0.814226  0  2.070313  0  0  -0.834812  0  2.037896  0  0  -0.599107  -0.799737  0  2.093519  0
O  O48  1  0.33057181  0.38444604  0.29133684  1  0  -0.57772  0  1.974021  0  0  -0.51978  0  2.189356  0  0  -0.543967  0  2.179091  0  0  -0.287524  -0.502782  0  2.195474  0
O  O49  1  0.07348283  0.30214766  0.90699504  1  0  -0.675658  0  2.252094  0  0  -0.586373  0  2.551494  0  0  -0.620335  0  2.535073  0  0  -0.323725  -0.562843  0  2.562264  0
O  O50  1  0.73771064  0.54080526  0.05683945  1  0  -0.602154  0  1.970683  0  0  -0.544517  0  2.188646  0  0  -0.569328  0  2.176478  0  0  -0.299799  -0.527123  0  2.196816  0
O  O51  1  0.77586471  0.91635975  0.31262563  1  0  -0.696594  0  1.956394  0  0  -0.643748  0  2.183447  0  0  -0.666627  0  2.169352  0  0  -0.374034  -0.62719  0  2.19279  0
O  O52  1  0.35718267  0.35536652  0.88614236  1  0  -0.520684  0  1.969045  0  0  -0.468615  0  2.180118  0  0  -0.49141  0  2.170705  0  0  -0.298801  -0.453097  0  2.186497  0
