# generated using pymatgen
data_NaBH18C7N2O3
_symmetry_space_group_name_H-M   'P 1'
_cell_length_a   7.31852332
_cell_length_b   10.34638754
_cell_length_c   15.12320000
_cell_angle_alpha   90.00000000
_cell_angle_beta   90.00000000
_cell_angle_gamma   105.38109078
_symmetry_Int_Tables_number   1
_chemical_formula_structural   NaBH18C7N2O3
_chemical_formula_sum   'Na4 B4 H72 C28 N8 O12'
_cell_volume   1104.11768165
_cell_formula_units_Z   4
loop_
 _symmetry_equiv_pos_site_id
 _symmetry_equiv_pos_as_xyz
  1  'x, y, z'
loop_
 _atom_site_type_symbol
 _atom_site_label
 _atom_site_symmetry_multiplicity
 _atom_site_fract_x
 _atom_site_fract_y
 _atom_site_fract_z
 _atom_site_occupancy
 _atom_site_hle17_bader_spin_density
 _atom_site_hle17_ddec_charge
 _atom_site_hle17_ddec_spin_density
 _atom_site_hle17_ddec_sum_bond_order
 _atom_site_hle17_magmom
 _atom_site_hse06_10hf_bader_spin_density
 _atom_site_hse06_10hf_ddec_charge
 _atom_site_hse06_10hf_ddec_spin_density
 _atom_site_hse06_10hf_ddec_sum_bond_order
 _atom_site_hse06_10hf_magmom
 _atom_site_hse06_bader_spin_density
 _atom_site_hse06_ddec_charge
 _atom_site_hse06_ddec_spin_density
 _atom_site_hse06_ddec_sum_bond_order
 _atom_site_hse06_magmom
 _atom_site_pbe_bader_charge
 _atom_site_pbe_bader_spin_density
 _atom_site_pbe_cm5_charge
 _atom_site_pbe_ddec_charge
 _atom_site_pbe_ddec_spin_density
 _atom_site_pbe_ddec_sum_bond_order
 _atom_site_pbe_magmom
Na  Na0  1  0.74730086  0.53016542  0.50905033  1  0  0.884562  0  0.387927  0  0  0.813883  0  0.56443  0  0  0.827826  0  0.540693  0  0.881134  0  0.663933  0.803548  0  0.581636  0
Na  Na1  1  0.74730084  0.03016797  0.99095033  1  0  0.884543  0  0.387977  0  0  0.813898  0  0.564399  0  0  0.827845  0  0.540664  0  0.881121  0  0.663944  0.803566  0  0.581606  0
Na  Na2  1  0.25269812  0.46983148  0.49095033  1  0  0.88455  0  0.387943  0  0  0.813887  0  0.564404  0  0  0.827831  0  0.540671  0  0.881108  0  0.663933  0.803553  0  0.581609  0
Na  Na3  1  0.25270002  0.96983394  0.00905166  1  0  0.884573  0  0.387902  0  0  0.813878  0  0.564424  0  0  0.827826  0  0.54069  0  0.881136  0  0.663937  0.803545  0  0.58163  0
B  B4  1  0.60901767  0.38783213  0.83209638  1  0  -0.040634  0  3.689989  0  0  -0.212886  0  3.994336  0  0  -0.206293  0  4.003008  0  1.691562  0  -0.491375  -0.216929  0  3.987646  0
B  B5  1  0.60902132  0.88783559  0.66790626  1  0  -0.040781  0  3.690009  0  0  -0.21304  0  3.994388  0  0  -0.206442  0  4.003045  0  1.691599  0  -0.491415  -0.217084  0  3.9877  0
B  B6  1  0.39098131  0.61216477  0.16790296  1  0  -0.040629  0  3.689909  0  0  -0.212877  0  3.994275  0  0  -0.206282  0  4.002941  0  1.691535  0  -0.49139  -0.216921  0  3.98759  0
B  B7  1  0.39098265  0.11216732  0.33209770  1  0  -0.040687  0  3.689895  0  0  -0.212936  0  3.994252  0  0  -0.20634  0  4.002916  0  1.691561  0  -0.491393  -0.21698  0  3.987564  0
H  H8  1  0.54151150  0.45268200  0.88421035  1  0  -0.146536  0  1.00937  0  0  -0.090309  0  1.091001  0  0  -0.095086  0  1.09379  0  -0.551687  0  0.032577  -0.086927  0  1.088915  0
H  H9  1  0.54151204  0.95268446  0.61579163  1  0  -0.146516  0  1.009364  0  0  -0.090291  0  1.090996  0  0  -0.095068  0  1.093787  0  -0.551684  0  0.032581  -0.086909  0  1.088911  0
H  H10  1  0.45848922  0.54731591  0.11578899  1  0  -0.146538  0  1.009392  0  0  -0.090309  0  1.091011  0  0  -0.095086  0  1.093802  0  -0.55174  0  0.03259  -0.086927  0  1.088927  0
H  H11  1  0.45848845  0.04731645  0.38421167  1  0  -0.146514  0  1.009367  0  0  -0.090286  0  1.090988  0  0  -0.095064  0  1.093778  0  -0.551739  0  0.032598  -0.086904  0  1.088903  0
H  H12  1  0.50518160  0.72880391  0.38264785  1  0  0.055346  0  0.952113  0  0  0.07162  0  1.014427  0  0  0.071292  0  1.015075  0  0.06759  0  0.106716  0.071785  0  1.014024  0
H  H13  1  0.50518643  0.22880847  0.11735149  1  0  0.055376  0  0.952109  0  0  0.071662  0  1.01443  0  0  0.071332  0  1.015083  0  0.067641  0  0.106731  0.071826  0  1.014027  0
H  H14  1  0.49481291  0.27119199  0.61735281  1  0  0.055377  0  0.952078  0  0  0.071667  0  1.014381  0  0  0.071341  0  1.015025  0  0.067629  0  0.106745  0.071832  0  1.013977  0
H  H15  1  0.49481505  0.77119144  0.88264785  1  0  0.055383  0  0.952069  0  0  0.071669  0  1.014382  0  0  0.071341  0  1.015029  0  0.067633  0  0.106742  0.071833  0  1.013979  0
H  H16  1  0.82424919  0.88865558  0.50117568  1  0  0.065324  0  0.966041  0  0  0.082264  0  1.030433  0  0  0.082386  0  1.031345  0  0.027438  0  0.104938  0.082088  0  1.029936  0
H  H17  1  0.82425030  0.38866114  0.99882102  1  0  0.06542  0  0.965961  0  0  0.082391  0  1.030301  0  0  0.082517  0  1.031203  0  0.027383  0  0.104984  0.082213  0  1.029797  0
H  H18  1  0.17574767  0.11133932  0.49882234  1  0  0.065419  0  0.965982  0  0  0.08238  0  1.030332  0  0  0.082504  0  1.03124  0  0.02733  0  0.104978  0.082205  0  1.029827  0
H  H19  1  0.17574722  0.61134278  0.00117766  1  0  0.065379  0  0.966035  0  0  0.082321  0  1.030388  0  0  0.082443  0  1.031301  0  0.027401  0  0.104963  0.08215  0  1.029882  0
H  H20  1  0.48843284  0.85353863  0.46068954  1  0  0.048363  0  0.952624  0  0  0.06397  0  1.018464  0  0  0.063736  0  1.018953  0  0.049172  0  0.099457  0.063965  0  1.0184  0
H  H21  1  0.48842970  0.35354018  0.03931046  1  0  0.048318  0  0.952645  0  0  0.063945  0  1.018483  0  0  0.063713  0  1.018971  0  0.049155  0  0.099435  0.063939  0  1.01842  0
H  H22  1  0.51156652  0.14645927  0.53931112  1  0  0.048334  0  0.952607  0  0  0.06396  0  1.018441  0  0  0.063726  0  1.018931  0  0.049131  0  0.099458  0.063955  0  1.018377  0
H  H23  1  0.51156555  0.64645772  0.96068954  1  0  0.048325  0  0.952608  0  0  0.063948  0  1.018449  0  0  0.063714  0  1.018939  0  0.04912  0  0.099449  0.063942  0  1.018386  0
H  H24  1  0.16810360  0.74902683  0.39985321  1  0  0.070527  0  0.932332  0  0  0.08949  0  0.992193  0  0  0.089606  0  0.992888  0  0.051117  0  0.113714  0.089327  0  0.99178  0
H  H25  1  0.16810433  0.24903138  0.10014679  1  0  0.070504  0  0.932317  0  0  0.089514  0  0.992176  0  0  0.089632  0  0.992869  0  0.051168  0  0.113738  0.089351  0  0.991763  0
H  H26  1  0.83189264  0.25097007  0.60014944  1  0  0.070518  0  0.932304  0  0  0.089489  0  0.992188  0  0  0.089604  0  0.992882  0  0.051122  0  0.113709  0.089325  0  0.991774  0
H  H27  1  0.83189294  0.75097554  0.89985056  1  0  0.070525  0  0.932296  0  0  0.089492  0  0.992172  0  0  0.089609  0  0.992866  0  0.051065  0  0.113719  0.089328  0  0.991758  0
H  H28  1  0.03244077  0.57931531  0.30951518  1  0  0.056327  0  0.940535  0  0  0.072323  0  1.004573  0  0  0.071828  0  1.00562  0  0.039015  0  0.108849  0.072547  0  1.00393  0
H  H29  1  0.03243416  0.07931486  0.19048482  1  0  0.056439  0  0.94049  0  0  0.072406  0  1.00455  0  0  0.071914  0  1.005595  0  0.038995  0  0.108888  0.072629  0  1.003909  0
H  H30  1  0.96756480  0.42068460  0.69048548  1  0  0.056435  0  0.940477  0  0  0.072409  0  1.004541  0  0  0.071916  0  1.005587  0  0.038997  0  0.108889  0.072633  0  1.003899  0
H  H31  1  0.96756571  0.92068806  0.80951584  1  0  0.056387  0  0.940446  0  0  0.072377  0  1.004502  0  0  0.071885  0  1.005545  0  0.039001  0  0.108859  0.072602  0  1.00386  0
H  H32  1  0.72998963  0.73412879  0.29122672  1  0  0.070575  0  0.951538  0  0  0.087099  0  1.015605  0  0  0.087104  0  1.016565  0  0.038437  0  0.106792  0.087056  0  1.014874  0
H  H33  1  0.72999073  0.23413435  0.20877063  1  0  0.070542  0  0.951602  0  0  0.087071  0  1.015648  0  0  0.087076  0  1.016609  0  0.038317  0  0.106783  0.087029  0  1.014916  0
H  H34  1  0.27000648  0.26586410  0.70877328  1  0  0.070546  0  0.951591  0  0  0.087083  0  1.015651  0  0  0.087087  0  1.01661  0  0.038308  0  0.106789  0.087043  0  1.01492  0
H  H35  1  0.27001300  0.76587157  0.79122871  1  0  0.070547  0  0.951565  0  0  0.08709  0  1.015611  0  0  0.087095  0  1.01657  0  0.03842  0  0.106794  0.087048  0  1.014879  0
H  H36  1  0.01428783  0.81901512  0.57659159  1  0  0.036373  0  0.95  0  0  0.050464  0  1.019838  0  0  0.0512  0  1.018438  0  0.023973  0  0.093777  0.04972  0  1.021198  0
H  H37  1  0.01428965  0.31901166  0.92340642  1  0  0.036365  0  0.950014  0  0  0.050459  0  1.019845  0  0  0.051193  0  1.018448  0  0.023836  0  0.093756  0.049716  0  1.021204  0
H  H38  1  0.98570657  0.18098779  0.42340774  1  0  0.036396  0  0.949957  0  0  0.050442  0  1.019844  0  0  0.051176  0  1.018447  0  0.023862  0  0.093758  0.049701  0  1.021202  0
H  H39  1  0.98570499  0.68098825  0.07659093  1  0  0.036403  0  0.949943  0  0  0.050453  0  1.019817  0  0  0.051186  0  1.018421  0  0.023886  0  0.09376  0.04971  0  1.021178  0
H  H40  1  0.25561024  0.82584164  0.55564100  1  0  0.046218  0  0.954238  0  0  0.060224  0  1.023992  0  0  0.059993  0  1.024587  0  0.072593  0  0.099361  0.06022  0  1.023841  0
H  H41  1  0.25561281  0.32584018  0.94435768  1  0  0.046211  0  0.954203  0  0  0.06021  0  1.023977  0  0  0.059981  0  1.024569  0  0.07257  0  0.09935  0.060206  0  1.023826  0
H  H42  1  0.74438416  0.17416128  0.44436032  1  0  0.046197  0  0.954247  0  0  0.060186  0  1.024034  0  0  0.059956  0  1.024626  0  0.07246  0  0.099351  0.060183  0  1.023882  0
H  H43  1  0.74438470  0.67416374  0.05563902  1  0  0.046196  0  0.954238  0  0  0.06019  0  1.024012  0  0  0.05996  0  1.024604  0  0.072574  0  0.099345  0.060186  0  1.023862  0
H  H44  1  0.14166486  0.91035206  0.42325103  1  0  0.061157  0  0.952813  0  0  0.076041  0  1.021059  0  0  0.07605  0  1.022261  0  0.05075  0  0.097731  0.075921  0  1.020304  0
H  H45  1  0.14166621  0.41035461  0.07674566  1  0  0.061206  0  0.952759  0  0  0.076102  0  1.021032  0  0  0.076112  0  1.022235  0  0.050725  0  0.097771  0.075981  0  1.02028  0
H  H46  1  0.85833313  0.08964585  0.57674765  1  0  0.061227  0  0.952749  0  0  0.076132  0  1.020988  0  0  0.076141  0  1.022191  0  0.050791  0  0.097764  0.076012  0  1.020233  0
H  H47  1  0.85833206  0.58965131  0.92325037  1  0  0.061171  0  0.952698  0  0  0.07608  0  1.020953  0  0  0.07609  0  1.022155  0  0.050695  0  0.097729  0.075956  0  1.020203  0
H  H48  1  0.76519788  0.38098457  0.85660905  1  0  -0.146974  0  1.017792  0  0  -0.091543  0  1.101349  0  0  -0.096249  0  1.103621  0  -0.541777  0  0.037054  -0.088235  0  1.09963  0
H  H49  1  0.76519979  0.88098703  0.64339161  1  0  -0.146942  0  1.017754  0  0  -0.091505  0  1.101298  0  0  -0.09621  0  1.103571  0  -0.541766  0  0.037067  -0.088198  0  1.099582  0
H  H50  1  0.23480072  0.61901133  0.14339029  1  0  -0.146968  0  1.017793  0  0  -0.091537  0  1.101349  0  0  -0.096242  0  1.10362  0  -0.54177  0  0.037062  -0.088231  0  1.099635  0
H  H51  1  0.23479994  0.11901188  0.35660905  1  0  -0.146953  0  1.017786  0  0  -0.091522  0  1.101338  0  0  -0.096227  0  1.103608  0  -0.541776  0  0.037072  -0.088215  0  1.099621  0
H  H52  1  0.79173500  0.93151024  0.38992343  1  0  0.052667  0  0.932669  0  0  0.069275  0  0.999405  0  0  0.069915  0  0.999219  0  -0.008393  0  0.094957  0.068664  0  0.999853  0
H  H53  1  0.79173497  0.43151279  0.11007393  1  0  0.052903  0  0.932696  0  0  0.069434  0  0.999477  0  0  0.070069  0  0.999298  0  -0.008395  0  0.095018  0.068824  0  0.999923  0
H  H54  1  0.20826262  0.06848666  0.61007459  1  0  0.052847  0  0.932763  0  0  0.069393  0  0.999536  0  0  0.070029  0  0.999357  0  -0.008441  0  0.094996  0.068783  0  0.999983  0
H  H55  1  0.20825769  0.56848912  0.88992674  1  0  0.052763  0  0.93282  0  0  0.069302  0  0.999614  0  0  0.069935  0  0.999432  0  -0.008595  0  0.09497  0.068691  0  1.000061  0
H  H56  1  0.97579405  0.80352666  0.27621072  1  0  0.069791  0  0.907759  0  0  0.08912  0  0.965042  0  0  0.089585  0  0.965442  0  0.052977  0  0.103142  0.088754  0  0.964769  0
H  H57  1  0.97579440  0.30353021  0.22378729  1  0  0.069761  0  0.907819  0  0  0.089083  0  0.9651  0  0  0.089548  0  0.9655  0  0.052891  0  0.103119  0.088718  0  0.964826  0
H  H58  1  0.02420394  0.19647125  0.72378862  1  0  0.069797  0  0.907813  0  0  0.089141  0  0.965064  0  0  0.089608  0  0.965464  0  0.052921  0  0.103145  0.088776  0  0.964791  0
H  H59  1  0.02420683  0.69647270  0.77621138  1  0  0.069823  0  0.907722  0  0  0.089146  0  0.965022  0  0  0.089609  0  0.965421  0  0.052914  0  0.103161  0.08878  0  0.964749  0
H  H60  1  0.87991405  0.57593113  0.21814365  1  0  0.040463  0  0.942701  0  0  0.055052  0  1.012284  0  0  0.055272  0  1.011752  0  0.035512  0  0.095359  0.05471  0  1.012871  0
H  H61  1  0.87990668  0.07592866  0.28185239  1  0  0.040505  0  0.942781  0  0  0.055053  0  1.012382  0  0  0.055271  0  1.011854  0  0.035553  0  0.095347  0.05471  0  1.012969  0
H  H62  1  0.12009326  0.42406979  0.78185503  1  0  0.040444  0  0.942775  0  0  0.05504  0  1.012343  0  0  0.055259  0  1.011813  0  0.035525  0  0.095343  0.054697  0  1.012929  0
H  H63  1  0.12009281  0.92407325  0.71814629  1  0  0.040539  0  0.942793  0  0  0.055082  0  1.01242  0  0  0.0553  0  1.011893  0  0.035507  0  0.095377  0.05474  0  1.013007  0
H  H64  1  0.54306583  0.71512683  0.56921485  1  0  0.369877  0  0.889366  0  0  0.351032  0  0.955556  0  0  0.358621  0  0.947584  0  0.63171  0  0.304946  0.345665  0  0.961265  0
H  H65  1  0.54306580  0.21512938  0.93078647  1  0  0.36989  0  0.889398  0  0  0.351033  0  0.955608  0  0  0.358622  0  0.947636  0  0.631711  0  0.304935  0.345662  0  0.961328  0
H  H66  1  0.45693179  0.28487008  0.43078647  1  0  0.369922  0  0.889304  0  0  0.351085  0  0.955479  0  0  0.358672  0  0.947509  0  0.631701  0  0.304973  0.345716  0  0.961189  0
H  H67  1  0.45693256  0.78486953  0.06921419  1  0  0.369913  0  0.8893  0  0  0.351075  0  0.955481  0  0  0.358663  0  0.947507  0  0.631697  0  0.30497  0.345706  0  0.961193  0
H  H68  1  0.50344026  0.27475561  0.82245292  1  0  -0.143289  0  1.011976  0  0  -0.088143  0  1.091751  0  0  -0.092694  0  1.094043  0  -0.549593  0  0.04009  -0.084957  0  1.089968  0
H  H69  1  0.50344390  0.77475907  0.67755105  1  0  -0.143256  0  1.011992  0  0  -0.088101  0  1.091739  0  0  -0.092652  0  1.094032  0  -0.549576  0  0.040109  -0.084915  0  1.089954  0
H  H70  1  0.49655834  0.72524029  0.17755039  1  0  -0.143281  0  1.011984  0  0  -0.08813  0  1.09174  0  0  -0.09268  0  1.09403  0  -0.549542  0  0.040103  -0.084944  0  1.089955  0
H  H71  1  0.49655832  0.22524284  0.32245226  1  0  -0.14327  0  1.011994  0  0  -0.088118  0  1.09174  0  0  -0.09267  0  1.094032  0  -0.549562  0  0.040102  -0.084932  0  1.089956  0
H  H72  1  0.13510634  0.61526327  0.60206041  1  0  0.373786  0  0.922134  0  0  0.35176  0  0.989261  0  0  0.361353  0  0.978099  0  0.639663  0  0.301681  0.345014  0  0.997119  0
H  H73  1  0.13510854  0.11526081  0.89794157  1  0  0.373819  0  0.922113  0  0  0.351792  0  0.989237  0  0  0.361385  0  0.978075  0  0.63993  0  0.301683  0.345041  0  0.997109  0
H  H74  1  0.86489490  0.38473965  0.39794157  1  0  0.373823  0  0.922091  0  0  0.351788  0  0.989227  0  0  0.361382  0  0.978065  0  0.639696  0  0.301683  0.345035  0  0.997098  0
H  H75  1  0.86489096  0.88474111  0.10205843  1  0  0.37379  0  0.922143  0  0  0.351766  0  0.989264  0  0  0.361359  0  0.978101  0  0.639814  0  0.301667  0.345017  0  0.997132  0
H  H76  1  0.62740109  0.48269560  0.32095390  1  0  0.36813  0  0.894553  0  0  0.349247  0  0.958504  0  0  0.356572  0  0.95083  0  0.627297  0  0.309048  0.344088  0  0.963913  0
H  H77  1  0.62739418  0.98270006  0.17904544  1  0  0.3681  0  0.894492  0  0  0.349226  0  0.95845  0  0  0.356551  0  0.95077  0  0.62721  0  0.309023  0.344069  0  0.963857  0
H  H78  1  0.37260435  0.51730030  0.67904478  1  0  0.368127  0  0.894427  0  0  0.349257  0  0.958377  0  0  0.356581  0  0.950699  0  0.627226  0  0.309028  0.344099  0  0.963785  0
H  H79  1  0.37260706  0.01730285  0.82095390  1  0  0.368097  0  0.894529  0  0  0.349235  0  0.958454  0  0  0.356556  0  0.950781  0  0.62725  0  0.309035  0.344077  0  0.963862  0
C  C80  1  0.77353556  0.84598135  0.43639111  1  0  -0.050088  0  3.703139  0  0  -0.107615  0  3.967227  0  0  -0.105415  0  3.9796  0  0.317678  0  -0.075701  -0.109006  0  3.958591  0
C  C81  1  0.77353529  0.34598691  0.06361021  1  0  -0.0505  0  3.703418  0  0  -0.107968  0  3.967463  0  0  -0.105762  0  3.979829  0  0.317741  0  -0.075827  -0.109351  0  3.958822  0
C  C82  1  0.22646404  0.15401354  0.56361021  1  0  -0.05048  0  3.703455  0  0  -0.107961  0  3.967527  0  0  -0.105759  0  3.979894  0  0.317861  0  -0.075823  -0.109348  0  3.958889  0
C  C83  1  0.22646184  0.65401601  0.93639045  1  0  -0.050361  0  3.703491  0  0  -0.107826  0  3.967553  0  0  -0.105614  0  3.979911  0  0.317938  0  -0.075781  -0.109217  0  3.958919  0
C  C84  1  0.63219526  0.45790062  0.74025008  1  0  0.239765  0  3.626868  0  0  0.256166  0  3.908381  0  0  0.267262  0  3.919965  0  0.506684  0  0.202551  0.248488  0  3.900504  0
C  C85  1  0.63219829  0.95790609  0.75975257  1  0  0.239863  0  3.626789  0  0  0.25626  0  3.908322  0  0  0.267358  0  3.919906  0  0.506874  0  0.202567  0.248582  0  3.900446  0
C  C86  1  0.36781116  0.54209428  0.25974926  1  0  0.239656  0  3.626722  0  0  0.256049  0  3.908256  0  0  0.267145  0  3.919842  0  0.506895  0  0.202431  0.248368  0  3.90038  0
C  C87  1  0.36781162  0.04209081  0.24025272  1  0  0.239781  0  3.626758  0  0  0.256176  0  3.908277  0  0  0.267272  0  3.91986  0  0.506805  0  0.202462  0.248496  0  3.900401  0
C  C88  1  0.08321782  0.80248815  0.43803163  1  0  -0.051533  0  3.689588  0  0  -0.107243  0  3.950991  0  0  -0.104998  0  3.963501  0  0.281378  0  -0.074702  -0.108627  0  3.942281  0
C  C89  1  0.08321917  0.30249070  0.06196506  1  0  -0.051507  0  3.689465  0  0  -0.107363  0  3.951062  0  0  -0.105121  0  3.963575  0  0.281227  0  -0.07478  -0.108746  0  3.942351  0
C  C90  1  0.91677979  0.19750876  0.56196771  1  0  -0.051595  0  3.689522  0  0  -0.107372  0  3.951007  0  0  -0.105127  0  3.963512  0  0.281293  0  -0.074756  -0.108754  0  3.942296  0
C  C91  1  0.91677971  0.69751322  0.93803229  1  0  -0.051609  0  3.68949  0  0  -0.107377  0  3.950958  0  0  -0.105138  0  3.963475  0  0.28147  0  -0.074762  -0.108759  0  3.942246  0
C  C92  1  0.56347636  0.77745159  0.44471078  1  0  0.119928  0  3.643154  0  0  0.058926  0  3.919165  0  0  0.066187  0  3.924942  0  0.424547  0  -0.077675  0.054139  0  3.914946  0
C  C93  1  0.56347808  0.27745514  0.05528856  1  0  0.120013  0  3.643111  0  0  0.058946  0  3.91916  0  0  0.066203  0  3.924937  0  0.424516  0  -0.077665  0.05416  0  3.914939  0
C  C94  1  0.43652224  0.22254431  0.55528856  1  0  0.120017  0  3.643039  0  0  0.058967  0  3.919087  0  0  0.066227  0  3.924863  0  0.424544  0  -0.07769  0.05418  0  3.914867  0
C  C95  1  0.43652128  0.72254277  0.94471078  1  0  0.119991  0  3.643068  0  0  0.058936  0  3.919114  0  0  0.066196  0  3.924887  0  0.424475  0  -0.077684  0.054148  0  3.914896  0
C  C96  1  0.86953719  0.72727521  0.31420004  1  0  -0.056332  0  3.688537  0  0  -0.112996  0  3.953584  0  0  -0.110431  0  3.965316  0  0.29566  0  -0.074823  -0.114629  0  3.945244  0
C  C97  1  0.86953655  0.22727977  0.18579798  1  0  -0.056186  0  3.688605  0  0  -0.11281  0  3.953552  0  0  -0.110239  0  3.965277  0  0.29625  0  -0.074743  -0.114446  0  3.945213  0
C  C98  1  0.13046415  0.27272069  0.68579864  1  0  -0.056258  0  3.688614  0  0  -0.112926  0  3.953646  0  0  -0.110358  0  3.965372  0  0.296163  0  -0.074805  -0.114564  0  3.94531  0
C  C99  1  0.13046582  0.77272615  0.81420268  1  0  -0.056277  0  3.688522  0  0  -0.112935  0  3.953574  0  0  -0.11036  0  3.965297  0  0.29608  0  -0.074786  -0.114569  0  3.945233  0
C  C100  1  0.89225034  0.58964831  0.29039687  1  0  0.132706  0  3.631421  0  0  0.0693  0  3.912361  0  0  0.076422  0  3.918333  0  0.447503  0  -0.070723  0.064571  0  3.908166  0
C  C101  1  0.89224448  0.08964985  0.20960313  1  0  0.132483  0  3.631664  0  0  0.069122  0  3.912572  0  0  0.076244  0  3.918537  0  0.44697  0  -0.070796  0.064395  0  3.90838  0
C  C102  1  0.10775585  0.41034960  0.70960313  1  0  0.132569  0  3.631575  0  0  0.069169  0  3.912545  0  0  0.076289  0  3.918514  0  0.447249  0  -0.070783  0.06444  0  3.908353  0
C  C103  1  0.10775813  0.91035306  0.79039423  1  0  0.132581  0  3.631528  0  0  0.069168  0  3.912548  0  0  0.076288  0  3.918512  0  0.446657  0  -0.070784  0.064439  0  3.908357  0
C  C104  1  0.10910416  0.77679800  0.53538471  1  0  0.129854  0  3.656843  0  0  0.068007  0  3.938407  0  0  0.075257  0  3.943508  0  0.398108  0  -0.079029  0.063114  0  3.935006  0
C  C105  1  0.10910710  0.27679755  0.96461463  1  0  0.129874  0  3.656763  0  0  0.068059  0  3.938367  0  0  0.07531  0  3.943467  0  0.398405  0  -0.07901  0.063165  0  3.934964  0
C  C106  1  0.89088912  0.22320191  0.46461728  1  0  0.129902  0  3.65675  0  0  0.068108  0  3.938291  0  0  0.075357  0  3.943394  0  0.398352  0  -0.078983  0.063214  0  3.934884  0
C  C107  1  0.89088867  0.72320537  0.03538272  1  0  0.129975  0  3.656707  0  0  0.068182  0  3.938263  0  0  0.075437  0  3.943361  0  0.398261  0  -0.078935  0.063289  0  3.934861  0
N  N108  1  0.88470366  0.75394773  0.40962429  1  0  -0.253262  0  3.247385  0  0  -0.172943  0  3.502677  0  0  -0.186654  0  3.521361  0  -1.052282  0  -0.377577  -0.163031  0  3.489365  0
N  N109  1  0.88470538  0.25395129  0.09037241  1  0  -0.253355  0  3.247529  0  0  -0.173008  0  3.50279  0  0  -0.186725  0  3.521489  0  -1.052376  0  -0.377605  -0.163097  0  3.489479  0
N  N110  1  0.11529259  0.24604917  0.59037505  1  0  -0.253315  0  3.247421  0  0  -0.172988  0  3.502724  0  0  -0.186696  0  3.521399  0  -1.052347  0  -0.377582  -0.163075  0  3.489411  0
N  N111  1  0.11529350  0.74605263  0.90962693  1  0  -0.253243  0  3.247509  0  0  -0.172878  0  3.502709  0  0  -0.186595  0  3.521412  0  -1.052253  0  -0.377571  -0.162967  0  3.489398  0
N  N112  1  0.64674051  0.50754972  0.66979872  1  0  -0.541302  0  2.716475  0  0  -0.507561  0  2.956495  0  0  -0.519258  0  2.962459  0  -1.389235  0  -0.400681  -0.499714  0  2.952823  0
N  N113  1  0.64674882  0.00755628  0.83020393  1  0  -0.541352  0  2.716423  0  0  -0.507606  0  2.95643  0  0  -0.519304  0  2.962396  0  -1.389479  0  -0.400705  -0.499759  0  2.952762  0
N  N114  1  0.35325895  0.49244117  0.33019864  1  0  -0.541221  0  2.716376  0  0  -0.507473  0  2.956384  0  0  -0.519173  0  2.962352  0  -1.389417  0  -0.400595  -0.499621  0  2.952713  0
N  N115  1  0.35326259  0.99244463  0.16980136  1  0  -0.541333  0  2.716493  0  0  -0.507585  0  2.956513  0  0  -0.519283  0  2.962478  0  -1.389314  0  -0.400627  -0.499737  0  2.952843  0
O  O116  1  0.75866784  0.48245101  0.33512352  1  0  -0.586012  0  2.149695  0  0  -0.528035  0  2.374832  0  0  -0.54404  0  2.364563  0  -1.18063  0  -0.416937  -0.516882  0  2.381715  0
O  O117  1  0.75865919  0.98245447  0.16487317  1  0  -0.58591  0  2.14972  0  0  -0.527955  0  2.37484  0  0  -0.543978  0  2.364615  0  -1.180325  0  -0.416896  -0.516807  0  2.38172  0
O  O118  1  0.24133934  0.51754590  0.66487450  1  0  -0.585944  0  2.149639  0  0  -0.527984  0  2.374782  0  0  -0.544  0  2.364548  0  -1.180565  0  -0.416888  -0.516835  0  2.38166  0
O  O119  1  0.24134242  0.01754945  0.83512616  1  0  -0.585954  0  2.149623  0  0  -0.527991  0  2.374809  0  0  -0.544016  0  2.364596  0  -1.180081  0  -0.416928  -0.516842  0  2.381693  0
O  O120  1  0.52456942  0.67252277  0.51044025  1  0  -0.627901  0  2.085105  0  0  -0.574555  0  2.326124  0  0  -0.589355  0  2.313214  0  -1.18329  0  -0.481601  -0.563994  0  2.334967  0
O  O121  1  0.52456803  0.17252532  0.98955975  1  0  -0.627902  0  2.085092  0  0  -0.574536  0  2.32612  0  0  -0.589337  0  2.313214  0  -1.183261  0  -0.481578  -0.563975  0  2.334964  0
O  O122  1  0.47542956  0.32747413  0.48955975  1  0  -0.627947  0  2.085025  0  0  -0.574599  0  2.326057  0  0  -0.589401  0  2.313148  0  -1.183236  0  -0.481618  -0.564035  0  2.334897  0
O  O123  1  0.47543307  0.82747358  0.01044025  1  0  -0.627898  0  2.085004  0  0  -0.574549  0  2.326033  0  0  -0.589348  0  2.313125  0  -1.183207  0  -0.481596  -0.563988  0  2.334877  0
O  O124  1  0.06686765  0.63465417  0.54924950  1  0  -0.647901  0  2.115032  0  0  -0.591452  0  2.356262  0  0  -0.607004  0  2.342361  0  -1.194627  0  -0.495821  -0.580461  0  2.365823  0
O  O125  1  0.06686923  0.13465372  0.95075249  1  0  -0.64796  0  2.115009  0  0  -0.591507  0  2.356237  0  0  -0.607058  0  2.342335  0  -1.194912  0  -0.495825  -0.58052  0  2.365809  0
O  O126  1  0.93313146  0.36534674  0.45075315  1  0  -0.647936  0  2.114917  0  0  -0.591471  0  2.356127  0  0  -0.607024  0  2.342224  0  -1.194635  0  -0.49584  -0.580502  0  2.365743  0
O  O127  1  0.93313064  0.86534920  0.04924817  1  0  -0.647974  0  2.114991  0  0  -0.591528  0  2.356215  0  0  -0.607079  0  2.342309  0  -1.194826  0  -0.495851  -0.580541  0  2.365784  0
