# generated using pymatgen
data_CuH6C8N3
_symmetry_space_group_name_H-M   'P 1'
_cell_length_a   32.75928613
_cell_length_b   33.45457087
_cell_length_c   34.84141287
_cell_angle_alpha   90.99651634
_cell_angle_beta   92.35636395
_cell_angle_gamma   91.07552170
_symmetry_Int_Tables_number   1
_chemical_formula_structural   CuH6C8N3
_chemical_formula_sum   'Cu12 H72 C96 N36'
_cell_volume   38139.05724021
_cell_formula_units_Z   12
loop_
 _symmetry_equiv_pos_site_id
 _symmetry_equiv_pos_as_xyz
  1  'x, y, z'
loop_
 _atom_site_type_symbol
 _atom_site_label
 _atom_site_symmetry_multiplicity
 _atom_site_fract_x
 _atom_site_fract_y
 _atom_site_fract_z
 _atom_site_occupancy
 _atom_site_pbe_bader_charge
 _atom_site_pbe_bader_spin_density
 _atom_site_pbe_cm5_charge
 _atom_site_pbe_ddec_charge
 _atom_site_pbe_ddec_spin_density
 _atom_site_pbe_ddec_sum_bond_order
 _atom_site_pbe_magmom
Cu  Cu0  1  0.87750359  0.09549157  0.14860800  1  0.544629  0  0.490073  0.207081  0  2.128237  0
Cu  Cu1  1  0.85597322  0.12024889  0.06420072  1  0.544491  0  0.489913  0.20874  0  2.119911  0
Cu  Cu2  1  0.90881015  0.17904360  0.12036730  1  0.545598  0  0.488165  0.210409  0  2.104319  0
Cu  Cu3  1  0.11634325  0.41280457  0.65533483  1  0.543376  0  0.488144  0.206288  0  2.118399  0
Cu  Cu4  1  0.14813845  0.37627643  0.57790520  1  0.548892  0  0.488989  0.210041  0  2.103838  0
Cu  Cu5  1  0.07026754  0.33746928  0.61691597  1  0.546564  0  0.488453  0.207894  0  2.110763  0
Cu  Cu6  1  0.37925596  0.90583702  0.34917701  1  0.546029  0  0.49011  0.209751  0  2.114856  0
Cu  Cu7  1  0.34872947  0.86992915  0.42658020  1  0.54625  0  0.487376  0.207732  0  2.108627  0
Cu  Cu8  1  0.41973519  0.82743867  0.38227632  1  0.545733  0  0.486487  0.205998  0  2.107397  0
Cu  Cu9  1  0.62269927  0.58682984  0.85412321  1  0.546706  0  0.490421  0.209241  0  2.11646  0
Cu  Cu10  1  0.66560818  0.62947098  0.92739506  1  0.546206  0  0.486303  0.205552  0  2.105168  0
Cu  Cu11  1  0.58243412  0.66319765  0.89007753  1  0.548586  0  0.487453  0.208081  0  2.105262  0
H  H12  1  0.80958379  0.02714037  0.15917305  1  0.102054  0  0.123174  0.114155  0  0.98626  0
H  H13  1  0.79525022  0.04832959  0.03699410  1  0.108756  0  0.122627  0.114928  0  0.98417  0
H  H14  1  0.97820801  0.20019791  0.18519494  1  0.086391  0  0.123222  0.115504  0  0.983193  0
H  H15  1  0.94206349  0.08026746  0.21670634  1  0.091183  0  0.123011  0.112623  0  0.987757  0
H  H16  1  0.85560338  0.17042752  0.98787446  1  0.081031  0  0.123033  0.115099  0  0.984155  0
H  H17  1  0.90808088  0.25768732  0.07002653  1  0.070713  0  0.122704  0.112678  0  0.987943  0
H  H18  1  0.18131689  0.48313669  0.67147943  1  0.103677  0  0.122783  0.114772  0  0.98429  0
H  H19  1  0.22098384  0.43757712  0.56218696  1  0.097195  0  0.122853  0.113074  0  0.987632  0
H  H20  1  0.00349519  0.32009580  0.67890268  1  0.102039  0  0.12234  0.112256  0  0.987741  0
H  H21  1  0.06236533  0.42762098  0.72754657  1  0.096211  0  0.123151  0.115007  0  0.984107  0
H  H22  1  0.15576071  0.31685879  0.50685193  1  0.104804  0  0.122558  0.113095  0  0.987516  0
H  H23  1  0.04388264  0.27157402  0.55380577  1  0.102395  0  0.122384  0.114679  0  0.985039  0
H  H24  1  0.32016019  0.97947405  0.33972682  1  0.103186  0  0.122771  0.113897  0  0.987617  0
H  H25  1  0.29184813  0.94077181  0.45383672  1  0.085882  0  0.122545  0.115012  0  0.984767  0
H  H26  1  0.48967914  0.81445826  0.32240083  1  0.094958  0  0.122996  0.115648  0  0.984031  0
H  H27  1  0.43483310  0.92244756  0.27894656  1  0.106305  0  0.122568  0.112517  0  0.988861  0
H  H28  1  0.33237933  0.80612273  0.49065811  1  0.079606  0  0.12224  0.112583  0  0.987943  0
H  H29  1  0.43414462  0.75204493  0.43500408  1  0.088499  0  0.122606  0.115296  0  0.985024  0
H  H30  1  0.68627030  0.51986357  0.83677589  1  0.098498  0  0.1224  0.112104  0  0.988242  0
H  H31  1  0.74579546  0.57678655  0.93741241  1  0.08512  0  0.122765  0.115469  0  0.983366  0
H  H32  1  0.51162414  0.67829994  0.82616358  1  0.107721  0  0.123252  0.115576  0  0.983572  0
H  H33  1  0.55983751  0.56646619  0.78483815  1  0.115263  0  0.122669  0.113163  0  0.987767  0
H  H34  1  0.67904542  0.68904014  0.99876538  1  0.094007  0  0.122783  0.115424  0  0.984256  0
H  H35  1  0.56359400  0.73082084  0.95107954  1  0.097951  0  0.122355  0.112441  0  0.987624  0
H  H36  1  0.70162611  0.93224265  0.08863168  1  0.068733  0  0.103862  0.099773  0  0.99806  0
H  H37  1  0.73711040  0.99487435  0.14923154  1  0.026384  0  0.100239  0.099553  0  0.986619  0
H  H38  1  0.67568750  0.95660040  0.16981380  1  0.082175  0  0.103001  0.113004  0  0.9968  0
H  H39  1  0.75265741  0.97942970  0.06365703  1  0.033044  0  0.10396  0.103687  0  0.984427  0
H  H40  1  0.30263937  0.56746279  0.56472191  1  0.083002  0  0.10339  0.098418  0  0.997155  0
H  H41  1  0.25819643  0.50672362  0.55901846  1  0.053867  0  0.097936  0.095971  0  0.992983  0
H  H42  1  0.32384071  0.53812012  0.64626711  1  0.077195  0  0.10214  0.111216  0  1.002332  0
H  H43  1  0.25233649  0.51987181  0.64612835  1  0.070443  0  0.103012  0.10238  0  0.98904  0
H  H44  1  0.21995845  0.07417396  0.40633922  1  0.098936  0  0.104191  0.100427  0  0.994733  0
H  H45  1  0.24885851  0.01353390  0.34442093  1  0.056481  0  0.099834  0.09862  0  0.987837  0
H  H46  1  0.19117995  0.05602628  0.32226345  1  0.077143  0  0.103302  0.112964  0  0.99521  0
H  H47  1  0.26307750  0.01913868  0.43232373  1  0.048441  0  0.103449  0.104138  0  0.984427  0
H  H48  1  0.81767268  0.45280114  0.82145283  1  0.101941  0  0.102263  0.097786  0  1.000052  0
H  H49  1  0.75559864  0.49235380  0.82540179  1  0.060908  0  0.097916  0.094926  0  0.99422  0
H  H50  1  0.80907335  0.43900862  0.90788567  1  0.10098  0  0.102717  0.112127  0  1.001816  0
H  H51  1  0.78467347  0.50738952  0.90952807  1  0.058077  0  0.103519  0.103746  0  0.987627  0
H  H52  1  0.07952161  0.08005387  0.28303167  1  0.088259  0  0.102613  0.097476  0  1.000894  0
H  H53  1  0.01510412  0.07738288  0.24407226  1  0.056778  0  0.09811  0.095799  0  0.993726  0
H  H54  1  0.04931885  0.15999087  0.31526265  1  0.077618  0  0.102568  0.112053  0  1.001629  0
H  H55  1  0.02202123  0.16906057  0.25006308  1  0.068988  0  0.104034  0.103966  0  0.987508  0
H  H56  1  0.43020200  0.56105209  0.70333128  1  0.093025  0  0.102822  0.098146  0  0.998934  0
H  H57  1  0.48979811  0.55908831  0.74929038  1  0.013938  0  0.0982  0.096075  0  0.993121  0
H  H58  1  0.46290444  0.64512666  0.68486419  1  0.057665  0  0.102569  0.112306  0  1.001984  0
H  H59  1  0.47732013  0.64983704  0.75430999  1  0.052386  0  0.103689  0.103446  0  0.988012  0
H  H60  1  0.94288258  0.31652634  0.81053975  1  0.098105  0  0.102621  0.097749  0  0.999787  0
H  H61  1  0.97691556  0.31263824  0.74812945  1  0.05153  0  0.09812  0.096359  0  0.992835  0
H  H62  1  0.92182943  0.40203801  0.78634599  1  0.086802  0  0.102525  0.11226  0  1.001197  0
H  H63  1  0.99246652  0.40221895  0.76494233  1  0.079581  0  0.103194  0.102926  0  0.988778  0
H  H64  1  0.56485619  0.93304159  0.20845497  1  0.102267  0  0.10267  0.098211  0  0.999927  0
H  H65  1  0.50366589  0.93264763  0.24809798  1  0.059289  0  0.098234  0.095839  0  0.992379  0
H  H66  1  0.53613000  0.84785392  0.18409532  1  0.078752  0  0.102683  0.112494  0  1.001418  0
H  H67  1  0.52211287  0.84314581  0.25347858  1  0.070193  0  0.103271  0.103546  0  0.987905  0
H  H68  1  0.86216808  0.35428649  0.96852123  1  0.101115  0  0.102327  0.097496  0  1.002214  0
H  H69  1  0.87904851  0.30862747  0.02138702  1  0.075197  0  0.097953  0.095723  0  0.99266  0
H  H70  1  0.90679559  0.29508243  0.91705138  1  0.085797  0  0.102743  0.112383  0  1.001512  0
H  H71  1  0.87505007  0.24485789  0.95671535  1  0.058143  0  0.103283  0.102959  0  0.988454  0
H  H72  1  0.32297655  0.67082385  0.55237615  1  0.086425  0  0.103009  0.098194  0  0.995443  0
H  H73  1  0.32109231  0.73382309  0.51589697  1  0.056781  0  0.098102  0.096439  0  0.992404  0
H  H74  1  0.41245953  0.69574510  0.57189339  1  0.076087  0  0.10286  0.112924  0  1.001697  0
H  H75  1  0.41114613  0.71501675  0.50363474  1  0.064168  0  0.103283  0.103662  0  0.988972  0
H  H76  1  0.55899909  0.80324911  0.07846150  1  0.101589  0  0.102693  0.098264  0  1.000316  0
H  H77  1  0.55675135  0.76273746  0.01829700  1  0.060505  0  0.09801  0.096436  0  0.991727  0
H  H78  1  0.64609929  0.82701661  0.05646706  1  0.083597  0  0.102329  0.111153  0  1.002377  0
H  H79  1  0.64914877  0.75703219  0.03592406  1  0.0614  0  0.103115  0.102397  0  0.988377  0
H  H80  1  0.08688954  0.20270964  0.42315253  1  0.104221  0  0.103871  0.099399  0  0.996059  0
H  H81  1  0.15560526  0.24444975  0.47504488  1  0.02059  0  0.100309  0.099716  0  0.986696  0
H  H82  1  0.17961587  0.18883009  0.43252035  1  0.082177  0  0.103299  0.113505  0  0.995132  0
H  H83  1  0.06176494  0.24173252  0.47837062  1  0.088663  0  0.103312  0.103155  0  0.984541  0
C  C84  1  0.35467139  0.58927453  0.62289903  1  1.079559  0  0.237058  0.416415  0  4.071926  0
C  C85  1  0.38359568  0.64549087  0.59887424  1  1.017181  0  0.237182  0.41879  0  4.065912  0
C  C86  1  0.41160854  0.61753372  0.65286134  1  1.012698  0  0.235588  0.418527  0  4.067382  0
C  C87  1  0.64495750  0.90831674  0.13758460  1  1.041849  0  0.236065  0.418487  0  4.071349  0
C  C88  1  0.61732836  0.85389596  0.10512199  1  1.034177  0  0.237175  0.418908  0  4.067459  0
C  C89  1  0.58742834  0.87776401  0.15861400  1  1.010335  0  0.237398  0.418405  0  4.070458  0
C  C90  1  0.85288992  0.40756710  0.87450568  1  1.064262  0  0.23569  0.416744  0  4.073555  0
C  C91  1  0.89911521  0.37605794  0.83797627  1  1.065641  0  0.236901  0.41863  0  4.068701  0
C  C92  1  0.88372024  0.35132006  0.89629631  1  1.02908  0  0.236578  0.417485  0  4.072544  0
C  C93  1  0.16476734  0.10353914  0.35537199  1  1.052446  0  0.236994  0.420396  0  4.070908  0
C  C94  1  0.14203605  0.15712731  0.38894909  1  1.080358  0  0.236314  0.419666  0  4.069917  0
C  C95  1  0.10501313  0.13268348  0.33662935  1  1.076994  0  0.235924  0.416958  0  4.070898  0
C  C96  1  0.81055176  0.03783293  0.12998027  1  0.410219  0  0.012193  -0.047575  0  3.932887  0
C  C97  1  0.78878241  0.02399199  0.09647491  1  0.039515  0  -0.037021  0.013319  0  4.128997  0
C  C98  1  0.80396032  0.04811599  0.06738358  1  0.380758  0  0.010196  -0.053675  0  3.948532  0
C  C99  1  0.96391779  0.17095851  0.18828587  1  0.435586  0  0.011065  -0.050724  0  3.943494  0
C  C100  1  0.97480457  0.14011381  0.21347743  1  0.038621  0  -0.037378  0.008363  0  4.131705  0
C  C101  1  0.94592802  0.10941993  0.20401400  1  0.404968  0  0.012876  -0.044908  0  3.933764  0
C  C102  1  0.86875470  0.18682058  0.01269919  1  0.443437  0  0.009908  -0.052314  0  3.951601  0
C  C103  1  0.88120610  0.22726229  0.01601522  1  0.01428  0  -0.037334  0.009581  0  4.132772  0
C  C104  1  0.89488190  0.23166514  0.05478004  1  0.413351  0  0.012281  -0.046008  0  3.932285  0
C  C105  1  0.18586424  0.46702509  0.64473155  1  0.39068  0  0.010802  -0.052121  0  3.945951  0
C  C106  1  0.21496465  0.47407772  0.61687530  1  0.01502  0  -0.03749  0.010131  0  4.128091  0
C  C107  1  0.20587289  0.44416194  0.58865157  1  0.404122  0  0.011713  -0.047454  0  3.932305  0
C  C108  1  0.02269139  0.34617884  0.68608653  1  0.39128  0  0.012242  -0.04651  0  3.932214  0
C  C109  1  0.02090595  0.37357623  0.71713269  1  0.037385  0  -0.038186  0.009879  0  4.131303  0
C  C110  1  0.05244627  0.40146072  0.71054371  1  0.400111  0  0.010618  -0.051746  0  3.948183  0
C  C111  1  0.12953000  0.30999724  0.52378714  1  0.369222  0  0.011173  -0.048642  0  3.936608  0
C  C112  1  0.09797573  0.28129220  0.51680912  1  0.031062  0  -0.038032  0.012779  0  4.131414  0
C  C113  1  0.07185857  0.28751139  0.54731607  1  0.413591  0  0.009445  -0.054702  0  3.951363  0
C  C114  1  0.31690795  0.96411945  0.36665301  1  0.388882  0  0.010536  -0.050583  0  3.939648  0
C  C115  1  0.29418839  0.97477283  0.39859207  1  0.011503  0  -0.037687  0.013409  0  4.127423  0
C  C116  1  0.30322803  0.94482303  0.42531715  1  0.433514  0  0.009226  -0.054502  0  3.947077  0
C  C117  1  0.47139484  0.84055582  0.31654612  1  0.434374  0  0.009434  -0.054805  0  3.948154  0
C  C118  1  0.47549439  0.86927969  0.28783605  1  -0.024286  0  -0.037795  0.010244  0  4.130735  0
C  C119  1  0.44380748  0.89606059  0.29463919  1  0.428078  0  0.011028  -0.048602  0  3.937503  0
C  C120  1  0.35697241  0.79776991  0.47236525  1  0.444031  0  0.01086  -0.04883  0  3.933444  0
C  C121  1  0.38283619  0.76462898  0.47450446  1  0.014944  0  -0.037355  0.011386  0  4.128148  0
C  C122  1  0.40939701  0.77055917  0.44427454  1  0.404455  0  0.009782  -0.054297  0  3.949404  0
C  C123  1  0.69575977  0.53852127  0.86144724  1  0.387899  0  0.011969  -0.046233  0  3.935038  0
C  C124  1  0.73098688  0.53646112  0.88588707  1  0.088052  0  -0.036844  0.011005  0  4.130109  0
C  C125  1  0.72581775  0.56728991  0.91318872  1  0.380024  0  0.009822  -0.054964  0  3.945454  0
C  C126  1  0.52836975  0.65111821  0.82115150  1  0.416288  0  0.010691  -0.052379  0  3.94576  0
C  C127  1  0.52212210  0.62178629  0.79191670  1  -0.007047  0  -0.037069  0.011409  0  4.130149  0
C  C128  1  0.55252866  0.59365178  0.80032108  1  0.394938  0  0.011523  -0.048779  0  3.936638  0
C  C129  1  0.65107805  0.69452583  0.98205306  1  0.372578  0  0.009833  -0.054747  0  3.94753  0
C  C130  1  0.62063665  0.72266832  0.98869850  1  -0.001876  0  -0.038034  0.008702  0  4.132305  0
C  C131  1  0.59181492  0.71556750  0.95807559  1  0.445306  0  0.012028  -0.046201  0  3.934024  0
C  C132  1  0.67611670  0.93970122  0.14273260  1  -0.100562  0  -0.094947  -0.208481  0  3.93806  0
C  C133  1  0.70339658  0.94911110  0.11586656  1  0.017126  0  -0.08098  -0.038126  0  4.04373  0
C  C134  1  0.73387438  0.98018633  0.12090007  1  -0.058061  0  -0.100173  -0.105393  0  4.067864  0
C  C135  1  0.75772181  0.99292265  0.09234086  1  0.040362  0  -0.085413  -0.107937  0  4.020235  0
C  C136  1  0.32386747  0.55720605  0.62116463  1  -0.030182  0  -0.094789  -0.209065  0  3.937621  0
C  C137  1  0.29838364  0.54937893  0.59017256  1  -0.025408  0  -0.080265  -0.034927  0  4.018719  0
C  C138  1  0.26684743  0.51854573  0.58774998  1  -0.048057  0  -0.101633  -0.108065  0  4.04492  0
C  C139  1  0.24612753  0.50517445  0.61813066  1  -0.048618  0  -0.08515  -0.103143  0  4.018015  0
C  C140  1  0.19362507  0.07155179  0.35012846  1  -0.04843  0  -0.093676  -0.205972  0  3.935595  0
C  C141  1  0.21996579  0.05897111  0.37826414  1  -0.039807  0  -0.080748  -0.038852  0  4.040562  0
C  C142  1  0.24663419  0.02592111  0.37355400  1  -0.021634  0  -0.099839  -0.104216  0  4.068454  0
C  C143  1  0.26741147  0.00821225  0.40300730  1  -0.062097  0  -0.085182  -0.109511  0  4.018655  0
C  C144  1  0.82158801  0.43740470  0.87934919  1  -0.001512  0  -0.093624  -0.207624  0  3.9337  0
C  C145  1  0.80576423  0.45887094  0.84981049  1  -0.109786  0  -0.080192  -0.033938  0  4.017865  0
C  C146  1  0.77346321  0.48745131  0.85208650  1  -0.052756  0  -0.101451  -0.106917  0  4.04732  0
C  C147  1  0.76462441  0.50939540  0.88375372  1  -0.051697  0  -0.084684  -0.103476  0  4.01623  0
C  C148  1  0.06914821  0.13463275  0.31066369  1  0.008089  0  -0.094682  -0.209329  0  3.934286  0
C  C149  1  0.05972866  0.10603183  0.28350381  1  -0.10501  0  -0.07933  -0.03121  0  4.015536  0
C  C150  1  0.02589700  0.10647460  0.25571028  1  -0.026062  0  -0.101395  -0.108868  0  4.047805  0
C  C151  1  0.00861033  0.13994464  0.24132730  1  -0.079452  0  -0.083377  -0.100116  0  4.013402  0
C  C152  1  0.44302084  0.61854693  0.68371374  1  -0.02306  0  -0.093746  -0.206577  0  3.931923  0
C  C153  1  0.44900077  0.58815004  0.70845331  1  -0.037464  0  -0.078767  -0.032241  0  4.015076  0
C  C154  1  0.47862247  0.58824901  0.74029245  1  0.005737  0  -0.10128  -0.108346  0  4.045241  0
C  C155  1  0.49160160  0.62129845  0.76084403  1  -0.020539  0  -0.084092  -0.102344  0  4.014591  0
C  C156  1  0.92342969  0.37531063  0.80386250  1  -0.090553  0  -0.095076  -0.210474  0  3.935497  0
C  C157  1  0.94569334  0.34345150  0.79338194  1  -0.027351  0  -0.079115  -0.031989  0  4.014463  0
C  C158  1  0.97237782  0.34201458  0.76142478  1  -0.039747  0  -0.101114  -0.107418  0  4.044308  0
C  C159  1  0.99401721  0.37390669  0.74890555  1  -0.057033  0  -0.085134  -0.104278  0  4.018942  0
C  C160  1  0.55500754  0.87511490  0.18594407  1  -0.074637  0  -0.094718  -0.209303  0  3.935527  0
C  C161  1  0.54704123  0.90526304  0.21088746  1  -0.005493  0  -0.079141  -0.033288  0  4.018383  0
C  C162  1  0.51679372  0.90406678  0.23983497  1  -0.087382  0  -0.101508  -0.106798  0  4.044783  0
C  C163  1  0.50581843  0.87078784  0.25898180  1  -0.022669  0  -0.084708  -0.103938  0  4.017327  0
C  C164  1  0.88955258  0.32116130  0.92558270  1  -0.024714  0  -0.095205  -0.209981  0  3.934836  0
C  C165  1  0.87621369  0.32575452  0.96169730  1  -0.061972  0  -0.079313  -0.032525  0  4.017892  0
C  C166  1  0.87913682  0.29685381  0.99188737  1  -0.070207  0  -0.101648  -0.107471  0  4.0459  0
C  C167  1  0.87895505  0.25658845  0.98618262  1  -0.037695  0  -0.084579  -0.102621  0  4.017822  0
C  C168  1  0.38426249  0.67779843  0.57131363  1  -0.080961  0  -0.093811  -0.206997  0  3.934636  0
C  C169  1  0.35145779  0.68769454  0.54870537  1  0.016084  0  -0.079825  -0.034886  0  4.016553  0
C  C170  1  0.35059728  0.71969524  0.52134626  1  -0.010561  0  -0.101912  -0.108985  0  4.044756  0
C  C171  1  0.38287701  0.73186198  0.50095521  1  -0.095026  0  -0.085406  -0.105143  0  4.017658  0
C  C172  1  0.61852740  0.82551179  0.07299527  1  -0.073802  0  -0.095325  -0.208936  0  3.935157  0
C  C173  1  0.58691755  0.80036118  0.06251113  1  -0.023083  0  -0.079921  -0.033862  0  4.016919  0
C  C174  1  0.58663279  0.77092203  0.03167967  1  -0.078811  0  -0.101189  -0.108478  0  4.042286  0
C  C175  1  0.62009289  0.75152533  0.01990531  1  -0.005555  0  -0.08489  -0.101582  0  4.015681  0
C  C176  1  0.14844690  0.18631643  0.42020476  1  -0.04659  0  -0.093543  -0.2063  0  3.935973  0
C  C177  1  0.11800449  0.20786484  0.43512816  1  -0.077929  0  -0.082029  -0.039363  0  4.040378  0
C  C178  1  0.12402075  0.23623506  0.46626140  1  0.082147  0  -0.10005  -0.105314  0  4.06782  0
C  C179  1  0.09300808  0.25215798  0.48584607  1  -0.13796  0  -0.085153  -0.10805  0  4.02103  0
N  N180  1  0.35348217  0.61752298  0.59567605  1  -1.203986  0  -0.323483  -0.434937  0  3.173921  0
N  N181  1  0.41374028  0.64667553  0.62663776  1  -1.176458  0  -0.334403  -0.448352  0  3.14312  0
N  N182  1  0.38270333  0.58818287  0.65231671  1  -1.17335  0  -0.327461  -0.440293  0  3.164743  0
N  N183  1  0.64712693  0.88221520  0.10764009  1  -1.163177  0  -0.32899  -0.441275  0  3.158396  0
N  N184  1  0.58690409  0.85010590  0.13005232  1  -1.16226  0  -0.3286  -0.442184  0  3.1614  0
N  N185  1  0.61589263  0.90738778  0.16379752  1  -1.162733  0  -0.328236  -0.441189  0  3.167706  0
N  N186  1  0.87333461  0.40666587  0.84151706  1  -1.197741  0  -0.328838  -0.442462  0  3.162586  0
N  N187  1  0.90410385  0.34658739  0.86380577  1  -1.172131  0  -0.32785  -0.44065  0  3.162194  0
N  N188  1  0.85847585  0.38188870  0.90346736  1  -1.193313  0  -0.326963  -0.439211  0  3.170024  0
N  N189  1  0.17127172  0.12970781  0.38512817  1  -1.19761  0  -0.32955  -0.443712  0  3.157053  0
N  N190  1  0.10783606  0.15945795  0.36601410  1  -1.209747  0  -0.328431  -0.44147  0  3.156264  0
N  N191  1  0.13301525  0.10454411  0.32966160  1  -1.195579  0  -0.327682  -0.440921  0  3.168712  0
N  N192  1  0.83206525  0.07442758  0.08245335  1  -0.775353  0  -0.339111  -0.142243  0  3.768866  0
N  N193  1  0.83643879  0.06771534  0.12129354  1  -0.791553  0  -0.337353  -0.138621  0  3.770028  0
N  N194  1  0.92026663  0.12113490  0.17544786  1  -0.788745  0  -0.33775  -0.138155  0  3.772127  0
N  N195  1  0.93156845  0.15931288  0.16540173  1  -0.767443  0  -0.337624  -0.144101  0  3.758713  0
N  N196  1  0.89067115  0.19668857  0.07284805  1  -0.770277  0  -0.335002  -0.139249  0  3.761503  0
N  N197  1  0.87416569  0.16882228  0.04673110  1  -0.775745  0  -0.339415  -0.142514  0  3.770825  0
N  N198  1  0.17396001  0.42145326  0.59903959  1  -0.77993  0  -0.334742  -0.137957  0  3.766215  0
N  N199  1  0.16132613  0.43582022  0.63379228  1  -0.767425  0  -0.338721  -0.140639  0  3.772639  0
N  N200  1  0.07160660  0.39125168  0.67848473  1  -0.774478  0  -0.33923  -0.141923  0  3.77605  0
N  N201  1  0.05291203  0.35703629  0.66315390  1  -0.78347  0  -0.335385  -0.137902  0  3.768395  0
N  N202  1  0.08694855  0.31715163  0.57073056  1  -0.785522  0  -0.33757  -0.141025  0  3.774598  0
N  N203  1  0.12256020  0.33142624  0.55583793  1  -0.776449  0  -0.336031  -0.139153  0  3.769408  0
N  N204  1  0.32878026  0.91824683  0.41023884  1  -0.774685  0  -0.337494  -0.140747  0  3.769397  0
N  N205  1  0.33766163  0.93055750  0.37395389  1  -0.765636  0  -0.337012  -0.140244  0  3.770153  0
N  N206  1  0.42285248  0.88416423  0.32495379  1  -0.775577  0  -0.336523  -0.137845  0  3.774297  0
N  N207  1  0.44012738  0.84979221  0.33879406  1  -0.788413  0  -0.336573  -0.139305  0  3.768373  0
N  N208  1  0.39981102  0.80418754  0.42552189  1  -0.784048  0  -0.336986  -0.140015  0  3.768256  0
N  N209  1  0.36740194  0.82124851  0.44321034  1  -0.77455  0  -0.335635  -0.138253  0  3.766194  0
N  N210  1  0.69064356  0.58630631  0.90532811  1  -0.77631  0  -0.336195  -0.139044  0  3.765925  0
N  N211  1  0.67190940  0.56820764  0.87327495  1  -0.777029  0  -0.336825  -0.138803  0  3.775027  0
N  N212  1  0.57480428  0.60538581  0.83195459  1  -0.760567  0  -0.336687  -0.138046  0  3.768929  0
N  N213  1  0.55962541  0.64098278  0.84512681  1  -0.786867  0  -0.33711  -0.141416  0  3.768431  0
N  N214  1  0.60424154  0.68564267  0.93531813  1  -0.775361  0  -0.33481  -0.138419  0  3.768478  0
N  N215  1  0.64100538  0.67235728  0.95033338  1  -0.77143  0  -0.336715  -0.138387  0  3.766364  0
