# generated using pymatgen
data_Al6H20(C9O4)7
_symmetry_space_group_name_H-M   'P 1'
_cell_length_a   12.57918404
_cell_length_b   12.47856496
_cell_length_c   27.02293422
_cell_angle_alpha   97.78248855
_cell_angle_beta   90.22244602
_cell_angle_gamma   119.75289052
_symmetry_Int_Tables_number   1
_chemical_formula_structural   Al6H20(C9O4)7
_chemical_formula_sum   'Al6 H20 C63 O28'
_cell_volume   3636.21561011
_cell_formula_units_Z   1
loop_
 _symmetry_equiv_pos_site_id
 _symmetry_equiv_pos_as_xyz
  1  'x, y, z'
loop_
 _atom_site_type_symbol
 _atom_site_label
 _atom_site_symmetry_multiplicity
 _atom_site_fract_x
 _atom_site_fract_y
 _atom_site_fract_z
 _atom_site_occupancy
 _atom_site_pbe_bader_charge
 _atom_site_pbe_bader_spin_density
 _atom_site_pbe_cm5_charge
 _atom_site_pbe_ddec_charge
 _atom_site_pbe_ddec_spin_density
 _atom_site_pbe_ddec_sum_bond_order
 _atom_site_pbe_magmom
Al  Al0  1  0.41107324  0.81263450  0.48829709  1  2.491032  0  0.401091  1.681576  0  2.561963  0
Al  Al1  1  0.66432036  0.07416037  0.50180475  1  2.483167  0  0.510998  1.660674  0  2.510874  0
Al  Al2  1  0.42838359  0.08087921  0.50296825  1  2.485471  0  0.511904  1.6624  0  2.506623  0
Al  Al3  1  0.92105429  0.83961769  0.02071746  1  2.49072  0  0.400391  1.682183  0  2.560342  0
Al  Al4  1  0.91365741  0.57623728  0.00369782  1  2.482512  0  0.511086  1.662267  0  2.50625  0
Al  Al5  1  0.67283111  0.57315069  0.00212956  1  2.481517  0  0.510727  1.662491  0  2.507072  0
H  H6  1  0.86504455  0.45401380  0.31613655  1  0.089881  0  0.119036  0.12392  0  0.972731  0
H  H7  1  0.86819089  0.95789360  0.80555251  1  0.090689  0  0.11301  0.122915  0  0.980549  0
H  H8  1  0.51415999  0.62265686  0.77250132  1  0.062774  0  0.113177  0.118783  0  0.981199  0
H  H9  1  0.51379822  0.65779763  0.68355549  1  0.106355  0  0.117853  0.123849  0  0.970864  0
H  H10  1  0.87936490  0.48241172  0.22660405  1  0.114421  0  0.115827  0.118633  0  0.981618  0
H  H11  1  0.49099398  0.21858270  0.19622361  1  0.085261  0  0.120141  0.125663  0  0.969943  0
H  H12  1  0.01241344  0.68016970  0.68311841  1  0.092447  0  0.115419  0.120119  0  0.975469  0
H  H13  1  0.97235089  0.64479169  0.77123079  1  0.071202  0  0.111015  0.113847  0  0.987721  0
H  H14  1  0.30734559  0.99014971  0.82361734  1  0.084616  0  0.114559  0.119376  0  0.978681  0
H  H15  1  0.34743087  0.02547436  0.73546567  1  0.096663  0  0.110455  0.112027  0  0.991577  0
H  H16  1  0.47670318  0.19013217  0.28574696  1  0.097554  0  0.116813  0.120207  0  0.978303  0
H  H17  1  0.05192744  0.13680295  0.63693961  1  0.024244  0  0.088792  0.118225  0  0.993783  0
H  H18  1  0.14582408  0.17498245  0.69312433  1  0.014541  0  0.081101  0.103858  0  1.007036  0
H  H19  1  0.14841067  0.07167388  0.64156091  1  0.041205  0  0.083728  0.113218  0  1.026391  0
H  H20  1  0.02201845  0.94897490  0.70682659  1  0.008398  0  0.079718  0.065767  0  1.016354  0
H  H21  1  0.92963549  0.91318896  0.65101009  1  0.031117  0  0.086781  0.075663  0  0.990386  0
H  H22  1  0.86514791  0.06680157  0.68796455  1  0.037694  0  0.096495  0.098116  0  0.983992  0
H  H23  1  0.95269490  0.09510056  0.74476536  1  0.036238  0  0.09538  0.095601  0  0.97409  0
H  H24  1  0.29864233  0.60714230  0.44607533  1  0.577592  0  0.297458  0.388471  0  0.914579  0
H  H25  1  0.03744501  0.04538169  0.00550786  1  0.560746  0  0.296943  0.387598  0  0.915653  0
C  C26  1  0.61445532  0.89584159  0.41767244  1  1.664502  0  0.276284  0.694175  0  4.186242  0
C  C27  1  0.57239591  0.26974232  0.22261750  1  0.036705  0  -0.067632  -0.108774  0  3.933846  0
C  C28  1  0.56444984  0.25399540  0.27256762  1  -0.040841  0  -0.067053  -0.106457  0  3.932305  0
C  C29  1  0.66996800  0.32022998  0.30686842  1  0.100994  0  0.010016  0.120917  0  4.09739  0
C  C30  1  0.68615132  0.35219932  0.20545369  1  0.054996  0  0.01196  0.122502  0  4.095698  0
C  C31  1  0.69504134  0.37063857  0.15473556  1  -0.446189  0  0.004597  0.012123  0  4.032713  0
C  C32  1  0.66094528  0.30105385  0.35748972  1  -0.406706  0  0.006827  0.015922  0  4.030059  0
C  C33  1  0.70451081  0.38954238  0.11140145  1  0.210504  0  -0.031792  -0.19947  0  3.924128  0
C  C34  1  0.10085665  0.77496972  0.13622597  1  0.191124  0  0.009187  -0.121918  0  3.812126  0
C  C35  1  0.12864145  0.79249556  0.18134130  1  -0.354793  0  -0.004332  0.027398  0  4.250829  0
C  C36  1  0.15603182  0.81275303  0.23088594  1  -0.088146  0  0.002413  8.3e-05  0  4.191483  0
C  C37  1  0.62448226  0.22961107  0.44633563  1  1.609051  0  0.287767  0.72622  0  4.142239  0
C  C38  1  0.17839421  0.83289475  0.27677856  1  0.180827  0  5.7e-05  -0.006103  0  4.19289  0
C  C39  1  0.20540551  0.85582045  0.32643372  1  -0.285458  0  -0.004957  0.030048  0  4.255215  0
C  C40  1  0.23223733  0.87780116  0.37179366  1  0.169526  0  0.00342  -0.130778  0  3.818295  0
C  C41  1  0.66835459  0.77362215  0.13109007  1  0.142041  0  0.007548  -0.127755  0  3.811773  0
C  C42  1  0.65934118  0.79310221  0.17619088  1  -0.337955  0  0.001329  0.037216  0  4.239303  0
C  C43  1  0.65242341  0.81396831  0.22568933  1  -0.10908  0  0.006329  0.002351  0  4.181652  0
C  C44  1  0.64939407  0.83276359  0.27153663  1  0.293435  0  0.003634  0.000231  0  4.184301  0
C  C45  1  0.64430274  0.85305010  0.32120550  1  -0.129066  0  -0.00304  0.032826  0  4.24923  0
C  C46  1  0.63799490  0.87183804  0.36656995  1  -0.023111  0  0.003823  -0.131411  0  3.820811  0
C  C47  1  0.69254931  0.36875660  0.87441671  1  -0.277009  0  0.009411  -0.125453  0  3.799415  0
C  C48  1  0.28424244  0.90344924  0.42236857  1  1.692201  0  0.277807  0.694041  0  4.185659  0
C  C49  1  0.68159540  0.34547055  0.82844161  1  0.230468  0  0.00228  0.037089  0  4.23222  0
C  C50  1  0.67101324  0.32327369  0.77816685  1  0.068299  0  0.00559  0.000898  0  4.172422  0
C  C51  1  0.66273781  0.30626378  0.73187752  1  -0.140751  0  0.00595  0.001566  0  4.172329  0
C  C52  1  0.65235778  0.28517145  0.68159274  1  0.038002  0  0.000464  0.033781  0  4.235118  0
C  C53  1  0.64181985  0.26387613  0.63559732  1  -0.054706  0  0.009134  -0.124478  0  3.801002  0
C  C54  1  0.23602006  0.88821557  0.61071660  1  0.291707  0  -0.027857  -0.188603  0  3.920696  0
C  C55  1  0.07661243  0.74743432  0.71403211  1  -0.026311  0  -0.072197  -0.116805  0  3.956543  0
C  C56  1  0.05436838  0.72776354  0.76313432  1  0.010552  0  -0.074575  -0.115812  0  3.954768  0
C  C57  1  0.24327649  0.92279921  0.79268777  1  -0.041697  0  -0.074651  -0.116986  0  3.95361  0
C  C58  1  0.26552783  0.94244464  0.74357474  1  0.005695  0  -0.074265  -0.115125  0  3.954219  0
C  C59  1  0.63442528  0.89501024  0.55811640  1  1.658197  0  0.279695  0.706519  0  4.16892  0
C  C60  1  0.18298245  0.85461994  0.70350773  1  0.055171  0  0.007259  0.122643  0  4.111055  0
C  C61  1  0.13787518  0.81466100  0.80319767  1  0.099078  0  0.004867  0.121754  0  4.114106  0
C  C62  1  0.11565651  0.79385733  0.85323884  1  -0.423059  0  -0.00989  -0.011566  0  4.065236  0
C  C63  1  0.20922813  0.87284937  0.65348261  1  -0.552969  0  -0.003558  -0.004423  0  4.049877  0
C  C64  1  0.09564732  0.77557583  0.89628060  1  0.182878  0  -0.033961  -0.192322  0  3.933458  0
C  C65  1  0.66957891  0.86854542  0.60334917  1  0.10848  0  -0.032238  -0.197073  0  3.930215  0
C  C66  1  0.79273720  0.91391580  0.72906666  1  0.033543  0  0.010258  0.102216  0  3.927695  0
C  C67  1  0.79123531  0.89260310  0.77837631  1  -0.050732  0  -0.074584  -0.175587  0  3.899924  0
C  C68  1  0.59104710  0.70281905  0.75994133  1  -0.006122  0  -0.078241  -0.127747  0  3.970227  0
C  C69  1  0.59104603  0.72214049  0.71068495  1  0.023834  0  -0.071975  -0.104784  0  3.964181  0
C  C70  1  0.61790788  0.21638570  0.58275001  1  1.675477  0  0.284392  0.700308  0  4.175296  0
C  C71  1  0.69018854  0.82750492  0.69488736  1  0.055018  0  0.005658  0.063403  0  4.070812  0
C  C72  1  0.69106910  0.78902044  0.79459856  1  0.077835  0  0.004146  0.131036  0  4.128598  0
C  C73  1  0.69183175  0.77321247  0.84538366  1  -0.480031  0  -0.013602  -0.01747  0  4.073861  0
C  C74  1  0.68224221  0.84912408  0.64539958  1  -0.385093  0  -0.006277  -0.000189  0  4.083671  0
C  C75  1  0.69555652  0.76217581  0.88940032  1  0.206654  0  -0.038633  -0.198964  0  3.948852  0
C  C76  1  0.04814389  0.75486831  0.08619725  1  1.668897  0  0.280273  0.68844  0  4.187287  0
C  C77  1  0.72780742  0.43498880  0.06446351  1  1.639464  0  0.285846  0.726515  0  4.142204  0
C  C78  1  0.69910723  0.74906419  0.08134186  1  1.715181  0  0.283343  0.690036  0  4.185891  0
C  C79  1  0.05104890  0.75139097  0.94472099  1  1.639097  0  0.278829  0.715717  0  4.158239  0
C  C80  1  0.71708185  0.42240086  0.92661979  1  1.666276  0  0.28724  0.701135  0  4.173414  0
C  C81  1  0.28854737  0.90675783  0.56329458  1  1.666233  0  0.282015  0.708534  0  4.166069  0
C  C82  1  0.71880378  0.74773350  0.93933496  1  1.670056  0  0.27588  0.715323  0  4.156876  0
C  C83  1  0.65056551  0.28062308  0.40063354  1  0.201812  0  -0.032331  -0.202383  0  3.923496  0
C  C84  1  0.78367441  0.40281091  0.28972595  1  0.001575  0  -0.06777  -0.109394  0  3.935802  0
C  C85  1  0.79162285  0.41849691  0.23976908  1  -0.024597  0  -0.067259  -0.104547  0  3.931076  0
C  C86  1  0.89964194  0.02412363  0.71197854  1  -0.024593  0  -0.158746  -0.204885  0  3.971838  0
C  C87  1  0.98465822  0.98826039  0.68238746  1  0.010444  0  -0.166304  -0.087752  0  3.960004  0
C  C88  1  0.08862128  0.09905382  0.66239824  1  -0.069435  0  -0.246647  -0.353172  0  3.97486  0
O  O89  1  0.30178871  0.82096848  0.43673101  1  -1.206277  0  -0.204594  -0.554387  0  2.296404  0
O  O90  1  0.69501432  0.19002936  0.56229800  1  -1.229559  0  -0.217957  -0.570081  0  2.249383  0
O  O91  1  0.51836209  0.19889522  0.56162001  1  -1.232519  0  -0.219419  -0.57322  0  2.24719  0
O  O92  1  0.30726566  0.00581640  0.54593295  1  -1.25258  0  -0.242059  -0.608826  0  2.23291  0
O  O93  1  0.50221433  0.99167931  0.49745268  1  -1.61097  0  -0.390873  -1.275685  0  2.296247  0
O  O94  1  0.80100990  0.82986908  0.06880899  1  -1.208627  0  -0.190725  -0.520253  0  2.285233  0
O  O95  1  0.01244173  0.82915305  0.07744750  1  -1.191145  0  -0.192439  -0.521717  0  2.288755  0
O  O96  1  0.03799196  0.66092198  0.05555093  1  -1.249347  0  -0.238052  -0.599917  0  2.236898  0
O  O97  1  0.83164039  0.46071422  0.04751578  1  -1.24197  0  -0.227623  -0.591981  0  2.242314  0
O  O98  1  0.64691756  0.45244603  0.04396234  1  -1.234065  0  -0.226438  -0.590615  0  2.245296  0
O  O99  1  0.62168695  0.64337708  0.05467887  1  -1.254198  0  -0.2357  -0.594442  0  2.231148  0
O  O100  1  0.51307826  0.81674645  0.43149839  1  -1.205791  0  -0.205391  -0.553866  0  2.293918  0
O  O101  1  0.82134419  0.82913730  0.96214863  1  -1.223351  0  -0.210922  -0.567028  0  2.29837  0
O  O102  1  0.03742988  0.83399995  0.97160206  1  -1.220407  0  -0.209698  -0.566083  0  2.286084  0
O  O103  1  0.02311479  0.64332410  0.95581370  1  -1.248185  0  -0.241658  -0.602822  0  2.224035  0
O  O104  1  0.81808710  0.44613479  0.94849579  1  -1.230556  0  -0.216723  -0.568161  0  2.249607  0
O  O105  1  0.63803237  0.44798809  0.94580727  1  -1.227831  0  -0.218845  -0.571303  0  2.245176  0
O  O106  1  0.63548594  0.65059889  0.95634309  1  -1.264279  0  -0.246241  -0.612893  0  2.228817  0
O  O107  1  0.83478967  0.66048346  0.00831374  1  -1.608337  0  -0.391365  -1.275955  0  2.297915  0
O  O108  1  0.69724161  0.99851613  0.44420350  1  -1.255762  0  -0.23663  -0.595508  0  2.240576  0
O  O109  1  0.70228715  0.20527744  0.46528377  1  -1.244565  0  -0.225668  -0.587649  0  2.23778  0
O  O110  1  0.52170574  0.20556894  0.46376745  1  -1.242694  0  -0.224613  -0.587929  0  2.246266  0
O  O111  1  0.31294809  0.01068937  0.44776034  1  -1.248187  0  -0.235437  -0.590938  0  2.232028  0
O  O112  1  0.31616850  0.82733537  0.54353664  1  -1.20899  0  -0.196759  -0.53066  0  2.284967  0
O  O113  1  0.52696584  0.81983287  0.53829009  1  -1.222337  0  -0.199016  -0.53818  0  2.293038  0
O  O114  1  0.71387296  0.99647898  0.54223905  1  -1.255002  0  -0.244326  -0.609952  0  2.22433  0
O  O115  1  0.32738355  0.64960822  0.48012796  1  -1.352995  0  -0.572094  -0.987247  0  1.790327  0
O  O116  1  0.00015007  0.00266038  0.03335157  1  -1.334907  0  -0.569791  -0.984928  0  1.789931  0
