# generated using pymatgen
data_CuH11C8BrN
_symmetry_space_group_name_H-M   'P 1'
_cell_length_a   3.94828497
_cell_length_b   14.24144335
_cell_length_c   15.69874443
_cell_angle_alpha   90.00054677
_cell_angle_beta   90.00104408
_cell_angle_gamma   90.00043583
_symmetry_Int_Tables_number   1
_chemical_formula_structural   CuH11C8BrN
_chemical_formula_sum   'Cu4 H44 C32 Br4 N4'
_cell_volume   882.72904360
_cell_formula_units_Z   4
loop_
 _symmetry_equiv_pos_site_id
 _symmetry_equiv_pos_as_xyz
  1  'x, y, z'
loop_
 _atom_site_type_symbol
 _atom_site_label
 _atom_site_symmetry_multiplicity
 _atom_site_fract_x
 _atom_site_fract_y
 _atom_site_fract_z
 _atom_site_occupancy
 _atom_site_hle17_bader_spin_density
 _atom_site_hle17_ddec_charge
 _atom_site_hle17_ddec_spin_density
 _atom_site_hle17_ddec_sum_bond_order
 _atom_site_hle17_magmom
 _atom_site_hse06_10hf_bader_spin_density
 _atom_site_hse06_10hf_ddec_charge
 _atom_site_hse06_10hf_ddec_spin_density
 _atom_site_hse06_10hf_ddec_sum_bond_order
 _atom_site_hse06_10hf_magmom
 _atom_site_hse06_bader_spin_density
 _atom_site_hse06_ddec_charge
 _atom_site_hse06_ddec_spin_density
 _atom_site_hse06_ddec_sum_bond_order
 _atom_site_hse06_magmom
 _atom_site_pbe_bader_spin_density
 _atom_site_pbe_cm5_charge
 _atom_site_pbe_ddec_charge
 _atom_site_pbe_ddec_spin_density
 _atom_site_pbe_ddec_sum_bond_order
 _atom_site_pbe_magmom
Cu  Cu0  1  0.76445864  0.55576064  0.01892368  1  0  0.414782  0  1.803549  0  0  0.305844  0  2.279979  0  0  0.322229  0  2.227901  0  0  0.335193  0.296131  0  2.314952  0
Cu  Cu1  1  0.76430309  0.05575332  0.48107372  1  0  0.414657  0  1.803547  0  0  0.305644  0  2.279855  0  0  0.322067  0  2.227783  0  0  0.335155  0.295931  0  2.314791  0
Cu  Cu2  1  0.23564324  0.55576474  0.51891905  1  0  0.414709  0  1.80354  0  0  0.305729  0  2.279886  0  0  0.322128  0  2.227838  0  0  0.335162  0.296025  0  2.314859  0
Cu  Cu3  1  0.23556621  0.05575812  0.98107737  1  0  0.414687  0  1.803754  0  0  0.305704  0  2.280162  0  0  0.32211  0  2.228095  0  0  0.335144  0.295981  0  2.31508  0
H  H4  1  0.83600585  0.46619558  0.87580090  1  0  0.109002  0  0.969417  0  0  0.128142  0  1.039196  0  0  0.131139  0  1.035762  0  0  0.087088  0.125898  0  1.041649  0
H  H5  1  0.83593290  0.96618995  0.62420719  1  0  0.108967  0  0.969629  0  0  0.128076  0  1.039385  0  0  0.131062  0  1.035958  0  0  0.087127  0.125839  0  1.041824  0
H  H6  1  0.16404926  0.46619224  0.37579875  1  0  0.109018  0  0.969562  0  0  0.128145  0  1.039301  0  0  0.13113  0  1.035882  0  0  0.087149  0.125907  0  1.041748  0
H  H7  1  0.16398898  0.96619222  0.12419739  1  0  0.109037  0  0.969438  0  0  0.128186  0  1.039187  0  0  0.131176  0  1.035767  0  0  0.087116  0.12594  0  1.041633  0
H  H8  1  0.61595243  0.45784384  0.77605158  1  0  0.126351  0  0.95866  0  0  0.146503  0  1.018031  0  0  0.148602  0  1.017848  0  0  0.088638  0.144993  0  1.018162  0
H  H9  1  0.61588363  0.95783362  0.72395790  1  0  0.126416  0  0.958718  0  0  0.146628  0  1.017976  0  0  0.148717  0  1.017798  0  0  0.088716  0.145118  0  1.018109  0
H  H10  1  0.38411605  0.45782905  0.27604924  1  0  0.126318  0  0.958803  0  0  0.146492  0  1.018121  0  0  0.148578  0  1.017949  0  0  0.088668  0.144983  0  1.01825  0
H  H11  1  0.38404218  0.95783920  0.22395428  1  0  0.126419  0  0.958611  0  0  0.146541  0  1.018003  0  0  0.148656  0  1.017801  0  0  0.088633  0.145031  0  1.018132  0
H  H12  1  0.40559314  0.43132994  0.87372946  1  0  0.109027  0  0.968282  0  0  0.133312  0  1.028411  0  0  0.134549  0  1.02786  0  0  0.091866  0.132292  0  1.028944  0
H  H13  1  0.40550007  0.93132292  0.62627684  1  0  0.109213  0  0.968016  0  0  0.133443  0  1.02817  0  0  0.134677  0  1.027617  0  0  0.091927  0.132427  0  1.028695  0
H  H14  1  0.59447614  0.43132546  0.37373325  1  0  0.109118  0  0.968159  0  0  0.133386  0  1.028258  0  0  0.134623  0  1.0277  0  0  0.09191  0.132371  0  1.028785  0
H  H15  1  0.59443626  0.93132827  0.12627426  1  0  0.109092  0  0.968178  0  0  0.133369  0  1.028304  0  0  0.134607  0  1.027752  0  0  0.091891  0.13235  0  1.028823  0
H  H16  1  0.24096940  0.58330588  0.72925575  1  0  0.111313  0  0.973047  0  0  0.118309  0  1.041174  0  0  0.121966  0  1.040375  0  0  0.091761  0.11552  0  1.04222  0
H  H17  1  0.24094920  0.08331534  0.77074540  1  0  0.111423  0  0.973158  0  0  0.118435  0  1.041215  0  0  0.122092  0  1.040412  0  0  0.091794  0.115647  0  1.042263  0
H  H18  1  0.75907129  0.58330177  0.22925844  1  0  0.111407  0  0.973237  0  0  0.118372  0  1.041343  0  0  0.122031  0  1.040532  0  0  0.09179  0.115585  0  1.042387  0
H  H19  1  0.75899284  0.08331123  0.27074873  1  0  0.111289  0  0.973057  0  0  0.118327  0  1.041141  0  0  0.121983  0  1.04034  0  0  0.091746  0.115533  0  1.042192  0
H  H20  1  0.88385378  0.71352983  0.68488875  1  0  0.106898  0  0.970021  0  0  0.125549  0  1.037427  0  0  0.127209  0  1.037121  0  0  0.086995  0.124271  0  1.037685  0
H  H21  1  0.88385428  0.21353764  0.81512436  1  0  0.10686  0  0.969939  0  0  0.125541  0  1.037347  0  0  0.127202  0  1.03704  0  0  0.086993  0.124263  0  1.03761  0
H  H22  1  0.11615688  0.71351936  0.18487235  1  0  0.106983  0  0.970021  0  0  0.125679  0  1.037373  0  0  0.12734  0  1.037067  0  0  0.08706  0.124395  0  1.037631  0
H  H23  1  0.11613712  0.21352506  0.31512515  1  0  0.106837  0  0.969901  0  0  0.125483  0  1.037357  0  0  0.127144  0  1.037051  0  0  0.086979  0.124206  0  1.037619  0
H  H24  1  0.17332133  0.80890562  0.68948843  1  0  0.109115  0  0.957839  0  0  0.136576  0  1.011519  0  0  0.13715  0  1.01262  0  0  0.092878  0.135986  0  1.010902  0
H  H25  1  0.17333165  0.30891339  0.81051374  1  0  0.109068  0  0.957954  0  0  0.136532  0  1.011612  0  0  0.137115  0  1.012703  0  0  0.092827  0.135944  0  1.010996  0
H  H26  1  0.82672754  0.80890237  0.18947489  1  0  0.109119  0  0.957759  0  0  0.136596  0  1.011443  0  0  0.137165  0  1.012553  0  0  0.092864  0.135999  0  1.010831  0
H  H27  1  0.82666694  0.30890592  0.31051995  1  0  0.109017  0  0.957941  0  0  0.136525  0  1.011576  0  0  0.137095  0  1.012684  0  0  0.092838  0.135932  0  1.010967  0
H  H28  1  0.80978470  0.81026258  0.75519080  1  0  0.112592  0  0.967526  0  0  0.133378  0  1.029132  0  0  0.134858  0  1.029725  0  0  0.090675  0.132247  0  1.028782  0
H  H29  1  0.80979062  0.31027037  0.74481324  1  0  0.112585  0  0.967527  0  0  0.133353  0  1.029161  0  0  0.134831  0  1.029756  0  0  0.090685  0.132227  0  1.028816  0
H  H30  1  0.19025847  0.81024666  0.25517476  1  0  0.112459  0  0.967686  0  0  0.133368  0  1.029151  0  0  0.134852  0  1.029736  0  0  0.090683  0.132239  0  1.028798  0
H  H31  1  0.19019601  0.31026427  0.24481695  1  0  0.112527  0  0.967519  0  0  0.133358  0  1.029112  0  0  0.134839  0  1.029701  0  0  0.090677  0.132228  0  1.02876  0
H  H32  1  0.21300864  0.83430367  0.88257096  1  0  0.113544  0  0.970981  0  0  0.121892  0  1.036921  0  0  0.125278  0  1.036604  0  0  0.091673  0.119295  0  1.037616  0
H  H33  1  0.21302883  0.33430593  0.61743672  1  0  0.113499  0  0.97101  0  0  0.121839  0  1.036966  0  0  0.125234  0  1.036638  0  0  0.09162  0.11924  0  1.037676  0
H  H34  1  0.78700315  0.83430454  0.38254831  1  0  0.113526  0  0.970992  0  0  0.121852  0  1.036964  0  0  0.125246  0  1.036636  0  0  0.091627  0.119253  0  1.037674  0
H  H35  1  0.78696508  0.33430890  0.11743764  1  0  0.113463  0  0.971063  0  0  0.121859  0  1.036949  0  0  0.125255  0  1.036623  0  0  0.09164  0.11926  0  1.037661  0
H  H36  1  0.44723874  0.72560499  0.07065708  1  0  0.109636  0  0.968441  0  0  0.129346  0  1.036445  0  0  0.131751  0  1.034085  0  0  0.088221  0.127506  0  1.038234  0
H  H37  1  0.44721649  0.22559362  0.42935108  1  0  0.109629  0  0.968391  0  0  0.129352  0  1.036382  0  0  0.131769  0  1.03401  0  0  0.088207  0.127512  0  1.038176  0
H  H38  1  0.55281270  0.72561753  0.57064255  1  0  0.109604  0  0.968426  0  0  0.129278  0  1.036484  0  0  0.131688  0  1.034119  0  0  0.088145  0.127437  0  1.038279  0
H  H39  1  0.55274740  0.22560265  0.92934993  1  0  0.109672  0  0.968401  0  0  0.129374  0  1.03642  0  0  0.131786  0  1.03405  0  0  0.088213  0.127533  0  1.038215  0
H  H40  1  0.84319184  0.75670950  0.02593423  1  0  0.118601  0  0.957341  0  0  0.140935  0  1.020355  0  0  0.142368  0  1.019827  0  0  0.092646  0.13985  0  1.020718  0
H  H41  1  0.84317512  0.25669297  0.47407169  1  0  0.118585  0  0.957232  0  0  0.14093  0  1.020226  0  0  0.142348  0  1.019736  0  0  0.092578  0.139851  0  1.020581  0
H  H42  1  0.15685234  0.75670991  0.52591902  1  0  0.118564  0  0.957367  0  0  0.140906  0  1.020358  0  0  0.14233  0  1.019858  0  0  0.092632  0.139822  0  1.02072  0
H  H43  1  0.15680017  0.25669760  0.97407113  1  0  0.118573  0  0.957343  0  0  0.140952  0  1.020293  0  0  0.142374  0  1.019795  0  0  0.092652  0.139874  0  1.020645  0
H  H44  1  0.49386108  0.83540473  0.01587049  1  0  0.115572  0  0.971308  0  0  0.134024  0  1.036809  0  0  0.136113  0  1.035657  0  0  0.086772  0.132432  0  1.037729  0
H  H45  1  0.49385264  0.33539673  0.48412676  1  0  0.115634  0  0.971214  0  0  0.13407  0  1.036751  0  0  0.136168  0  1.035587  0  0  0.086797  0.132479  0  1.037678  0
H  H46  1  0.50618443  0.83541084  0.51585446  1  0  0.115343  0  0.971519  0  0  0.133821  0  1.037043  0  0  0.135912  0  1.035887  0  0  0.086679  0.132229  0  1.037968  0
H  H47  1  0.50611014  0.33539933  0.98412856  1  0  0.115617  0  0.97121  0  0  0.134083  0  1.036731  0  0  0.136159  0  1.035591  0  0  0.086777  0.132492  0  1.03766  0
C  C48  1  0.48573540  0.57804678  0.85142406  1  0  0.315106  0  3.732759  0  0  0.322273  0  3.974113  0  0  0.333476  0  3.992792  0  0  0.111905  0.314665  0  3.961659  0
C  C49  1  0.48569941  0.07802970  0.64858143  1  0  0.315646  0  3.732237  0  0  0.322421  0  3.974091  0  0  0.333648  0  3.992749  0  0  0.112054  0.31483  0  3.961622  0
C  C50  1  0.51430068  0.57802878  0.35142363  1  0  0.315666  0  3.732093  0  0  0.322569  0  3.97383  0  0  0.333807  0  3.99246  0  0  0.112121  0.314976  0  3.961362  0
C  C51  1  0.51422924  0.07804259  0.14858292  1  0  0.31516  0  3.732869  0  0  0.322265  0  3.974298  0  0  0.333451  0  3.993004  0  0  0.111942  0.314705  0  3.961769  0
C  C52  1  0.59271953  0.47777402  0.84330667  1  0  -0.376381  0  3.712789  0  0  -0.459706  0  3.944576  0  0  -0.462976  0  3.95016  0  0  -0.243045  -0.457094  0  3.940833  0
C  C53  1  0.59264623  0.97776030  0.65670159  1  0  -0.376704  0  3.713004  0  0  -0.45992  0  3.944993  0  0  -0.463172  0  3.95058  0  0  -0.243223  -0.457322  0  3.941234  0
C  C54  1  0.40733876  0.47776069  0.34330508  1  0  -0.376548  0  3.713078  0  0  -0.459803  0  3.945035  0  0  -0.46306  0  3.950616  0  0  -0.243157  -0.457204  0  3.941279  0
C  C55  1  0.40728066  0.97777014  0.15669682  1  0  -0.376582  0  3.712952  0  0  -0.459867  0  3.944787  0  0  -0.463142  0  3.95036  0  0  -0.243097  -0.457274  0  3.941012  0
C  C56  1  0.30302409  0.62233108  0.78697279  1  0  -0.22935  0  3.651015  0  0  -0.250464  0  3.884995  0  0  -0.261431  0  3.906038  0  0  -0.094763  -0.243537  0  3.871428  0
C  C57  1  0.30298990  0.12233784  0.71303920  1  0  -0.229686  0  3.651216  0  0  -0.250632  0  3.885311  0  0  -0.261603  0  3.906345  0  0  -0.094826  -0.243704  0  3.871734  0
C  C58  1  0.69701387  0.62232683  0.28696053  1  0  -0.229683  0  3.650876  0  0  -0.250704  0  3.884995  0  0  -0.261677  0  3.906029  0  0  -0.094872  -0.243778  0  3.871413  0
C  C59  1  0.69695687  0.12233008  0.21303458  1  0  -0.229265  0  3.65121  0  0  -0.250421  0  3.885067  0  0  -0.261383  0  3.906114  0  0  -0.094726  -0.243502  0  3.871478  0
C  C60  1  0.19862331  0.71541568  0.79639217  1  0  0.216878  0  3.746307  0  0  0.239328  0  3.982088  0  0  0.247922  0  4.002159  0  0  0.008498  0.233575  0  3.968486  0
C  C61  1  0.19863407  0.21541391  0.70361312  1  0  0.216952  0  3.746376  0  0  0.23932  0  3.982244  0  0  0.247905  0  4.002323  0  0  0.008489  0.233572  0  3.96864  0
C  C62  1  0.80139993  0.71540815  0.29638233  1  0  0.21684  0  3.745962  0  0  0.23928  0  3.981808  0  0  0.247862  0  4.00189  0  0  0.008403  0.233535  0  3.968195  0
C  C63  1  0.80134231  0.21541692  0.20361602  1  0  0.216696  0  3.746252  0  0  0.239324  0  3.981825  0  0  0.247922  0  4.001889  0  0  0.008509  0.23357  0  3.968221  0
C  C64  1  0.00406628  0.76439609  0.72772527  1  0  -0.341641  0  3.699396  0  0  -0.420516  0  3.923257  0  0  -0.424037  0  3.931714  0  0  -0.239294  -0.417695  0  3.917453  0
C  C65  1  0.00406137  0.26440136  0.77228204  1  0  -0.341593  0  3.699254  0  0  -0.420469  0  3.923166  0  0  -0.423997  0  3.931619  0  0  -0.239264  -0.417652  0  3.917365  0
C  C66  1  0.99596375  0.76438479  0.22770938  1  0  -0.341583  0  3.699259  0  0  -0.420625  0  3.923109  0  0  -0.424147  0  3.931575  0  0  -0.239333  -0.417795  0  3.917297  0
C  C67  1  0.99592339  0.26439357  0.27228463  1  0  -0.341341  0  3.699346  0  0  -0.420377  0  3.9232  0  0  -0.423897  0  3.931662  0  0  -0.239228  -0.417553  0  3.917393  0
C  C68  1  0.28764989  0.76148032  0.87187379  1  0  -0.233721  0  3.657891  0  0  -0.257026  0  3.896244  0  0  -0.267539  0  3.916858  0  0  -0.095768  -0.250393  0  3.882956  0
C  C69  1  0.28762773  0.26148339  0.62813490  1  0  -0.233453  0  3.657288  0  0  -0.256722  0  3.895687  0  0  -0.267234  0  3.91629  0  0  -0.095623  -0.250094  0  3.8824  0
C  C70  1  0.71238465  0.76148172  0.37185395  1  0  -0.233381  0  3.657347  0  0  -0.256707  0  3.895701  0  0  -0.267219  0  3.916308  0  0  -0.095589  -0.250082  0  3.882412  0
C  C71  1  0.71234477  0.26148058  0.12812717  1  0  -0.233533  0  3.657714  0  0  -0.256969  0  3.895988  0  0  -0.267487  0  3.916593  0  0  -0.095738  -0.250342  0  3.882704  0
C  C72  1  0.47068022  0.71455653  0.93454974  1  0  0.31226  0  3.735655  0  0  0.317339  0  3.982207  0  0  0.328081  0  4.000823  0  0  0.109615  0.310051  0  3.969771  0
C  C73  1  0.47066653  0.21454070  0.56545369  1  0  0.311709  0  3.73603  0  0  0.316773  0  3.982606  0  0  0.327515  0  4.001232  0  0  0.10942  0.309498  0  3.970173  0
C  C74  1  0.52934972  0.71454699  0.43453856  1  0  0.311551  0  3.736119  0  0  0.316747  0  3.982515  0  0  0.327488  0  4.001131  0  0  0.1094  0.309471  0  3.970084  0
C  C75  1  0.52931830  0.21454941  0.06545589  1  0  0.311951  0  3.736079  0  0  0.317136  0  3.982539  0  0  0.327877  0  4.001154  0  0  0.109538  0.309844  0  3.970104  0
C  C76  1  0.56781884  0.76122834  0.01629204  1  0  -0.384686  0  3.726075  0  0  -0.467413  0  3.959546  0  0  -0.470018  0  3.964916  0  0  -0.247748  -0.465277  0  3.955904  0
C  C77  1  0.56780784  0.26121964  0.48371576  1  0  -0.384625  0  3.726054  0  0  -0.467334  0  3.959487  0  0  -0.469965  0  3.964847  0  0  -0.247674  -0.465197  0  3.955847  0
C  C78  1  0.43222227  0.76123358  0.51627436  1  0  -0.384218  0  3.72631  0  0  -0.466953  0  3.959656  0  0  -0.469576  0  3.965036  0  0  -0.247513  -0.464808  0  3.956014  0
C  C79  1  0.43215808  0.26122348  0.98371209  1  0  -0.384677  0  3.725988  0  0  -0.467497  0  3.959436  0  0  -0.470101  0  3.964803  0  0  -0.247769  -0.465361  0  3.955807  0
Br  Br80  1  0.21836267  0.50136144  0.09627732  1  0  -0.52438  0  1.356157  0  0  -0.439458  0  1.760058  0  0  -0.460358  0  1.719364  0  0  -0.255853  -0.424367  0  1.788393  0
Br  Br81  1  0.21819941  0.00138422  0.40368952  1  0  -0.524318  0  1.356013  0  0  -0.43938  0  1.759867  0  0  -0.460291  0  1.7192  0  0  -0.255852  -0.424284  0  1.788166  0
Br  Br82  1  0.78172528  0.50138292  0.59628621  1  0  -0.524368  0  1.356069  0  0  -0.439436  0  1.759935  0  0  -0.460339  0  1.719265  0  0  -0.255849  -0.424344  0  1.788263  0
Br  Br83  1  0.78167345  0.00136848  0.90371433  1  0  -0.524338  0  1.356258  0  0  -0.4394  0  1.76015  0  0  -0.460311  0  1.719478  0  0  -0.255822  -0.42431  0  1.788444  0
N  N84  1  0.56696357  0.62349840  0.92457362  1  0  -0.410526  0  3.345553  0  0  -0.338176  0  3.630408  0  0  -0.356336  0  3.638324  0  0  -0.377951  -0.326358  0  3.624708  0
N  N85  1  0.56686950  0.12348689  0.57543395  1  0  -0.410425  0  3.345882  0  0  -0.337861  0  3.630716  0  0  -0.356047  0  3.638663  0  0  -0.377874  -0.326077  0  3.625029  0
N  N86  1  0.43311910  0.62349075  0.42456515  1  0  -0.410481  0  3.345826  0  0  -0.338014  0  3.6306  0  0  -0.356185  0  3.638516  0  0  -0.377989  -0.326243  0  3.624943  0
N  N87  1  0.43305542  0.12349398  0.07542803  1  0  -0.410298  0  3.345671  0  0  -0.33796  0  3.63049  0  0  -0.356125  0  3.638437  0  0  -0.377957  -0.326147  0  3.62473  0
