# generated using pymatgen
data_Al4H13C36Br2N3O20
_symmetry_space_group_name_H-M   'P 1'
_cell_length_a   6.69376942
_cell_length_b   18.28775973
_cell_length_c   20.70362653
_cell_angle_alpha   107.87422924
_cell_angle_beta   90.31309578
_cell_angle_gamma   89.64725047
_symmetry_Int_Tables_number   1
_chemical_formula_structural   Al4H13C36Br2N3O20
_chemical_formula_sum   'Al4 H13 C36 Br2 N3 O20'
_cell_volume   2412.02224671
_cell_formula_units_Z   1
loop_
 _symmetry_equiv_pos_site_id
 _symmetry_equiv_pos_as_xyz
  1  'x, y, z'
loop_
 _atom_site_type_symbol
 _atom_site_label
 _atom_site_symmetry_multiplicity
 _atom_site_fract_x
 _atom_site_fract_y
 _atom_site_fract_z
 _atom_site_occupancy
 _atom_site_pbe_bader_charge
 _atom_site_pbe_bader_spin_density
 _atom_site_pbe_cm5_charge
 _atom_site_pbe_ddec_charge
 _atom_site_pbe_ddec_spin_density
 _atom_site_pbe_ddec_sum_bond_order
 _atom_site_pbe_magmom
Al  Al0  1  0.13780375  0.49790981  0.50059249  1  2.502594  0  0.406288  1.648758  0  2.576468  0
Al  Al1  1  0.63764795  0.49868567  0.50072520  1  2.501585  0  0.406781  1.650024  0  2.573995  0
Al  Al2  1  0.64222843  0.99844812  0.99989100  1  2.503592  0  0.406047  1.651029  0  2.572699  0
Al  Al3  1  0.14234062  0.99803465  0.99962414  1  2.5026  0  0.405955  1.650276  0  2.571407  0
H  H4  1  0.59905833  0.74338599  0.17374447  1  0.091428  0  0.109585  0.117701  0  0.98592  0
H  H5  1  0.60081000  0.66383962  0.25268331  1  0.107788  0  0.104082  0.117096  0  1.003268  0
H  H6  1  0.68002087  0.26048589  0.83553829  1  0.121173  0  0.109927  0.135076  0  0.989852  0
H  H7  1  0.33758182  0.84243374  0.27513704  1  0.466796  0  0.29967  0.298302  0  0.979867  0
H  H8  1  0.21663495  0.87060924  0.21140574  1  0.468313  0  0.317106  0.321709  0  0.927909  0
H  H9  1  0.01052913  0.12970815  0.70323299  1  0.454263  0  0.311918  0.303905  0  0.937168  0
H  H10  1  0.08697892  0.11866277  0.77841428  1  0.4668  0  0.310413  0.306924  0  0.942731  0
H  H11  1  0.09604772  0.27492376  0.63143819  1  0.457235  0  0.300048  0.299629  0  0.947532  0
H  H12  1  0.95261745  0.23318008  0.67630943  1  0.448777  0  0.294586  0.286413  0  0.972441  0
H  H13  1  0.38467875  0.59414401  0.50119744  1  0.626638  0  0.361311  0.442541  0  0.835108  0
H  H14  1  0.88783750  0.39809037  0.48547110  1  0.621149  0  0.362365  0.443741  0  0.83232  0
H  H15  1  0.39433324  0.89902773  0.99013485  1  0.638314  0  0.362595  0.444954  0  0.831452  0
H  H16  1  0.89203521  0.09930278  0.02263191  1  0.614044  0  0.363347  0.445355  0  0.830337  0
C  C17  1  0.38615194  0.39266385  0.39559378  1  1.685026  0  0.276994  0.704555  0  4.175005  0
C  C18  1  0.39271193  0.42057586  0.57596819  1  1.684142  0  0.274445  0.720646  0  4.160343  0
C  C19  1  0.89058277  0.60319299  0.60532883  1  1.694503  0  0.279039  0.70506  0  4.171734  0
C  C20  1  0.88348268  0.57627225  0.42500856  1  1.67399  0  0.277264  0.722394  0  4.149974  0
C  C21  1  0.06256291  0.79344484  0.24612667  1  0.503671  0  0.110692  0.234719  0  4.095155  0
C  C22  1  0.89121969  0.79074539  0.20369309  1  0.09799  0  -0.012021  0.018957  0  4.083824  0
C  C23  1  0.72692483  0.74409728  0.20675161  1  -0.056018  0  -0.084017  -0.107195  0  4.008974  0
C  C24  1  0.72700295  0.70017181  0.25043358  1  0.016608  0  -0.09895  -0.15273  0  4.008125  0
C  C25  1  0.89207244  0.70295308  0.29417460  1  0.133567  0  -0.005149  0.095983  0  4.138694  0
C  C26  1  0.05590273  0.74992604  0.29182396  1  -0.042513  0  -0.021715  -0.051878  0  3.873905  0
C  C27  1  0.89045195  0.83547895  0.15919376  1  -0.321793  0  -0.025024  -0.019175  0  4.124976  0
C  C28  1  0.88935063  0.65882205  0.33945984  1  -0.469629  0  -0.024055  -0.016591  0  4.104886  0
C  C29  1  0.88464857  0.62032091  0.37812419  1  0.200132  0  -0.034522  -0.188258  0  3.930777  0
C  C30  1  0.89556900  0.87536181  0.12150291  1  0.009  0  -0.040987  -0.207292  0  3.948648  0
C  C31  1  0.89009974  0.83143106  0.83217186  1  0.091816  0  -0.003329  -0.149385  0  3.845994  0
C  C32  1  0.89023940  0.77793846  0.77937879  1  -0.184891  0  -0.003288  0.036158  0  4.231145  0
C  C33  1  0.89025422  0.71882519  0.72112765  1  -0.369283  0  -0.003694  0.031518  0  4.229477  0
C  C34  1  0.89003301  0.66521611  0.66840645  1  0.284054  0  0.000777  -0.139145  0  3.837435  0
C  C35  1  0.38809110  0.33108345  0.33217298  1  0.096691  0  -0.000343  -0.140092  0  3.838531  0
C  C36  1  0.38933647  0.27783485  0.27919776  1  -0.195731  0  -0.006258  0.029329  0  4.231887  0
C  C37  1  0.39080223  0.21898123  0.22075483  1  -0.192774  0  -0.004116  0.035348  0  4.232227  0
C  C38  1  0.39232161  0.16560612  0.16785409  1  0.103328  0  -0.004377  -0.149188  0  3.844665  0
C  C39  1  0.55987374  0.25670908  0.79909298  1  0.049792  0  -0.105455  -0.207312  0  4.035452  0
C  C40  1  0.39825889  0.20615052  0.79674536  1  0.076558  0  -0.012367  0.035472  0  4.116812  0
C  C41  1  0.23866839  0.20021421  0.75028822  1  0.4834  0  0.100765  0.161468  0  4.04409  0
C  C42  1  0.24374575  0.24468002  0.70488777  1  0.454591  0  0.10043  0.173079  0  4.033142  0
C  C43  1  0.40573929  0.29510685  0.70738733  1  0.142111  0  -0.02183  -0.030539  0  4.114471  0
C  C44  1  0.56161183  0.30037444  0.75548758  1  -0.110347  0  -0.028181  0.051888  0  4.023225  0
C  C45  1  0.39581135  0.16076024  0.84080721  1  -0.507585  0  -0.020586  -0.008425  0  4.108861  0
C  C46  1  0.40441448  0.33954613  0.66268291  1  -0.313814  0  -0.027758  -0.00762  0  4.148894  0
C  C47  1  0.39474914  0.37640328  0.62258460  1  0.013335  0  -0.038235  -0.203229  0  3.934056  0
C  C48  1  0.38927260  0.12064117  0.87824133  1  0.203513  0  -0.04106  -0.209641  0  3.945741  0
C  C49  1  0.38655812  0.07591308  0.92446245  1  1.671445  0  0.273054  0.718229  0  4.166969  0
C  C50  1  0.39534551  0.10380295  0.10466431  1  1.690246  0  0.277213  0.706581  0  4.170708  0
C  C51  1  0.89769334  0.91993756  0.07513724  1  1.680111  0  0.270534  0.715241  0  4.170597  0
C  C52  1  0.88832521  0.89330375  0.89526915  1  1.685011  0  0.278303  0.706309  0  4.16951  0
Br  Br53  1  0.27439479  0.75644531  0.35222369  1  -0.044523  0  0.060468  -0.029825  0  1.464426  0
Br  Br54  1  0.77018119  0.37257417  0.76224384  1  -0.059755  0  0.034945  -0.052669  0  1.415924  0
N  N55  1  0.22402346  0.83606542  0.24137809  1  -1.266029  0  -0.580556  -0.595887  0  3.39362  0
N  N56  1  0.07549725  0.15417746  0.74919779  1  -1.254726  0  -0.582604  -0.586832  0  3.329537  0
N  N57  1  0.09189676  0.23581206  0.65746496  1  -1.217605  0  -0.595363  -0.600598  0  3.311716  0
O  O58  1  0.56210445  0.44113885  0.55992012  1  -1.235643  0  -0.227605  -0.582598  0  2.28199  0
O  O59  1  0.21482373  0.41772667  0.41868008  1  -1.226915  0  -0.225274  -0.576  0  2.280193  0
O  O60  1  0.05331810  0.56143026  0.44638623  1  -1.235802  0  -0.228847  -0.5889  0  2.281079  0
O  O61  1  0.22233145  0.43437135  0.55419592  1  -1.238997  0  -0.232163  -0.592297  0  2.283501  0
O  O62  1  0.06111018  0.57712988  0.58231228  1  -1.228368  0  -0.222412  -0.570521  0  2.281217  0
O  O63  1  0.55591204  0.41463629  0.42225925  1  -1.226553  0  -0.225032  -0.578653  0  2.283156  0
O  O64  1  0.38674423  0.54355224  0.50700283  1  -1.424493  0  -0.445285  -0.997506  0  2.194584  0
O  O65  1  0.72061353  0.58176750  0.57868236  1  -1.228584  0  -0.222205  -0.572515  0  2.282399  0
O  O66  1  0.71301301  0.55706409  0.44153595  1  -1.231282  0  -0.22911  -0.587355  0  2.277747  0
O  O67  1  0.88797211  0.45303443  0.49313347  1  -1.419519  0  -0.445819  -1.000369  0  2.204746  0
O  O68  1  0.22657328  0.08313293  0.07648722  1  -1.238113  0  -0.225276  -0.580691  0  2.282197  0
O  O69  1  0.55515942  0.06366397  0.94835641  1  -1.237536  0  -0.231255  -0.590149  0  2.285886  0
O  O70  1  0.71787511  0.92081365  0.91705124  1  -1.230338  0  -0.222243  -0.570504  0  2.278993  0
O  O71  1  0.56652775  0.07680826  0.08307561  1  -1.222463  0  -0.224357  -0.575716  0  2.276975  0
O  O72  1  0.72858207  0.93272093  0.05182827  1  -1.242035  0  -0.232632  -0.592733  0  2.284475  0
O  O73  1  0.21641549  0.05349609  0.93815041  1  -1.232859  0  -0.231811  -0.587382  0  2.27809  0
O  O74  1  0.39299111  0.95293195  0.99318100  1  -1.436936  0  -0.445838  -1.000858  0  2.200871  0
O  O75  1  0.06836899  0.94160964  0.06102786  1  -1.232078  0  -0.234177  -0.591839  0  2.278021  0
O  O76  1  0.05729488  0.91358635  0.92336800  1  -1.229987  0  -0.223697  -0.576288  0  2.283374  0
O  O77  1  0.89195726  0.04366519  0.00753849  1  -1.412207  0  -0.446069  -0.999991  0  2.198442  0
