# generated using pymatgen
data_HgH6C3NCl2
_symmetry_space_group_name_H-M   'P 1'
_cell_length_a   6.26343289
_cell_length_b   6.26345583
_cell_length_c   14.91472296
_cell_angle_alpha   90.00028881
_cell_angle_beta   89.99993054
_cell_angle_gamma   92.63308508
_symmetry_Int_Tables_number   1
_chemical_formula_structural   HgH6C3NCl2
_chemical_formula_sum   'Hg4 H24 C12 N4 Cl8'
_cell_volume   584.49778746
_cell_formula_units_Z   4
loop_
 _symmetry_equiv_pos_site_id
 _symmetry_equiv_pos_as_xyz
  1  'x, y, z'
loop_
 _atom_site_type_symbol
 _atom_site_label
 _atom_site_symmetry_multiplicity
 _atom_site_fract_x
 _atom_site_fract_y
 _atom_site_fract_z
 _atom_site_occupancy
 _atom_site_hle17_bader_spin_density
 _atom_site_hle17_ddec_charge
 _atom_site_hle17_ddec_spin_density
 _atom_site_hle17_ddec_sum_bond_order
 _atom_site_hle17_magmom
 _atom_site_hse06_10hf_bader_spin_density
 _atom_site_hse06_10hf_ddec_charge
 _atom_site_hse06_10hf_ddec_spin_density
 _atom_site_hse06_10hf_ddec_sum_bond_order
 _atom_site_hse06_10hf_magmom
 _atom_site_hse06_bader_spin_density
 _atom_site_hse06_ddec_charge
 _atom_site_hse06_ddec_spin_density
 _atom_site_hse06_ddec_sum_bond_order
 _atom_site_hse06_magmom
 _atom_site_pbe_bader_spin_density
 _atom_site_pbe_cm5_charge
 _atom_site_pbe_ddec_charge
 _atom_site_pbe_ddec_spin_density
 _atom_site_pbe_ddec_sum_bond_order
 _atom_site_pbe_magmom
Hg  Hg0  1  0.73737689  0.73737121  0.51390151  1  0  0.790342  0  1.890268  0  0  0.644794  0  2.351  0  0  0.693943  0  2.317796  0  0  0.525168  0.608236  0  2.377234  0
Hg  Hg1  1  0.26261594  0.26263130  0.01390124  1  0  0.790451  0  1.890173  0  0  0.644892  0  2.350916  0  0  0.694035  0  2.317708  0  0  0.525222  0.608334  0  2.377153  0
Hg  Hg2  1  0.73736991  0.73737410  0.98610070  1  0  0.790386  0  1.890225  0  0  0.644808  0  2.350942  0  0  0.693957  0  2.31774  0  0  0.525135  0.608251  0  2.377176  0
Hg  Hg3  1  0.26263755  0.26263097  0.48610176  1  0  0.790411  0  1.890206  0  0  0.644868  0  2.350938  0  0  0.694007  0  2.317733  0  0  0.525167  0.60831  0  2.377173  0
H  H4  1  0.62031468  0.42563592  0.67051291  1  0  0.086296  0  0.95067  0  0  0.100195  0  1.014307  0  0  0.10062  0  1.015025  0  0  0.097121  0.099927  0  1.013769  0
H  H5  1  0.37967021  0.57437810  0.17051121  1  0  0.086234  0  0.950533  0  0  0.100132  0  1.014195  0  0  0.100551  0  1.014918  0  0  0.097034  0.099859  0  1.013672  0
H  H6  1  0.42564060  0.62031717  0.82948762  1  0  0.086309  0  0.950653  0  0  0.100198  0  1.014306  0  0  0.100614  0  1.015025  0  0  0.09713  0.09993  0  1.013769  0
H  H7  1  0.57438247  0.37967000  0.32948877  1  0  0.086297  0  0.950434  0  0  0.100176  0  1.014097  0  0  0.100596  0  1.014818  0  0  0.097071  0.099902  0  1.013577  0
H  H8  1  0.37968263  0.57437587  0.32949170  1  0  0.086172  0  0.950649  0  0  0.100093  0  1.014264  0  0  0.100511  0  1.014988  0  0  0.097056  0.099824  0  1.01373  0
H  H9  1  0.62032933  0.42561291  0.82949206  1  0  0.086211  0  0.950399  0  0  0.100141  0  1.014022  0  0  0.100559  0  1.014744  0  0  0.097055  0.099867  0  1.013501  0
H  H10  1  0.57437201  0.37968023  0.17050694  1  0  0.086267  0  0.950533  0  0  0.100149  0  1.014214  0  0  0.100568  0  1.014938  0  0  0.097049  0.099879  0  1.013685  0
H  H11  1  0.42561251  0.62032581  0.67050914  1  0  0.086213  0  0.95043  0  0  0.100137  0  1.014065  0  0  0.100561  0  1.014783  0  0  0.097047  0.099863  0  1.013542  0
H  H12  1  0.53132339  0.99398129  0.67154069  1  0  0.082504  0  0.970174  0  0  0.091826  0  1.04125  0  0  0.092946  0  1.040975  0  0  0.090066  0.090929  0  1.041636  0
H  H13  1  0.46866888  0.00601995  0.17153979  1  0  0.082498  0  0.970193  0  0  0.091799  0  1.041266  0  0  0.092919  0  1.040994  0  0  0.090067  0.090904  0  1.041654  0
H  H14  1  0.99399502  0.53133908  0.82846223  1  0  0.082463  0  0.969985  0  0  0.091804  0  1.041068  0  0  0.092928  0  1.040798  0  0  0.090021  0.090908  0  1.041454  0
H  H15  1  0.00601495  0.46867526  0.32846317  1  0  0.082497  0  0.970087  0  0  0.091796  0  1.041197  0  0  0.092914  0  1.040934  0  0  0.090037  0.0909  0  1.041583  0
H  H16  1  0.46868079  0.00600652  0.32845789  1  0  0.08251  0  0.969894  0  0  0.09182  0  1.041023  0  0  0.092945  0  1.040759  0  0  0.090034  0.090925  0  1.041406  0
H  H17  1  0.53130775  0.99399345  0.82846147  1  0  0.082399  0  0.969618  0  0  0.091746  0  1.040782  0  0  0.092872  0  1.040511  0  0  0.089991  0.090851  0  1.041165  0
H  H18  1  0.00600694  0.46866951  0.17154574  1  0  0.082529  0  0.970009  0  0  0.091829  0  1.041127  0  0  0.092953  0  1.040856  0  0  0.09005  0.090935  0  1.04151  0
H  H19  1  0.99398437  0.53131096  0.67154346  1  0  0.082466  0  0.969881  0  0  0.091787  0  1.041  0  0  0.092907  0  1.04073  0  0  0.090004  0.090891  0  1.041383  0
H  H20  1  0.80728163  0.07437859  0.67129227  1  0  0.084622  0  0.969493  0  0  0.094826  0  1.038367  0  0  0.096064  0  1.03784  0  0  0.090282  0.093804  0  1.03904  0
H  H21  1  0.19271811  0.92561146  0.17128736  1  0  0.084608  0  0.969393  0  0  0.094771  0  1.038318  0  0  0.096009  0  1.037793  0  0  0.090269  0.093766  0  1.038978  0
H  H22  1  0.07437894  0.80729984  0.82870612  1  0  0.084661  0  0.969625  0  0  0.094901  0  1.038388  0  0  0.096166  0  1.037845  0  0  0.090307  0.093875  0  1.039063  0
H  H23  1  0.92562000  0.19271771  0.32870940  1  0  0.084724  0  0.969663  0  0  0.094931  0  1.038464  0  0  0.0962  0  1.037913  0  0  0.090306  0.093906  0  1.039141  0
H  H24  1  0.19271973  0.92561722  0.32870363  1  0  0.084702  0  0.969748  0  0  0.094926  0  1.038526  0  0  0.096226  0  1.037947  0  0  0.090306  0.0939  0  1.039203  0
H  H25  1  0.80726822  0.07436997  0.82870385  1  0  0.084707  0  0.969921  0  0  0.094885  0  1.038786  0  0  0.096191  0  1.038192  0  0  0.090316  0.09386  0  1.039461  0
H  H26  1  0.92561046  0.19271356  0.17129448  1  0  0.084653  0  0.96954  0  0  0.094873  0  1.038366  0  0  0.096117  0  1.037844  0  0  0.090282  0.093854  0  1.039036  0
H  H27  1  0.07437758  0.80726531  0.67129253  1  0  0.084666  0  0.969797  0  0  0.094875  0  1.038612  0  0  0.096135  0  1.038059  0  0  0.090299  0.093849  0  1.039287  0
C  C28  1  0.58086465  0.58082829  0.69811869  1  0  -0.043684  0  3.558888  0  0  -0.097497  0  3.79969  0  0  -0.09458  0  3.812842  0  0  -0.080988  -0.099251  0  3.790153  0
C  C29  1  0.41914902  0.41915409  0.19812201  1  0  -0.043668  0  3.559162  0  0  -0.097456  0  3.799888  0  0  -0.094548  0  3.813073  0  0  -0.080896  -0.09921  0  3.790351  0
C  C30  1  0.58083597  0.58086730  0.80188126  1  0  -0.04357  0  3.559027  0  0  -0.097339  0  3.799749  0  0  -0.094419  0  3.812923  0  0  -0.080991  -0.099094  0  3.790209  0
C  C31  1  0.41915947  0.41914193  0.30187788  1  0  -0.04355  0  3.55927  0  0  -0.097261  0  3.79988  0  0  -0.094353  0  3.813058  0  0  -0.080865  -0.099015  0  3.790343  0
C  C32  1  0.68858981  0.95731462  0.69810967  1  0  -0.048275  0  3.551132  0  0  -0.099012  0  3.788872  0  0  -0.096538  0  3.801983  0  0  -0.084751  -0.100439  0  3.779672  0
C  C33  1  0.31141647  0.04268055  0.19811227  1  0  -0.048297  0  3.551073  0  0  -0.09898  0  3.788685  0  0  -0.09649  0  3.801765  0  0  -0.084813  -0.100422  0  3.779484  0
C  C34  1  0.95733376  0.68861025  0.80188732  1  0  -0.048153  0  3.551091  0  0  -0.098979  0  3.788787  0  0  -0.096484  0  3.801789  0  0  -0.084728  -0.100408  0  3.779589  0
C  C35  1  0.04266639  0.31139737  0.30188792  1  0  -0.048438  0  3.551309  0  0  -0.099218  0  3.789063  0  0  -0.096734  0  3.802084  0  0  -0.084821  -0.100644  0  3.779871  0
C  C36  1  0.31138845  0.04266522  0.30188288  1  0  -0.048341  0  3.551257  0  0  -0.099224  0  3.789073  0  0  -0.096742  0  3.802028  0  0  -0.084728  -0.100652  0  3.779884  0
C  C37  1  0.68862941  0.95734559  0.80188565  1  0  -0.048099  0  3.550962  0  0  -0.099054  0  3.788958  0  0  -0.096595  0  3.801958  0  0  -0.084719  -0.100484  0  3.779763  0
C  C38  1  0.04267458  0.31139833  0.19811663  1  0  -0.0483  0  3.551199  0  0  -0.099162  0  3.789063  0  0  -0.096639  0  3.802049  0  0  -0.084706  -0.100594  0  3.779868  0
C  C39  1  0.95733237  0.68861122  0.69811201  1  0  -0.048301  0  3.551144  0  0  -0.099137  0  3.788894  0  0  -0.09665  0  3.801943  0  0  -0.08474  -0.100562  0  3.779698  0
N  N40  1  0.74261550  0.74262387  0.66419261  1  0  -0.138731  0  3.243496  0  0  -0.021874  0  3.463595  0  0  -0.043808  0  3.490901  0  0  -0.302647  -0.005937  0  3.44376  0
N  N41  1  0.25737383  0.25738208  0.16419098  1  0  -0.13877  0  3.243425  0  0  -0.021914  0  3.463465  0  0  -0.043845  0  3.490759  0  0  -0.302665  -0.005976  0  3.44364  0
N  N42  1  0.74261985  0.74262012  0.83580492  1  0  -0.139188  0  3.243788  0  0  -0.022259  0  3.463824  0  0  -0.044202  0  3.49116  0  0  -0.302663  -0.006315  0  3.443983  0
N  N43  1  0.25738783  0.25737992  0.33580731  1  0  -0.138889  0  3.24366  0  0  -0.02205  0  3.463702  0  0  -0.043985  0  3.491034  0  0  -0.302729  -0.006111  0  3.44387  0
Cl  Cl44  1  0.28487517  0.71512358  0.50000057  1  0  -0.601154  0  0.951529  0  0  -0.549795  0  1.256408  0  0  -0.572509  0  1.235475  0  0  -0.31571  -0.534854  0  1.273709  0
Cl  Cl45  1  0.71512393  0.28487557  0.00000012  1  0  -0.601169  0  0.951516  0  0  -0.549803  0  1.25639  0  0  -0.572522  0  1.235458  0  0  -0.315719  -0.534865  0  1.273695  0
Cl  Cl46  1  0.71512779  0.28487223  0.50000069  1  0  -0.601149  0  0.951509  0  0  -0.549803  0  1.2564  0  0  -0.572512  0  1.235463  0  0  -0.315716  -0.534863  0  1.273702  0
Cl  Cl47  1  0.28487150  0.71512983  0.99999980  1  0  -0.601156  0  0.95148  0  0  -0.5498  0  1.256365  0  0  -0.572514  0  1.235429  0  0  -0.315712  -0.534861  0  1.273673  0
Cl  Cl48  1  0.80233866  0.80233647  0.35932813  1  0  -0.416986  0  1.136998  0  0  -0.351103  0  1.427165  0  0  -0.36911  0  1.410683  0  0  -0.211154  -0.336434  0  1.438973  0
Cl  Cl49  1  0.19766128  0.19767026  0.85932554  1  0  -0.417004  0  1.136956  0  0  -0.351119  0  1.427127  0  0  -0.369117  0  1.410625  0  0  -0.211166  -0.336448  0  1.438934  0
Cl  Cl50  1  0.80233574  0.80233514  0.14067505  1  0  -0.416947  0  1.136998  0  0  -0.351031  0  1.427138  0  0  -0.369025  0  1.410638  0  0  -0.211126  -0.336364  0  1.438951  0
Cl  Cl51  1  0.19766263  0.19765774  0.64067247  1  0  -0.416978  0  1.137012  0  0  -0.351108  0  1.427215  0  0  -0.369093  0  1.410704  0  0  -0.211141  -0.336438  0  1.439024  0
