# generated using pymatgen
data_CdH10C15O7
_symmetry_space_group_name_H-M   'P 1'
_cell_length_a   6.56424141
_cell_length_b   7.55042753
_cell_length_c   28.50570000
_cell_angle_alpha   90.00000000
_cell_angle_beta   90.00000000
_cell_angle_gamma   105.18697575
_symmetry_Int_Tables_number   1
_chemical_formula_structural   CdH10C15O7
_chemical_formula_sum   'Cd4 H40 C60 O28'
_cell_volume   1363.48179829
_cell_formula_units_Z   4
loop_
 _symmetry_equiv_pos_site_id
 _symmetry_equiv_pos_as_xyz
  1  'x, y, z'
loop_
 _atom_site_type_symbol
 _atom_site_label
 _atom_site_symmetry_multiplicity
 _atom_site_fract_x
 _atom_site_fract_y
 _atom_site_fract_z
 _atom_site_occupancy
 _atom_site_hle17_bader_spin_density
 _atom_site_hle17_ddec_charge
 _atom_site_hle17_ddec_spin_density
 _atom_site_hle17_ddec_sum_bond_order
 _atom_site_hle17_magmom
 _atom_site_hse06_10hf_bader_spin_density
 _atom_site_hse06_10hf_ddec_charge
 _atom_site_hse06_10hf_ddec_spin_density
 _atom_site_hse06_10hf_ddec_sum_bond_order
 _atom_site_hse06_10hf_magmom
 _atom_site_hse06_bader_spin_density
 _atom_site_hse06_ddec_charge
 _atom_site_hse06_ddec_spin_density
 _atom_site_hse06_ddec_sum_bond_order
 _atom_site_hse06_magmom
 _atom_site_pbe_bader_charge
 _atom_site_pbe_bader_spin_density
 _atom_site_pbe_cm5_charge
 _atom_site_pbe_ddec_charge
 _atom_site_pbe_ddec_spin_density
 _atom_site_pbe_ddec_sum_bond_order
 _atom_site_pbe_magmom
Cd  Cd0  1  0.31452501  0.78624905  0.52216048  1  0  1.25767  0  1.551986  0  0  1.086533  0  1.988767  0  0  1.147031  0  1.928011  0  1.337333  0  0.774513  1.042967  0  2.030632  0
Cd  Cd1  1  0.18547217  0.21375000  0.02216153  1  0  1.257669  0  1.552025  0  0  1.086533  0  1.988815  0  0  1.147031  0  1.928058  0  1.337283  0  0.774545  1.042969  0  2.030682  0
Cd  Cd2  1  0.68546790  0.21375137  0.47783952  1  0  1.257672  0  1.551991  0  0  1.086523  0  1.988769  0  0  1.147021  0  1.928011  0  1.33731  0  0.774517  1.042958  0  2.030634  0
Cd  Cd3  1  0.81452366  0.78624494  0.97783882  1  0  1.257677  0  1.551998  0  0  1.086539  0  1.988793  0  0  1.147039  0  1.928035  0  1.337299  0  0.774521  1.042973  0  2.030661  0
H  H4  1  0.34104669  0.26340597  0.18145143  1  0  0.113778  0  0.941332  0  0  0.122637  0  1.0059  0  0  0.126208  0  1.00293  0  0.157208  0  0.112264  0.120082  0  1.007985  0
H  H5  1  0.15894801  0.73658485  0.68145073  1  0  0.113834  0  0.941349  0  0  0.122692  0  1.005912  0  0  0.126263  0  1.00294  0  0.157285  0  0.112286  0.120136  0  1.007999  0
H  H6  1  0.65895676  0.73658896  0.81854787  1  0  0.113818  0  0.941336  0  0  0.122702  0  1.005864  0  0  0.126275  0  1.002888  0  0.157252  0  0.112271  0.120146  0  1.007951  0
H  H7  1  0.84104808  0.26342107  0.31854927  1  0  0.113893  0  0.941342  0  0  0.122705  0  1.005952  0  0  0.126278  0  1.002977  0  0.15734  0  0.112277  0.120149  0  1.00804  0
H  H8  1  0.47692056  0.79377368  0.11476301  1  0  0.102552  0  0.933662  0  0  0.1152  0  0.990125  0  0  0.118355  0  0.987935  0  0.100322  0  0.109612  0.112843  0  0.991822  0
H  H9  1  0.02308950  0.20622262  0.61476231  1  0  0.102534  0  0.933621  0  0  0.115195  0  0.990084  0  0  0.118373  0  0.987862  0  0.100264  0  0.109609  0.112813  0  0.991809  0
H  H10  1  0.52308593  0.20622125  0.88523769  1  0  0.102574  0  0.933579  0  0  0.115235  0  0.990049  0  0  0.118414  0  0.987828  0  0.100285  0  0.109631  0.112852  0  0.991775  0
H  H11  1  0.97691808  0.79378603  0.38523874  1  0  0.102476  0  0.933635  0  0  0.115142  0  0.990114  0  0  0.118321  0  0.987888  0  0.100118  0  0.109579  0.11276  0  0.991839  0
H  H12  1  0.54916112  0.95122413  0.19244923  1  0  0.117419  0  0.932927  0  0  0.128544  0  0.98884  0  0  0.132023  0  0.987069  0  0.083011  0  0.111266  0.12609  0  0.990148  0
H  H13  1  0.95084250  0.04876668  0.69244783  1  0  0.117434  0  0.932909  0  0  0.128557  0  0.988819  0  0  0.13204  0  0.987047  0  0.082927  0  0.111225  0.1261  0  0.99013  0
H  H14  1  0.45083998  0.04876806  0.80755077  1  0  0.117433  0  0.932926  0  0  0.128569  0  0.988808  0  0  0.13205  0  0.987037  0  0.083029  0  0.111253  0.126114  0  0.990117  0
H  H15  1  0.04916232  0.95123786  0.30755288  1  0  0.117407  0  0.933016  0  0  0.128561  0  0.988872  0  0  0.13204  0  0.987102  0  0.082849  0  0.111244  0.126111  0  0.99018  0
H  H16  1  0.57476184  0.04170179  0.28213726  1  0  0.111321  0  0.952327  0  0  0.117124  0  1.019589  0  0  0.120937  0  1.017251  0  0.144373  0  0.106187  0.114446  0  1.021255  0
H  H17  1  0.92525645  0.95829726  0.78213656  1  0  0.111439  0  0.952104  0  0  0.117172  0  1.019455  0  0  0.121002  0  1.017086  0  0.144114  0  0.1062  0.114464  0  1.021153  0
H  H18  1  0.42524491  0.95830412  0.71786099  1  0  0.111318  0  0.952377  0  0  0.117119  0  1.019642  0  0  0.120937  0  1.017297  0  0.144438  0  0.106167  0.114439  0  1.021311  0
H  H19  1  0.07474767  0.04171003  0.21786274  1  0  0.111294  0  0.952212  0  0  0.117126  0  1.019464  0  0  0.120943  0  1.017111  0  0.144079  0  0.106162  0.114418  0  1.021161  0
H  H20  1  0.56485587  0.05144141  0.36970430  1  0  0.105297  0  0.977794  0  0  0.111245  0  1.045132  0  0  0.115096  0  1.04182  0  0.164745  0  0.103225  0.108397  0  1.047638  0
H  H21  1  0.93515979  0.94855902  0.86970220  1  0  0.10537  0  0.97773  0  0  0.111311  0  1.045072  0  0  0.115166  0  1.041761  0  0.164801  0  0.103269  0.108463  0  1.047581  0
H  H22  1  0.43514009  0.94855902  0.63029534  1  0  0.105333  0  0.977762  0  0  0.111261  0  1.045128  0  0  0.115114  0  1.041819  0  0.164714  0  0.103231  0.108413  0  1.047634  0
H  H23  1  0.06484157  0.05144415  0.13029605  1  0  0.10532  0  0.977748  0  0  0.111256  0  1.045118  0  0  0.115105  0  1.041801  0  0.16477  0  0.103226  0.108407  0  1.047625  0
H  H24  1  0.37675918  0.45972979  0.37578379  1  0  0.093997  0  0.954334  0  0  0.102142  0  1.022656  0  0  0.106115  0  1.018507  0  0.079466  0  0.10762  0.099242  0  1.025641  0
H  H25  1  0.12323511  0.54025966  0.87578098  1  0  0.09396  0  0.954365  0  0  0.102111  0  1.02267  0  0  0.106089  0  1.018524  0  0.079577  0  0.1076  0.099205  0  1.025669  0
H  H26  1  0.62324233  0.54026378  0.62421796  1  0  0.093915  0  0.9544  0  0  0.102053  0  1.022721  0  0  0.106034  0  1.018577  0  0.079538  0  0.107573  0.09915  0  1.025709  0
H  H27  1  0.87677900  0.45973527  0.12421937  1  0  0.093938  0  0.954325  0  0  0.10209  0  1.022634  0  0  0.106063  0  1.018485  0  0.079555  0  0.107596  0.099176  0  1.025662  0
H  H28  1  0.64986058  0.60389857  0.54925331  1  0  0.442238  0  0.855814  0  0  0.40581  0  0.927752  0  0  0.417658  0  0.910632  0  0.65895  0  0.295417  0.397438  0  0.93982  0
H  H29  1  0.85013444  0.39609911  0.04925471  1  0  0.442236  0  0.85582  0  0  0.405798  0  0.927779  0  0  0.417647  0  0.910657  0  0.658961  0  0.295393  0.397426  0  0.939846  0
H  H30  1  0.35013662  0.39610597  0.45074564  1  0  0.44224  0  0.855809  0  0  0.405819  0  0.927739  0  0  0.417667  0  0.910618  0  0.658913  0  0.295397  0.397446  0  0.939808  0
H  H31  1  0.14985945  0.60389445  0.95074529  1  0  0.442201  0  0.855869  0  0  0.405776  0  0.9278  0  0  0.417624  0  0.910678  0  0.658914  0  0.295369  0.397397  0  0.939875  0
H  H32  1  0.71007406  0.80291220  0.57317379  1  0  0.428653  0  0.80909  0  0  0.412259  0  0.859663  0  0  0.420209  0  0.85109  0  0.623445  0  0.327019  0.406481  0  0.866037  0
H  H33  1  0.78992014  0.19708273  0.07317414  1  0  0.428645  0  0.809161  0  0  0.412253  0  0.859728  0  0  0.420202  0  0.851157  0  0.623396  0  0.327024  0.406476  0  0.866098  0
H  H34  1  0.28992425  0.19709096  0.42682446  1  0  0.428634  0  0.809063  0  0  0.412239  0  0.85964  0  0  0.420188  0  0.851069  0  0.62342  0  0.326998  0.406461  0  0.866014  0
H  H35  1  0.21007112  0.80291220  0.92682516  1  0  0.428621  0  0.809097  0  0  0.41222  0  0.859682  0  0  0.420171  0  0.851109  0  0.623414  0  0.326984  0.406442  0  0.866057  0
H  H36  1  0.95434196  0.70779693  0.46431696  1  0  0.429962  0  0.875188  0  0  0.397063  0  0.941957  0  0  0.408576  0  0.925391  0  0.662071  0  0.285944  0.388892  0  0.953695  0
H  H37  1  0.54565113  0.29219938  0.96431696  1  0  0.429988  0  0.875158  0  0  0.397081  0  0.941941  0  0  0.408593  0  0.925375  0  0.662095  0  0.28596  0.388908  0  0.953682  0
H  H38  1  0.04565095  0.29220350  0.53568234  1  0  0.429974  0  0.87518  0  0  0.397062  0  0.941974  0  0  0.408576  0  0.925406  0  0.662088  0  0.285947  0.388888  0  0.953717  0
H  H39  1  0.45433848  0.70779007  0.03568339  1  0  0.429949  0  0.875219  0  0  0.397056  0  0.941977  0  0  0.408569  0  0.92541  0  0.662047  0  0.285955  0.388885  0  0.953714  0
H  H40  1  0.89718339  0.81668929  0.50652115  1  0  0.422136  0  0.873182  0  0  0.395648  0  0.929515  0  0  0.40601  0  0.914458  0  0.650816  0  0.290339  0.388267  0  0.940233  0
H  H41  1  0.60281246  0.18331113  0.00652150  1  0  0.42218  0  0.87312  0  0  0.395678  0  0.929482  0  0  0.406043  0  0.91442  0  0.650835  0  0.290343  0.388298  0  0.9402  0
H  H42  1  0.10280910  0.18330976  0.49347780  1  0  0.422171  0  0.87314  0  0  0.395665  0  0.929509  0  0  0.40603  0  0.914446  0  0.65088  0  0.290337  0.388284  0  0.940227  0
H  H43  1  0.39718337  0.81668380  0.99347850  1  0  0.42219  0  0.873097  0  0  0.39569  0  0.929458  0  0  0.406053  0  0.9144  0  0.650823  0  0.290346  0.388309  0  0.940176  0
C  C44  1  0.38425978  0.41242192  0.18425859  1  0  -0.038881  0  3.672354  0  0  -0.078351  0  3.926942  0  0  -0.074572  0  3.944497  0  0.00893  0  -0.06705  -0.080471  0  3.914966  0
C  C45  1  0.11574225  0.58757302  0.68425824  1  0  -0.03882  0  3.67228  0  0  -0.078282  0  3.926867  0  0  -0.074506  0  3.944425  0  0.00821  0  -0.067024  -0.080403  0  3.914897  0
C  C46  1  0.61574490  0.58757713  0.81574317  1  0  -0.03879  0  3.672314  0  0  -0.078299  0  3.926857  0  0  -0.074522  0  3.944414  0  0.008907  0  -0.06699  -0.08042  0  3.914888  0
C  C47  1  0.88425648  0.41243152  0.31574282  1  0  -0.038917  0  3.67236  0  0  -0.078362  0  3.92694  0  0  -0.074584  0  3.944489  0  0.008277  0  -0.067041  -0.080482  0  3.914969  0
C  C48  1  0.40719056  0.52079141  0.14359654  1  0  -0.076401  0  3.751611  0  0  -0.050457  0  3.989996  0  0  -0.061178  0  4.014196  0  -0.03713  0  -0.017682  -0.043678  0  3.973787  0
C  C49  1  0.09280636  0.47919666  0.64359549  1  0  -0.076327  0  3.751533  0  0  -0.050424  0  3.989988  0  0  -0.061146  0  4.014193  0  -0.036712  0  -0.017674  -0.043645  0  3.973777  0
C  C50  1  0.59281013  0.47919941  0.85640346  1  0  -0.076552  0  3.751857  0  0  -0.0505  0  3.990121  0  0  -0.061223  0  4.014326  0  -0.036759  0  -0.017704  -0.043722  0  3.973908  0
C  C51  1  0.90719278  0.52080925  0.35640486  1  0  -0.076531  0  3.751497  0  0  -0.050574  0  3.989903  0  0  -0.061296  0  4.014109  0  -0.036726  0  -0.017729  -0.043795  0  3.973692  0
C  C52  1  0.46412753  0.71321362  0.14687589  1  0  -0.02963  0  3.683525  0  0  -0.059062  0  3.937878  0  0  -0.056321  0  3.957649  0  0.022697  0  -0.064753  -0.060361  0  3.924276  0
C  C53  1  0.03588101  0.28678269  0.64687554  1  0  -0.029687  0  3.683636  0  0  -0.059138  0  3.938014  0  0  -0.056416  0  3.957784  0  0.022761  0  -0.064843  -0.060414  0  3.924414  0
C  C54  1  0.53587785  0.28678269  0.85312376  1  0  -0.029631  0  3.683622  0  0  -0.059137  0  3.937967  0  0  -0.056415  0  3.957736  0  0.022885  0  -0.064809  -0.060413  0  3.924368  0
C  C55  1  0.96412007  0.71322460  0.35312411  1  0  -0.029361  0  3.683383  0  0  -0.05884  0  3.937732  0  0  -0.056115  0  3.957493  0  0.022668  0  -0.064648  -0.060118  0  3.924135  0
C  C56  1  0.50146346  0.80187059  0.19030299  1  0  -0.091299  0  3.691789  0  0  -0.109433  0  3.944665  0  0  -0.11434  0  3.965297  0  0.015283  0  -0.074435  -0.106178  0  3.930565  0
C  C57  1  0.99854625  0.19812023  0.69030159  1  0  -0.091318  0  3.691802  0  0  -0.109423  0  3.94466  0  0  -0.114334  0  3.965298  0  0.01514  0  -0.07436  -0.106165  0  3.930549  0
C  C58  1  0.49854788  0.19812023  0.80969631  1  0  -0.091336  0  3.691576  0  0  -0.109444  0  3.94446  0  0  -0.114353  0  3.965097  0  0.015029  0  -0.074417  -0.106187  0  3.930352  0
C  C59  1  0.00146244  0.80188705  0.30969771  1  0  -0.09136  0  3.691784  0  0  -0.109501  0  3.944661  0  0  -0.114409  0  3.965298  0  0.015292  0  -0.074416  -0.106251  0  3.930559  0
C  C60  1  0.47304962  0.69403082  0.23060441  1  0  0.048734  0  3.757436  0  0  0.053923  0  3.993926  0  0  0.056443  0  4.016288  0  -0.011749  0  0.00568  0.052431  0  3.978829  0
C  C61  1  0.02695435  0.30596549  0.73060335  1  0  0.048893  0  3.757552  0  0  0.054086  0  3.994082  0  0  0.056606  0  4.016442  0  -0.011799  0  0.005715  0.052595  0  3.978987  0
C  C62  1  0.52695936  0.30597235  0.76939559  1  0  0.048861  0  3.757301  0  0  0.053994  0  3.993915  0  0  0.056514  0  4.016277  0  -0.011831  0  0.005671  0.052504  0  3.978818  0
C  C63  1  0.97305338  0.69403356  0.26939559  1  0  0.048791  0  3.757622  0  0  0.053961  0  3.994144  0  0  0.056478  0  4.016508  0  -0.01169  0  0.005653  0.05247  0  3.979051  0
C  C64  1  0.48748396  0.74496171  0.28052249  1  0  0.050405  0  3.763145  0  0  0.056891  0  3.995312  0  0  0.059573  0  4.018306  0  -0.097555  0  0.006537  0.055138  0  3.979868  0
C  C65  1  0.01251918  0.25503185  0.78052144  1  0  0.05047  0  3.763214  0  0  0.056818  0  3.995544  0  0  0.0595  0  4.018543  0  -0.097636  0  0.006607  0.055066  0  3.980094  0
C  C66  1  0.51253041  0.25504420  0.71947856  1  0  0.05037  0  3.763187  0  0  0.056782  0  3.995459  0  0  0.059461  0  4.01846  0  -0.097531  0  0.006581  0.055027  0  3.980015  0
C  C67  1  0.98748925  0.74496446  0.21947786  1  0  0.050419  0  3.763301  0  0  0.056855  0  3.995564  0  0  0.059539  0  4.018554  0  -0.097629  0  0.006604  0.055101  0  3.980112  0
C  C68  1  0.53570098  0.91519978  0.30251073  1  0  -0.091297  0  3.682594  0  0  -0.112508  0  3.940212  0  0  -0.117715  0  3.959691  0  0.006904  0  -0.078084  -0.109064  0  3.926974  0
C  C69  1  0.96430360  0.08479927  0.80251038  1  0  -0.09144  0  3.682576  0  0  -0.112554  0  3.940259  0  0  -0.117766  0  3.959717  0  0.007107  0  -0.078152  -0.109086  0  3.927038  0
C  C70  1  0.46429844  0.08480202  0.69748892  1  0  -0.091311  0  3.682567  0  0  -0.112496  0  3.940193  0  0  -0.117706  0  3.959675  0  0.00688  0  -0.07809  -0.109055  0  3.926965  0
C  C71  1  0.03569195  0.91519978  0.19748962  1  0  -0.091233  0  3.682569  0  0  -0.112447  0  3.940199  0  0  -0.117652  0  3.959673  0  0.00718  0  -0.07807  -0.108977  0  3.926973  0
C  C72  1  0.52673572  0.91999753  0.35155144  1  0  -0.027417  0  3.65973  0  0  -0.056914  0  3.913484  0  0  -0.053552  0  3.93086  0  -0.027212  0  -0.067687  -0.058779  0  3.901608  0
C  C73  1  0.97326927  0.08000289  0.85155109  1  0  -0.027585  0  3.659846  0  0  -0.057069  0  3.913599  0  0  -0.053715  0  3.930983  0  -0.027291  0  -0.067741  -0.05893  0  3.901708  0
C  C74  1  0.47325567  0.08000289  0.64844821  1  0  -0.027494  0  3.659816  0  0  -0.056971  0  3.913572  0  0  -0.053613  0  3.930947  0  -0.027301  0  -0.067704  -0.058838  0  3.901697  0
C  C75  1  0.02673209  0.92000028  0.14844891  1  0  -0.027497  0  3.659816  0  0  -0.056999  0  3.913609  0  0  -0.053633  0  3.930983  0  -0.027276  0  -0.067685  -0.05886  0  3.901716  0
C  C76  1  0.47030557  0.75799361  0.37822821  1  0  -0.086868  0  3.750237  0  0  -0.062275  0  3.989764  0  0  -0.07357  0  4.013576  0  -0.02992  0  -0.017099  -0.055137  0  3.973876  0
C  C77  1  0.02970145  0.24200270  0.87822786  1  0  -0.08678  0  3.750129  0  0  -0.062209  0  3.989684  0  0  -0.073503  0  4.013488  0  -0.029862  0  -0.017123  -0.055071  0  3.973796  0
C  C78  1  0.52969566  0.24200407  0.62177214  1  0  -0.086841  0  3.750212  0  0  -0.062241  0  3.989776  0  0  -0.07353  0  4.013582  0  -0.029846  0  -0.017098  -0.055104  0  3.973888  0
C  C79  1  0.97030739  0.75799498  0.12177284  1  0  -0.086893  0  3.750301  0  0  -0.062338  0  3.989859  0  0  -0.073631  0  4.013664  0  -0.029859  0  -0.017144  -0.055196  0  3.973968  0
C  C80  1  0.42377607  0.58637907  0.35570605  1  0  -0.034961  0  3.714131  0  0  -0.073342  0  3.969011  0  0  -0.069661  0  3.987972  0  0.011978  0  -0.0655  -0.075435  0  3.956168  0
C  C81  1  0.07622291  0.41361587  0.85570570  1  0  -0.034913  0  3.713967  0  0  -0.073283  0  3.968824  0  0  -0.06961  0  3.987786  0  0.011947  0  -0.065471  -0.075376  0  3.955981  0
C  C82  1  0.57623125  0.41361861  0.64429500  1  0  -0.03482  0  3.713951  0  0  -0.073183  0  3.968775  0  0  -0.069517  0  3.987746  0  0.012003  0  -0.065424  -0.075273  0  3.955933  0
C  C83  1  0.92378482  0.58638318  0.14429430  1  0  -0.034774  0  3.713914  0  0  -0.073114  0  3.968781  0  0  -0.069431  0  3.987736  0  0.01195  0  -0.065414  -0.075217  0  3.955938  0
C  C84  1  0.43374074  0.58193538  0.30748306  1  0  -0.098082  0  3.791975  0  0  -0.082262  0  4.026198  0  0  -0.091804  0  4.051659  0  -0.060208  0  -0.02094  -0.075911  0  4.009189  0
C  C85  1  0.06625714  0.41806093  0.80748061  1  0  -0.098064  0  3.791778  0  0  -0.08222  0  4.026032  0  0  -0.091763  0  4.051502  0  -0.060075  0  -0.020937  -0.075869  0  4.009024  0
C  C86  1  0.56626478  0.41806642  0.69252044  1  0  -0.098061  0  3.791896  0  0  -0.082228  0  4.026098  0  0  -0.091769  0  4.051556  0  -0.060158  0  -0.020997  -0.075877  0  4.009089  0
C  C87  1  0.93375046  0.58193263  0.19251939  1  0  -0.098097  0  3.791865  0  0  -0.082289  0  4.026141  0  0  -0.091833  0  4.051609  0  -0.060167  0  -0.02098  -0.075935  0  4.009131  0
C  C88  1  0.38470898  0.42037884  0.27541790  1  0  0.395307  0  3.770415  0  0  0.370955  0  4.041186  0  0  0.393649  0  4.044612  0  0.930754  0  0.156532  0.355397  0  4.039083  0
C  C89  1  0.11529013  0.57962158  0.77541509  1  0  0.395333  0  3.770542  0  0  0.371056  0  4.041171  0  0  0.39375  0  4.044598  0  0.930467  0  0.156526  0.355501  0  4.039063  0
C  C90  1  0.61529015  0.57962707  0.72458350  1  0  0.395271  0  3.770335  0  0  0.371044  0  4.040871  0  0  0.393745  0  4.044287  0  0.930584  0  0.156596  0.355483  0  4.038773  0
C  C91  1  0.88471621  0.42038296  0.22458421  1  0  0.39524  0  3.770467  0  0  0.370875  0  4.041274  0  0  0.39357  0  4.044703  0  0.930442  0  0.156457  0.355324  0  4.039158  0
C  C92  1  0.41352456  0.50011274  0.22728051  1  0  -0.103468  0  3.782137  0  0  -0.092177  0  4.026796  0  0  -0.101627  0  4.051162  0  -0.187121  0  -0.026214  -0.086072  0  4.010614  0
C  C93  1  0.08647512  0.49987944  0.72727911  1  0  -0.103811  0  3.78264  0  0  -0.092522  0  4.027275  0  0  -0.10197  0  4.051635  0  -0.186222  0  -0.026331  -0.086419  0  4.011096  0
C  C94  1  0.58647819  0.49988493  0.77271949  1  0  -0.103523  0  3.782186  0  0  -0.092247  0  4.026832  0  0  -0.101697  0  4.051189  0  -0.186981  0  -0.026217  -0.086145  0  4.010655  0
C  C95  1  0.91352582  0.50012235  0.27272160  1  0  -0.103654  0  3.78245  0  0  -0.092333  0  4.027098  0  0  -0.101783  0  4.051468  0  -0.186284  0  -0.026278  -0.08623  0  4.010916  0
C  C96  1  0.35585627  0.42739295  0.09752225  1  0  0.632694  0  3.934976  0  0  0.580698  0  4.227973  0  0  0.615519  0  4.222653  0  1.547712  0  0.194529  0.557152  0  4.230572  0
C  C97  1  0.14413205  0.57260198  0.59752085  1  0  0.632684  0  3.935069  0  0  0.580719  0  4.22804  0  0  0.615544  0  4.222713  0  1.547515  0  0.194627  0.557169  0  4.230647  0
C  C98  1  0.64413582  0.57260473  0.90247810  1  0  0.632725  0  3.935  0  0  0.580711  0  4.227982  0  0  0.615534  0  4.222655  0  1.547511  0  0.194572  0.557163  0  4.230587  0
C  C99  1  0.85586251  0.42740393  0.40247845  1  0  0.632662  0  3.934848  0  0  0.580673  0  4.227831  0  0  0.615495  0  4.22251  0  1.54748  0  0.194553  0.557125  0  4.230438  0
C  C100  1  0.44129723  0.76458229  0.42980421  1  0  0.672014  0  3.86749  0  0  0.619792  0  4.152016  0  0  0.656212  0  4.145376  0  1.544075  0  0.211789  0.595053  0  4.155642  0
C  C101  1  0.05870686  0.23541951  0.92980457  1  0  0.672011  0  3.867433  0  0  0.619795  0  4.151977  0  0  0.656225  0  4.145312  0  1.54409  0  0.211817  0.595057  0  4.155603  0
C  C102  1  0.55869873  0.23541813  0.57019614  1  0  0.672143  0  3.867483  0  0  0.619831  0  4.152141  0  0  0.656246  0  4.145506  0  1.544174  0  0.211806  0.595093  0  4.155765  0
C  C103  1  0.94129782  0.76457955  0.07019614  1  0  0.672  0  3.867497  0  0  0.619813  0  4.151992  0  0  0.656231  0  4.145354  0  1.544194  0  0.211799  0.595075  0  4.155615  0
O  O104  1  0.32776510  0.25695315  0.28642307  1  0  -0.45066  0  1.910389  0  0  -0.40534  0  2.112401  0  0  -0.422152  0  2.108535  0  -1.090213  0  -0.256708  -0.393954  0  2.115044  0
O  O105  1  0.17223458  0.74303904  0.78642131  1  0  -0.45067  0  1.910655  0  0  -0.405365  0  2.112619  0  0  -0.422176  0  2.108757  0  -1.090123  0  -0.256679  -0.393972  0  2.115247  0
O  O106  1  0.67223874  0.74305825  0.71357588  1  0  -0.450682  0  1.910144  0  0  -0.405424  0  2.1121  0  0  -0.422236  0  2.108231  0  -1.090354  0  -0.256756  -0.394022  0  2.114724  0
O  O107  1  0.82777455  0.25695452  0.21358009  1  0  -0.450617  0  1.910447  0  0  -0.405288  0  2.112475  0  0  -0.422102  0  2.108612  0  -1.090091  0  -0.256659  -0.3939  0  2.115109  0
O  O108  1  0.32508850  0.51731935  0.06148174  1  0  -0.654969  0  2.014544  0  0  -0.590815  0  2.249833  0  0  -0.619544  0  2.239556  0  -1.177684  0  -0.321096  -0.570558  0  2.256055  0
O  O109  1  0.17490480  0.48267696  0.56147893  1  0  -0.65504  0  2.014447  0  0  -0.590904  0  2.249772  0  0  -0.619634  0  2.239485  0  -1.177797  0  -0.32117  -0.570645  0  2.255997  0
O  O110  1  0.67490469  0.48267696  0.93851931  1  0  -0.654998  0  2.014406  0  0  -0.59086  0  2.249742  0  0  -0.619596  0  2.239479  0  -1.177701  0  -0.321145  -0.570601  0  2.255965  0
O  O111  1  0.82508700  0.51732484  0.43852107  1  0  -0.65509  0  2.014386  0  0  -0.590944  0  2.249695  0  0  -0.619669  0  2.239398  0  -1.177879  0  -0.321205  -0.570686  0  2.25592  0
O  O112  1  0.33086932  0.25347834  0.09599694  1  0  -0.647797  0  1.974022  0  0  -0.583363  0  2.211684  0  0  -0.613251  0  2.201354  0  -1.169091  0  -0.330894  -0.562329  0  2.217941  0
O  O113  1  0.16911360  0.74651385  0.59599764  1  0  -0.647792  0  1.974142  0  0  -0.583363  0  2.211791  0  0  -0.613251  0  2.201458  0  -1.169092  0  -0.330887  -0.562332  0  2.218052  0
O  O114  1  0.66912041  0.74651659  0.90400306  1  0  -0.647813  0  1.974131  0  0  -0.583394  0  2.211814  0  0  -0.613284  0  2.201483  0  -1.169115  0  -0.3309  -0.562363  0  2.218075  0
O  O115  1  0.83087529  0.25349344  0.40400201  1  0  -0.647694  0  1.974149  0  0  -0.583263  0  2.211803  0  0  -0.613152  0  2.201474  0  -1.168895  0  -0.33082  -0.562231  0  2.218063  0
O  O116  1  0.48115299  0.91957485  0.45108382  1  0  -0.690375  0  2.068253  0  0  -0.612181  0  2.329436  0  0  -0.646615  0  2.317982  0  -1.174187  0  -0.333373  -0.587851  0  2.336328  0
O  O117  1  0.01884654  0.08042695  0.95108662  1  0  -0.690412  0  2.068274  0  0  -0.612217  0  2.32949  0  0  -0.646661  0  2.318039  0  -1.174193  0  -0.333393  -0.587886  0  2.336383  0
O  O118  1  0.51883383  0.08042557  0.54891478  1  0  -0.690428  0  2.068269  0  0  -0.612216  0  2.329534  0  0  -0.646655  0  2.318092  0  -1.174194  0  -0.333354  -0.587885  0  2.336426  0
O  O119  1  0.98115123  0.91956936  0.04891408  1  0  -0.690347  0  2.06829  0  0  -0.612167  0  2.329483  0  0  -0.646604  0  2.318034  0  -1.174128  0  -0.333365  -0.587837  0  2.336375  0
O  O120  1  0.36201900  0.61638015  0.45241197  1  0  -0.640105  0  2.001107  0  0  -0.569687  0  2.232285  0  0  -0.599759  0  2.222  0  -1.170743  0  -0.31185  -0.548641  0  2.238674  0
O  O121  1  0.13797541  0.38361478  0.95241232  1  0  -0.640073  0  2.001185  0  0  -0.569685  0  2.232408  0  0  -0.599755  0  2.222113  0  -1.170741  0  -0.311846  -0.548637  0  2.238797  0
O  O122  1  0.63797766  0.38361753  0.54758803  1  0  -0.640163  0  2.001144  0  0  -0.569695  0  2.232351  0  0  -0.599763  0  2.222068  0  -1.170822  0  -0.311855  -0.548649  0  2.23874  0
O  O123  1  0.86201889  0.61638015  0.04758908  1  0  -0.640116  0  2.00115  0  0  -0.56972  0  2.232344  0  0  -0.599789  0  2.222057  0  -1.170858  0  -0.31185  -0.548672  0  2.238735  0
O  O124  1  0.65844144  0.73785153  0.54427536  1  0  -0.821331  0  1.866254  0  0  -0.759895  0  2.056235  0  0  -0.781795  0  2.0261  0  -1.239829  0  -0.554161  -0.744348  0  2.077198  0
O  O125  1  0.84155054  0.26214615  0.04427676  1  0  -0.821312  0  1.866286  0  0  -0.75986  0  2.056273  0  0  -0.78176  0  2.026139  0  -1.239803  0  -0.554136  -0.744312  0  2.077231  0
O  O126  1  0.34155271  0.26215301  0.45572289  1  0  -0.821319  0  1.866187  0  0  -0.759874  0  2.056157  0  0  -0.781775  0  2.026019  0  -1.239774  0  -0.554121  -0.744328  0  2.07712  0
O  O127  1  0.15844335  0.73784741  0.95572289  1  0  -0.821286  0  1.866286  0  0  -0.759821  0  2.05625  0  0  -0.781721  0  2.026115  0  -1.239774  0  -0.554078  -0.744266  0  2.077227  0
O  O128  1  0.01355488  0.81844316  0.48433927  1  0  -0.840597  0  1.849479  0  0  -0.778336  0  2.036897  0  0  -0.8021  0  2.002294  0  -1.277414  0  -0.590942  -0.761476  0  2.060921  0
O  O129  1  0.48643966  0.18155726  0.98434032  1  0  -0.840687  0  1.849433  0  0  -0.778408  0  2.036828  0  0  -0.802171  0  2.002225  0  -1.27748  0  -0.590973  -0.76155  0  2.060853  0
O  O130  1  0.98643803  0.18155726  0.51565968  1  0  -0.840639  0  1.849448  0  0  -0.778347  0  2.036838  0  0  -0.802113  0  2.002232  0  -1.277496  0  -0.590949  -0.761486  0  2.060864  0
O  O131  1  0.51355423  0.81843630  0.01566073  1  0  -0.840649  0  1.849387  0  0  -0.778389  0  2.036788  0  0  -0.802151  0  2.00218  0  -1.277383  0  -0.59097  -0.761532  0  2.060816  0
