# generated using pymatgen
data_Zr6H44C59O32
_symmetry_space_group_name_H-M   'P 1'
_cell_length_a   14.77375095
_cell_length_b   14.75597901
_cell_length_c   14.75526339
_cell_angle_alpha   60.06986886
_cell_angle_beta   60.02799019
_cell_angle_gamma   60.06740638
_symmetry_Int_Tables_number   1
_chemical_formula_structural   Zr6H44C59O32
_chemical_formula_sum   'Zr6 H44 C59 O32'
_cell_volume   2277.36440831
_cell_formula_units_Z   1
loop_
 _symmetry_equiv_pos_site_id
 _symmetry_equiv_pos_as_xyz
  1  'x, y, z'
loop_
 _atom_site_type_symbol
 _atom_site_label
 _atom_site_symmetry_multiplicity
 _atom_site_fract_x
 _atom_site_fract_y
 _atom_site_fract_z
 _atom_site_occupancy
 _atom_site_pbe_bader_charge
 _atom_site_pbe_bader_spin_density
 _atom_site_pbe_cm5_charge
 _atom_site_pbe_ddec_charge
 _atom_site_pbe_ddec_spin_density
 _atom_site_pbe_ddec_sum_bond_order
 _atom_site_pbe_magmom
Zr  Zr0  1  0.87804907  0.88387764  0.61534754  1  2.636168  0  1.628082  2.3741  0  2.761932  0
Zr  Zr1  1  0.11863498  0.12164243  0.37988335  1  2.63143  0  1.629351  2.36783  0  2.764439  0
Zr  Zr2  1  0.11671972  0.88117193  0.61915680  1  2.632235  0  1.624585  2.371208  0  2.746474  0
Zr  Zr3  1  0.88010857  0.12246135  0.37675281  1  2.638507  0  1.627904  2.374476  0  2.752507  0
Zr  Zr4  1  0.11996972  0.88346477  0.37728612  1  2.628687  0  1.628415  2.370923  0  2.764343  0
Zr  Zr5  1  0.87899501  0.12227046  0.61724538  1  2.631834  0  1.626856  2.371416  0  2.76033  0
H  H6  1  0.09455880  0.71973021  0.59093181  1  0.612396  0  0.326775  0.415385  0  0.873934  0
H  H7  1  0.09644250  0.09634649  0.21490532  1  0.610323  0  0.326068  0.413635  0  0.877697  0
H  H8  1  0.09174720  0.09370890  0.59611824  1  0.605216  0  0.32997  0.420132  0  0.86081  0
H  H9  1  0.71616338  0.09822104  0.58926174  1  0.601076  0  0.332417  0.425118  0  0.854012  0
H  H10  1  0.82330633  0.63025700  0.58480522  1  0.091897  0  0.110155  0.117502  0  0.990095  0
H  H11  1  0.17417179  0.54541871  0.41316913  1  0.075973  0  0.104033  0.109551  0  1.015049  0
H  H12  1  0.82915626  0.45686639  0.58475992  1  0.094206  0  0.109103  0.114504  0  0.991698  0
H  H13  1  0.59614011  0.84307704  0.93137224  1  0.13411  0  0.110711  0.119286  0  0.988185  0
H  H14  1  0.58069596  0.15514842  0.89968016  1  0.091167  0  0.107327  0.1144  0  1.010122  0
H  H15  1  0.42589382  0.85019862  0.10124132  1  0.110737  0  0.105564  0.10826  0  1.018039  0
H  H16  1  0.16697194  0.88977036  0.05115094  1  0.093462  0  0.108861  0.116139  0  0.990916  0
H  H17  1  0.82327789  0.08928485  0.13224240  1  0.072336  0  0.107781  0.116396  0  1.001504  0
H  H18  1  0.15827619  0.89231558  0.88404161  1  0.100441  0  0.104975  0.107987  0  1.014974  0
H  H19  1  0.58499673  0.42416625  0.64031440  1  0.087685  0  0.107576  0.113895  0  0.995844  0
H  H20  1  0.60377294  0.42906988  0.33853261  1  0.066166  0  0.108105  0.117517  0  1.002916  0
H  H21  1  0.41407783  0.59314796  0.63561833  1  0.062779  0  0.10763  0.112381  0  1.004352  0
H  H22  1  0.02971430  0.56411326  0.72435106  1  0.05451  0  0.095412  0.094694  0  1.039803  0
H  H23  1  0.07463595  0.38500306  0.71308451  1  0.058521  0  0.0959  0.094129  0  1.013481  0
H  H24  1  0.03722224  0.22670962  0.06011708  1  0.039006  0  0.095504  0.095064  0  1.037807  0
H  H25  1  0.07859731  0.21475978  0.88256512  1  0.053333  0  0.097139  0.094822  0  1.007217  0
H  H26  1  0.59201154  0.13607512  0.33706882  1  0.096765  0  0.108012  0.114369  0  0.994157  0
H  H27  1  0.59254607  0.85682283  0.63711994  1  0.088529  0  0.107102  0.11505  0  1.006924  0
H  H28  1  0.42110772  0.12865400  0.34636679  1  0.107514  0  0.106837  0.110481  0  1.012019  0
H  H29  1  0.22924173  0.26337825  0.45891373  1  0.057316  0  0.091539  0.132539  0  1.010373  0
H  H30  1  0.22789440  0.35201537  0.32442306  1  0.045539  0  0.099648  0.143789  0  0.98487  0
H  H31  1  0.28237702  0.37424014  0.39296468  1  0.01171  0  0.089883  0.123224  0  1.000977  0
H  H32  1  0.44958679  0.25162129  0.01339004  1  -0.013086  0  0.088448  0.119812  0  1.00386  0
H  H33  1  0.31547324  0.23772250  0.08115075  1  0.08629  0  0.098627  0.145647  0  0.993715  0
H  H34  1  0.40616831  0.17056344  0.15647708  1  0.057418  0  0.095683  0.13683  0  1.002431  0
H  H35  1  0.77389669  0.18439109  0.90082428  1  0.05713  0  0.099174  0.142174  0  0.98477  0
H  H36  1  0.75906232  0.05565794  0.94904677  1  0.067826  0  0.093779  0.138023  0  1.015893  0
H  H37  1  0.71224018  0.12134828  0.04580242  1  0.009565  0  0.089024  0.121611  0  1.003187  0
H  H38  1  0.34564650  0.60787751  0.32623156  1  0.044684  0  0.095352  0.136171  0  1.008952  0
H  H39  1  0.42621356  0.69418896  0.25349199  1  0.07349  0  0.096415  0.140126  0  1.011513  0
H  H40  1  0.48726970  0.55813494  0.24486540  1  0.015033  0  0.089174  0.121257  0  1.002568  0
H  H41  1  0.46824592  0.76959335  0.72941132  1  0.004867  0  0.088801  0.120093  0  1.003894  0
H  H42  1  0.32984466  0.85461050  0.73011532  1  0.081712  0  0.094948  0.136023  0  1.007589  0
H  H43  1  0.40941062  0.76599962  0.65118807  1  0.048718  0  0.098022  0.143027  0  1.001948  0
H  H44  1  0.84473858  0.57713956  0.24030826  1  0.038668  0  0.094394  0.126897  0  0.992754  0
H  H45  1  0.94264429  0.44420155  0.28058385  1  0.05222  0  0.095349  0.13969  0  1.013354  0
H  H46  1  0.98200117  0.56416454  0.20805398  1  0.05084  0  0.096042  0.13222  0  0.988704  0
H  H47  1  0.98420948  0.72266700  0.04316191  1  0.048816  0  0.095745  0.132167  0  0.991136  0
H  H48  1  0.92092544  0.78957827  0.94087370  1  0.05592  0  0.095122  0.136992  0  1.007721  0
H  H49  1  0.84417405  0.73843880  0.08300117  1  0.038087  0  0.094682  0.127482  0  0.994086  0
C  C50  1  0.99733221  0.70150508  0.49331736  1  1.552274  0  0.236489  0.638721  0  4.102745  0
C  C51  1  0.30805246  0.00206041  0.19726719  1  1.524743  0  0.235708  0.640284  0  4.092841  0
C  C52  1  0.99962701  0.30685527  0.49818886  1  1.539253  0  0.235524  0.639534  0  4.103504  0
C  C53  1  0.69696450  0.99984423  0.80348649  1  1.528815  0  0.235731  0.63614  0  4.103674  0
C  C54  1  0.98972041  0.70223882  0.80564797  1  1.565178  0  0.239501  0.659801  0  4.102168  0
C  C55  1  0.69992062  0.00034307  0.48864535  1  1.562701  0  0.236904  0.638087  0  4.100839  0
C  C56  1  0.99469344  0.31037487  0.19743589  1  1.557056  0  0.239501  0.659933  0  4.101237  0
C  C57  1  0.30683335  0.99492419  0.49752562  1  1.550894  0  0.235581  0.639107  0  4.097062  0
C  C58  1  0.30862717  0.70288673  0.49200351  1  1.535946  0  0.237268  0.643476  0  4.087677  0
C  C59  1  0.99112800  0.99536055  0.80967482  1  1.543806  0  0.235344  0.638811  0  4.100037  0
C  C60  1  0.70121926  0.31261840  0.49268577  1  1.533583  0  0.237102  0.640809  0  4.095838  0
C  C61  1  0.99867331  0.99570295  0.19701607  1  1.553754  0  0.237045  0.637886  0  4.099365  0
C  C62  1  0.00439225  0.40525981  0.49878763  1  0.01402  0  -0.013054  -0.09972  0  3.911265  0
C  C63  1  0.99857153  0.59845987  0.49626752  1  -0.030194  0  -0.01272  -0.02366  0  3.990417  0
C  C64  1  0.10490066  0.42698861  0.45112356  1  -0.038151  0  0.004271  0.163942  0  3.930125  0
C  C65  1  0.90057074  0.57369260  0.54715414  1  -0.029272  0  -0.082884  -0.102543  0  3.98667  0
C  C66  1  0.09878227  0.52517109  0.45007213  1  -0.038942  0  -0.084413  -0.162268  0  3.932877  0
C  C67  1  0.90417621  0.47775366  0.54737966  1  -0.01073  0  -0.080409  -0.085067  0  3.989655  0
C  C68  1  0.40930881  0.00526869  0.09633253  1  0.006686  0  -0.013071  -0.101887  0  3.900836  0
C  C69  1  0.59783577  0.99939008  0.90623287  1  -0.065784  0  -0.015447  -0.028429  0  3.993477  0
C  C70  1  0.45186171  0.09401508  0.04042484  1  0.008876  0  0.007969  0.173588  0  3.912913  0
C  C71  1  0.55538854  0.91207897  0.96237470  1  -0.003591  0  -0.084665  -0.102672  0  3.987357  0
C  C72  1  0.54608364  0.08814150  0.94563489  1  -0.019021  0  -0.08371  -0.162512  0  3.932328  0
C  C73  1  0.46170106  0.91615425  0.05631829  1  -0.108285  0  -0.082659  -0.087551  0  3.99882  0
C  C74  1  0.98661709  0.99292284  0.91427703  1  -0.063594  0  -0.013299  -0.100456  0  3.908374  0
C  C75  1  0.99541014  0.99177532  0.09967789  1  0.005971  0  -0.013284  -0.023267  0  3.988585  0
C  C76  1  0.88868952  0.04798558  0.98512209  1  0.027835  0  0.007883  0.172483  0  3.918652  0
C  C77  1  0.09056862  0.93391914  0.03152239  1  -0.054955  0  -0.086375  -0.107428  0  3.995661  0
C  C78  1  0.89641954  0.04674568  0.07645060  1  -0.039753  0  -0.081165  -0.157191  0  3.920688  0
C  C79  1  0.08538576  0.93546368  0.93936997  1  -0.023542  0  -0.08429  -0.09359  0  4.008805  0
C  C80  1  0.41320556  0.60548823  0.48498331  1  -0.019795  0  -0.013931  -0.103607  0  3.898466  0
C  C81  1  0.60314778  0.41649320  0.48964073  1  0.023428  0  -0.014475  -0.027067  0  3.991213  0
C  C82  1  0.46656981  0.56095812  0.39786581  1  -0.028607  0  0.00713  0.172216  0  3.913788  0
C  C83  1  0.55141406  0.46283131  0.57357514  1  -0.064993  0  -0.08617  -0.10494  0  3.994127  0
C  C84  1  0.56104386  0.46639556  0.40322316  1  -0.017659  0  -0.083537  -0.159779  0  3.92533  0
C  C85  1  0.45721892  0.55631474  0.57055107  1  0.022436  0  -0.081829  -0.085787  0  3.995357  0
C  C86  1  0.98662330  0.60205817  0.90830856  1  -0.000236  0  -0.013901  -0.137093  0  3.923209  0
C  C87  1  0.01196575  0.49966992  0.89874185  1  -0.034247  0  -0.004788  0.057999  0  3.988584  0
C  C88  1  0.96031901  0.61089773  0.00860403  1  0.005161  0  -0.003173  0.096172  0  3.927331  0
C  C89  1  0.03486280  0.49006562  0.79754198  1  -0.030222  0  -0.095814  -0.13053  0  3.981635  0
C  C90  1  0.05880174  0.38975289  0.79145320  1  -0.048144  0  -0.098148  -0.087058  0  4.044878  0
C  C91  1  0.99102211  0.41269904  0.09697497  1  -0.000857  0  -0.014745  -0.141421  0  3.925443  0
C  C92  1  0.96307584  0.51379214  0.10521469  1  -0.017444  0  -0.002651  0.098017  0  3.927675  0
C  C93  1  0.01400126  0.40258533  0.99556275  1  0.008512  0  -0.005043  0.058607  0  3.988192  0
C  C94  1  0.03898203  0.30048564  0.98639742  1  -0.045616  0  -0.096114  -0.131845  0  3.98302  0
C  C95  1  0.06095480  0.29391034  0.88693781  1  -0.021241  0  -0.098071  -0.086222  0  4.045622  0
C  C96  1  0.41081267  0.98956753  0.49704067  1  -0.060148  0  -0.013985  -0.103574  0  3.900172  0
C  C97  1  0.60130389  0.99652719  0.48772596  1  -0.094983  0  -0.01409  -0.024183  0  3.988143  0
C  C98  1  0.45867679  0.90972750  0.58118784  1  0.014974  0  0.006993  0.172517  0  3.915604  0
C  C99  1  0.55446328  0.07365554  0.40411452  1  -0.022942  0  -0.085845  -0.105427  0  3.993678  0
C  C100  1  0.55381350  0.91588277  0.57360197  1  0.002149  0  -0.083673  -0.160104  0  3.925961  0
C  C101  1  0.46006462  0.06934575  0.40960053  1  -0.020643  0  -0.08258  -0.088327  0  3.999293  0
C  C102  1  0.21702780  0.35011857  0.40456401  1  -0.027123  0  -0.239598  -0.413123  0  3.975729  0
C  C103  1  0.40312704  0.19403853  0.07445922  1  -0.035566  0  -0.238029  -0.411028  0  3.967931  0
C  C104  1  0.77747184  0.10516655  0.96960056  1  -0.025789  0  -0.239746  -0.414899  0  3.972884  0
C  C105  1  0.42958154  0.60750169  0.30030305  1  -0.02651  0  -0.239157  -0.412214  0  3.970114  0
C  C106  1  0.41443811  0.81998285  0.67822291  1  -0.032715  0  -0.23813  -0.410587  0  3.968275  0
C  C107  1  0.93185668  0.52453146  0.21428832  1  -0.06  0  -0.235565  -0.398949  0  3.961319  0
C  C108  1  0.92585914  0.72110935  0.01876891  1  -0.068976  0  -0.235382  -0.397336  0  3.962875  0
O  O109  1  0.91815443  0.74326685  0.56802354  1  -1.182584  0  -0.355769  -0.618731  0  2.287752  0
O  O110  1  0.26539505  0.07756334  0.23983184  1  -1.179199  0  -0.35462  -0.608751  0  2.335388  0
O  O111  1  0.07407923  0.26767209  0.42003970  1  -1.181929  0  -0.353837  -0.61485  0  2.318848  0
O  O112  1  0.73432864  0.92427269  0.76286162  1  -1.17764  0  -0.352314  -0.613327  0  2.278344  0
O  O113  1  0.06878982  0.73870276  0.76643412  1  -1.17538  0  -0.351904  -0.616509  0  2.251377  0
O  O114  1  0.73743119  0.07916482  0.41330266  1  -1.185341  0  -0.353691  -0.616991  0  2.270398  0
O  O115  1  0.91922911  0.26904447  0.23654695  1  -1.176911  0  -0.35698  -0.61896  0  2.279942  0
O  O116  1  0.26320798  0.92087596  0.57464340  1  -1.184028  0  -0.352003  -0.608289  0  2.333905  0
O  O117  1  0.26574873  0.74415548  0.41713477  1  -1.182848  0  -0.355739  -0.611669  0  2.34178  0
O  O118  1  0.91765203  0.07429578  0.76641323  1  -1.182345  0  -0.349433  -0.607656  0  2.315534  0
O  O119  1  0.73897358  0.27163866  0.57147466  1  -1.178399  0  -0.359113  -0.623595  0  2.278305  0
O  O120  1  0.07852577  0.92200984  0.23354643  1  -1.18519  0  -0.357792  -0.61878  0  2.276894  0
O  O121  1  0.07035648  0.92000314  0.76850786  1  -1.185163  0  -0.356282  -0.625925  0  2.284035  0
O  O122  1  0.73893237  0.27104456  0.41772712  1  -1.177671  0  -0.352548  -0.614913  0  2.286022  0
O  O123  1  0.92227535  0.07358338  0.23544209  1  -1.186203  0  -0.352768  -0.618115  0  2.287833  0
O  O124  1  0.26699725  0.73796617  0.57291996  1  -1.181325  0  -0.35226  -0.621005  0  2.269099  0
O  O125  1  0.91444249  0.74225080  0.76398942  1  -1.180164  0  -0.354114  -0.618848  0  2.274108  0
O  O126  1  0.26684490  0.07463334  0.42170882  1  -1.188263  0  -0.353773  -0.623447  0  2.296229  0
O  O127  1  0.07272548  0.27113231  0.23515450  1  -1.179248  0  -0.346781  -0.616534  0  2.252969  0
O  O128  1  0.73837878  0.92498815  0.56679721  1  -1.184896  0  -0.356308  -0.618115  0  2.301393  0
O  O129  1  0.73645566  0.07726344  0.76289138  1  -1.180185  0  -0.357057  -0.623463  0  2.3055  0
O  O130  1  0.07614971  0.73897257  0.41798931  1  -1.181  0  -0.353731  -0.617975  0  2.273275  0
O  O131  1  0.26932242  0.92496085  0.23435176  1  -1.178169  0  -0.352486  -0.621377  0  2.279617  0
O  O132  1  0.92138300  0.26903838  0.57462145  1  -1.176803  0  -0.352109  -0.618863  0  2.270467  0
O  O133  1  0.79649241  0.07106966  0.56312783  1  -1.22938  0  -0.695246  -1.070193  0  2.361208  0
O  O134  1  0.06537186  0.06850396  0.56730130  1  -1.234303  0  -0.695351  -1.068863  0  2.372838  0
O  O135  1  0.06769017  0.07014542  0.29529446  1  -1.243298  0  -0.695747  -1.068823  0  2.380494  0
O  O136  1  0.06570600  0.80008933  0.56495119  1  -1.242691  0  -0.695382  -1.069541  0  2.375338  0
O  O137  1  0.14770967  0.95249144  0.44943137  1  -1.194711  0  -0.79299  -1.148379  0  2.141156  0
O  O138  1  0.95031848  0.95318342  0.44630977  1  -1.202697  0  -0.791923  -1.148536  0  2.12597  0
O  O139  1  0.94955183  0.15161696  0.44811397  1  -1.199037  0  -0.792877  -1.149458  0  2.132093  0
O  O140  1  0.94771923  0.95254745  0.64697377  1  -1.200551  0  -0.791404  -1.15075  0  2.129781  0
