# generated using pymatgen
data_AgH18C20IN2
_symmetry_space_group_name_H-M   'P 1'
_cell_length_a   4.47752171
_cell_length_b   18.22469713
_cell_length_c   25.31032400
_cell_angle_alpha   90.00013939
_cell_angle_beta   90.99431230
_cell_angle_gamma   89.99988644
_symmetry_Int_Tables_number   1
_chemical_formula_structural   AgH18C20IN2
_chemical_formula_sum   'Ag4 H72 C80 I4 N8'
_cell_volume   2065.04882671
_cell_formula_units_Z   4
loop_
 _symmetry_equiv_pos_site_id
 _symmetry_equiv_pos_as_xyz
  1  'x, y, z'
loop_
 _atom_site_type_symbol
 _atom_site_label
 _atom_site_symmetry_multiplicity
 _atom_site_fract_x
 _atom_site_fract_y
 _atom_site_fract_z
 _atom_site_occupancy
 _atom_site_pbe_bader_charge
 _atom_site_pbe_bader_spin_density
 _atom_site_pbe_cm5_charge
 _atom_site_pbe_ddec_charge
 _atom_site_pbe_ddec_spin_density
 _atom_site_pbe_ddec_sum_bond_order
 _atom_site_pbe_magmom
Ag  Ag0  1  0.30383050  0.44682184  0.45522883  1  0.277223  0  0.194755  0.09632  0  2.545766  0
Ag  Ag1  1  0.30382789  0.05317938  0.95522859  1  0.27686  0  0.194736  0.096287  0  2.545829  0
Ag  Ag2  1  0.69616987  0.55317757  0.54477069  1  0.276894  0  0.194755  0.096305  0  2.545755  0
Ag  Ag3  1  0.69617025  0.94682113  0.04477132  1  0.276946  0  0.194751  0.096295  0  2.545807  0
H  H4  1  0.74324442  0.19768268  0.33422086  1  0.071712  0  0.086384  0.073336  0  1.088322  0
H  H5  1  0.74324208  0.30231901  0.83422145  1  0.071697  0  0.08636  0.073297  0  1.088374  0
H  H6  1  0.25675819  0.80231782  0.66577828  1  0.071695  0  0.086361  0.073318  0  1.088327  0
H  H7  1  0.25675829  0.69768095  0.16577808  1  0.071671  0  0.086372  0.073333  0  1.088353  0
H  H8  1  0.58258568  0.09140542  0.28216479  1  0.063992  0  0.094556  0.091293  0  1.019347  0
H  H9  1  0.58258251  0.40859507  0.78216517  1  0.063955  0  0.09456  0.091296  0  1.019429  0
H  H10  1  0.41741916  0.90859563  0.71783475  1  0.063952  0  0.094551  0.091301  0  1.019405  0
H  H11  1  0.41741340  0.59140433  0.21783434  1  0.063956  0  0.094573  0.091291  0  1.019435  0
H  H12  1  0.76751796  0.07209242  0.19062906  1  0.064468  0  0.095469  0.096142  0  1.035747  0
H  H13  1  0.76751464  0.42790768  0.69062908  1  0.064451  0  0.095476  0.096187  0  1.035702  0
H  H14  1  0.23248687  0.92790699  0.80937087  1  0.064463  0  0.095472  0.096194  0  1.035684  0
H  H15  1  0.23248350  0.57209173  0.30937004  1  0.064475  0  0.095478  0.096192  0  1.035699  0
H  H16  1  0.12122455  0.16014281  0.15224445  1  0.07711  0  0.086273  0.088038  0  1.061966  0
H  H17  1  0.12121968  0.33985638  0.65224470  1  0.077135  0  0.086232  0.087995  0  1.061924  0
H  H18  1  0.87878922  0.83985660  0.84775512  1  0.077152  0  0.086256  0.088022  0  1.061969  0
H  H19  1  0.87877623  0.66014248  0.34775441  1  0.077158  0  0.086252  0.088031  0  1.061928  0
H  H20  1  0.41229753  0.27212760  0.15857231  1  0.049399  0  0.098899  0.10271  0  1.032185  0
H  H21  1  0.41228685  0.22787092  0.65857234  1  0.048912  0  0.098868  0.102698  0  1.032196  0
H  H22  1  0.58771177  0.72787181  0.84142764  1  0.048906  0  0.09889  0.102727  0  1.032158  0
H  H23  1  0.58770683  0.77212849  0.34142677  1  0.048916  0  0.098889  0.102721  0  1.032196  0
H  H24  1  0.71562463  0.38230879  0.16313590  1  0.035615  0  0.09492  0.093502  0  1.007513  0
H  H25  1  0.71562598  0.11769124  0.66313617  1  0.035619  0  0.094918  0.093514  0  1.007502  0
H  H26  1  0.28437350  0.61769227  0.83686362  1  0.035624  0  0.094947  0.09353  0  1.007521  0
H  H27  1  0.28437216  0.88230652  0.33686374  1  0.035612  0  0.094958  0.093537  0  1.007537  0
H  H28  1  0.90549660  0.49085109  0.21339190  1  0.056589  0  0.09541  0.093324  0  1.013754  0
H  H29  1  0.90549657  0.00914901  0.71339119  1  0.05657  0  0.095404  0.093302  0  1.013739  0
H  H30  1  0.09450600  0.50914996  0.78660803  1  0.056626  0  0.095422  0.093329  0  1.013761  0
H  H31  1  0.09450379  0.99085040  0.28660873  1  0.056593  0  0.095395  0.093302  0  1.013712  0
H  H32  1  0.73230395  0.51275454  0.30531294  1  0.099604  0  0.088692  0.088148  0  1.05754  0
H  H33  1  0.73230017  0.98724447  0.80531188  1  0.099597  0  0.088688  0.088164  0  1.05754  0
H  H34  1  0.26770534  0.48724487  0.69468819  1  0.099655  0  0.088709  0.088194  0  1.057531  0
H  H35  1  0.26770243  0.01275548  0.19468845  1  0.099656  0  0.088695  0.088184  0  1.057465  0
H  H36  1  0.38375340  0.43038350  0.34709245  1  0.061279  0  0.082023  0.077135  0  1.097217  0
H  H37  1  0.38375065  0.06961511  0.84709303  1  0.061293  0  0.082001  0.077121  0  1.097174  0
H  H38  1  0.61625368  0.56961481  0.65290710  1  0.061284  0  0.082005  0.077142  0  1.097132  0
H  H39  1  0.61624749  0.93038429  0.15290728  1  0.061282  0  0.082032  0.077195  0  1.097122  0
H  H40  1  0.00021294  0.37879813  0.36610860  1  0.107786  0  0.105537  0.095528  0  1.035639  0
H  H41  1  0.00021425  0.12120183  0.86610888  1  0.107797  0  0.105545  0.095538  0  1.035636  0
H  H42  1  0.99978519  0.62120127  0.63389132  1  0.107782  0  0.105558  0.095538  0  1.035623  0
H  H43  1  0.99978611  0.87879758  0.13389143  1  0.107807  0  0.105553  0.095549  0  1.035618  0
H  H44  1  0.80189783  0.29586596  0.36326046  1  0.065757  0  0.105518  0.090195  0  1.029026  0
H  H45  1  0.80189403  0.20413469  0.86326008  1  0.065731  0  0.105556  0.090217  0  1.028972  0
H  H46  1  0.19810031  0.70413454  0.63673906  1  0.065766  0  0.105513  0.090183  0  1.028965  0
H  H47  1  0.19810411  0.79586471  0.13673944  1  0.065734  0  0.105533  0.090189  0  1.029009  0
H  H48  1  0.23624891  0.17683589  0.37401368  1  0.130788  0  0.123808  0.127708  0  1.014032  0
H  H49  1  0.23624642  0.32316454  0.87401273  1  0.130748  0  0.123843  0.127724  0  1.014005  0
H  H50  1  0.76373804  0.82316187  0.62598738  1  0.130748  0  0.123831  0.127706  0  1.014196  0
H  H51  1  0.76375172  0.67683597  0.12598600  1  0.130755  0  0.123814  0.12772  0  1.014036  0
H  H52  1  0.62964367  0.16678145  0.46038476  1  0.095655  0  0.123312  0.123231  0  0.997739  0
H  H53  1  0.62964110  0.33321962  0.96038422  1  0.095664  0  0.123291  0.123217  0  0.997741  0
H  H54  1  0.37034998  0.83321686  0.53961632  1  0.095584  0  0.123321  0.123264  0  0.997912  0
H  H55  1  0.37035257  0.66678143  0.03961528  1  0.095651  0  0.123316  0.123244  0  0.997705  0
H  H56  1  0.72979565  0.36234635  0.51245335  1  0.073023  0  0.091654  0.07752  0  1.051183  0
H  H57  1  0.72979622  0.13765535  0.01245304  1  0.073073  0  0.091666  0.077529  0  1.051119  0
H  H58  1  0.27020250  0.63765360  0.48754538  1  0.07302  0  0.091662  0.077561  0  1.051133  0
H  H59  1  0.27019967  0.86234680  0.98754726  1  0.073001  0  0.091693  0.077619  0  1.051089  0
H  H60  1  0.94520452  0.28211011  0.50406146  1  0.064236  0  0.100139  0.077489  0  0.999599  0
H  H61  1  0.94520223  0.21789256  0.00406168  1  0.064238  0  0.100114  0.077476  0  0.999623  0
H  H62  1  0.05479362  0.71789039  0.49593766  1  0.064239  0  0.10013  0.077438  0  0.999643  0
H  H63  1  0.05478919  0.78211014  0.99593900  1  0.064194  0  0.100108  0.077449  0  0.99962  0
H  H64  1  0.74164565  0.28821247  0.59550217  1  0.043243  0  0.090655  0.131165  0  1.019653  0
H  H65  1  0.74164118  0.21178896  0.09550198  1  0.043451  0  0.090665  0.131173  0  1.019635  0
H  H66  1  0.25835472  0.71178913  0.40449736  1  0.043413  0  0.09066  0.131182  0  1.019637  0
H  H67  1  0.25835025  0.78821154  0.90449831  1  0.043241  0  0.090658  0.131175  0  1.019613  0
H  H68  1  0.58252305  0.21147977  0.56161225  1  -0.012071  0  0.080708  0.106098  0  1.011776  0
H  H69  1  0.58251573  0.28852053  0.06161336  1  -0.012081  0  0.080734  0.106164  0  1.011797  0
H  H70  1  0.41747955  0.78852019  0.43838768  1  -0.012076  0  0.080748  0.106183  0  1.011798  0
H  H71  1  0.41747569  0.71147942  0.93838811  1  -0.012072  0  0.080739  0.10615  0  1.011673  0
H  H72  1  0.37277729  0.29436790  0.56942961  1  0.050607  0  0.08193  0.120271  0  1.03658  0
H  H73  1  0.37277509  0.20563307  0.06942981  1  0.050608  0  0.081936  0.12028  0  1.036569  0
H  H74  1  0.62722085  0.70563205  0.43056990  1  0.05062  0  0.081928  0.12028  0  1.036533  0
H  H75  1  0.62721856  0.79436798  0.93057127  1  0.050641  0  0.081934  0.120284  0  1.036507  0
C  C76  1  0.03073108  0.24397872  0.27383496  1  -0.033623  0  -0.006775  0.029612  0  3.963513  0
C  C77  1  0.03072463  0.25602201  0.77383545  1  -0.03357  0  -0.006791  0.029471  0  3.96364  0
C  C78  1  0.96928046  0.75602123  0.72616500  1  -0.033668  0  -0.006729  0.029589  0  3.963609  0
C  C79  1  0.96927127  0.74397739  0.22616406  1  -0.033644  0  -0.00677  0.029567  0  3.96363  0
C  C80  1  0.83010736  0.19059715  0.29463078  1  -0.090264  0  -0.1044  -0.15295  0  4.019739  0
C  C81  1  0.83010943  0.30940271  0.79463100  1  -0.090277  0  -0.104398  -0.152877  0  4.01972  0
C  C82  1  0.16989748  0.80940225  0.70536916  1  -0.090236  0  -0.104414  -0.152951  0  4.019704  0
C  C83  1  0.16989094  0.69059669  0.20536813  1  -0.090214  0  -0.104422  -0.153011  0  4.019775  0
C  C84  1  0.73870972  0.13074483  0.26549211  1  -0.015031  0  -0.094941  -0.075073  0  4.01958  0
C  C85  1  0.73870685  0.36925608  0.76549282  1  -0.015026  0  -0.094902  -0.075028  0  4.019496  0
C  C86  1  0.26129512  0.86925513  0.73450703  1  -0.014996  0  -0.094911  -0.075057  0  4.019491  0
C  C87  1  0.26129128  0.63074332  0.23450670  1  -0.01505  0  -0.094876  -0.074923  0  4.019396  0
C  C88  1  0.84186495  0.11970365  0.21333628  1  -0.093474  0  -0.095236  -0.080372  0  4.005521  0
C  C89  1  0.84185977  0.38029703  0.71333621  1  -0.093417  0  -0.095244  -0.080468  0  4.005438  0
C  C90  1  0.15814659  0.88029685  0.78666368  1  -0.093452  0  -0.095229  -0.080462  0  4.005361  0
C  C91  1  0.15813614  0.61970347  0.28666291  1  -0.093543  0  -0.095262  -0.080494  0  4.005515  0
C  C92  1  0.03561021  0.16924209  0.19184345  1  -0.071814  0  -0.092175  -0.127388  0  3.974209  0
C  C93  1  0.03560541  0.33075672  0.69184369  1  -0.071857  0  -0.092202  -0.127413  0  3.974203  0
C  C94  1  0.96439686  0.83075677  0.80815689  1  -0.07177  0  -0.092201  -0.127403  0  3.974102  0
C  C95  1  0.96439049  0.66924158  0.30815582  1  -0.07174  0  -0.092195  -0.127437  0  3.974215  0
C  C96  1  0.13451822  0.23210406  0.22067374  1  0.039833  0  -0.009481  0.078555  0  4.024921  0
C  C97  1  0.13450945  0.26789590  0.72067385  1  0.039767  0  -0.009401  0.078687  0  4.024914  0
C  C98  1  0.86549332  0.76789535  0.77932582  1  0.039689  0  -0.00946  0.078611  0  4.024907  0
C  C99  1  0.86548646  0.73210296  0.27932526  1  0.039787  0  -0.009456  0.078643  0  4.024858  0
C  C100  1  0.33231708  0.28211084  0.19839439  1  -0.01333  0  -0.084585  -0.174497  0  3.946941  0
C  C101  1  0.33230871  0.21788839  0.69839362  1  -0.012778  0  -0.084561  -0.174498  0  3.946802  0
C  C102  1  0.66769222  0.71788857  0.80160635  1  -0.012786  0  -0.08458  -0.174525  0  3.946833  0
C  C103  1  0.66768496  0.78211046  0.30160588  1  -0.012796  0  -0.084589  -0.174554  0  3.946864  0
C  C104  1  0.43478810  0.34361915  0.22617575  1  -0.045845  0  -0.00942  0.07597  0  4.034841  0
C  C105  1  0.43478243  0.15637958  0.72617607  1  -0.045841  0  -0.009446  0.075974  0  4.034838  0
C  C106  1  0.56521897  0.65638080  0.77382420  1  -0.045863  0  -0.009464  0.075919  0  4.034799  0
C  C107  1  0.56521793  0.84361928  0.27382385  1  -0.04584  0  -0.009444  0.075987  0  4.034793  0
C  C108  1  0.63930691  0.39376750  0.20303343  1  -0.065626  0  -0.094221  -0.137249  0  4.005839  0
C  C109  1  0.63930611  0.10623215  0.70303368  1  -0.065643  0  -0.094295  -0.137379  0  4.005942  0
C  C110  1  0.36069346  0.60623355  0.79696610  1  -0.065618  0  -0.094236  -0.137274  0  4.005857  0
C  C111  1  0.36069425  0.89376726  0.29696664  1  -0.065622  0  -0.09423  -0.137299  0  4.005862  0
C  C112  1  0.74366686  0.45353422  0.23065476  1  -0.027307  0  -0.097115  -0.087969  0  4.039435  0
C  C113  1  0.74366653  0.04646492  0.73065490  1  -0.02725  0  -0.097051  -0.087848  0  4.039401  0
C  C114  1  0.25633798  0.54646628  0.76934478  1  -0.027199  0  -0.097133  -0.087977  0  4.039477  0
C  C115  1  0.25633830  0.95353448  0.26934582  1  -0.027212  0  -0.097124  -0.087914  0  4.039322  0
C  C116  1  0.64629978  0.46594441  0.28301839  1  -0.134694  0  -0.094434  -0.073897  0  3.993808  0
C  C117  1  0.64629732  0.03405386  0.78301811  1  -0.134737  0  -0.094392  -0.073875  0  3.993759  0
C  C118  1  0.35370728  0.53405444  0.71698195  1  -0.135326  0  -0.094381  -0.073887  0  3.993743  0
C  C119  1  0.35370974  0.96594555  0.21698263  1  -0.135415  0  -0.094373  -0.073897  0  3.993751  0
C  C120  1  0.44828916  0.41907130  0.30653724  1  -0.006914  0  -0.094972  -0.1209  0  3.954367  0
C  C121  1  0.44828632  0.08092770  0.80653744  1  -0.006919  0  -0.094974  -0.120874  0  3.954406  0
C  C122  1  0.55171791  0.58092866  0.69346270  1  -0.006426  0  -0.09505  -0.121004  0  3.954381  0
C  C123  1  0.55171404  0.91907171  0.19346327  1  -0.0063  0  -0.09504  -0.121023  0  3.954441  0
C  C124  1  0.33425901  0.35605185  0.27945531  1  -0.010959  0  -0.005408  0.033893  0  3.950768  0
C  C125  1  0.33425345  0.14394711  0.77945482  1  -0.010944  0  -0.00539  0.033829  0  3.950867  0
C  C126  1  0.66574582  0.64394756  0.72054502  1  -0.011314  0  -0.005336  0.034011  0  3.950753  0
C  C127  1  0.66574468  0.85605230  0.22054470  1  -0.010956  0  -0.005424  0.033849  0  3.95082  0
C  C128  1  0.13141237  0.30626346  0.30244517  1  -0.010836  0  -0.011556  -0.005486  0  3.875276  0
C  C129  1  0.13140642  0.19373568  0.80244556  1  -0.010838  0  -0.011569  -0.005383  0  3.875312  0
C  C130  1  0.86859469  0.69373650  0.69755477  1  -0.010467  0  -0.011595  -0.005451  0  3.87534  0
C  C131  1  0.86859172  0.80626263  0.19755435  1  -0.010838  0  -0.011531  -0.005377  0  3.875292  0
C  C132  1  0.02297622  0.32008274  0.35773466  1  0.260945  0  -0.056844  -0.104683  0  3.878486  0
C  C133  1  0.02297261  0.17991774  0.85773463  1  0.260929  0  -0.056917  -0.10479  0  3.878563  0
C  C134  1  0.97702191  0.67991722  0.64226526  1  0.260928  0  -0.056844  -0.104707  0  3.878393  0
C  C135  1  0.97702553  0.82008222  0.14226489  1  0.260938  0  -0.056892  -0.10471  0  3.878475  0
C  C136  1  0.31331696  0.21777816  0.40211712  1  0.33614  0  -0.004152  -0.109881  0  3.982234  0
C  C137  1  0.31331478  0.28222287  0.90211649  1  0.336035  0  -0.004165  -0.10989  0  3.982117  0
C  C138  1  0.68668785  0.78222235  0.59788677  1  0.336115  0  -0.004174  -0.109863  0  3.981922  0
C  C139  1  0.68667889  0.71777818  0.09788262  1  0.33618  0  -0.00412  -0.109853  0  3.982239  0
C  C140  1  0.50648021  0.21306590  0.44430232  1  0.310831  0  -0.007856  -0.116782  0  3.989066  0
C  C141  1  0.50647799  0.28693573  0.94430210  1  0.310868  0  -0.007829  -0.116742  0  3.988942  0
C  C142  1  0.49350231  0.78693625  0.55569517  1  0.310969  0  -0.007893  -0.116882  0  3.988715  0
C  C143  1  0.49351791  0.71306642  0.05569781  1  0.310821  0  -0.007837  -0.116746  0  3.989029  0
C  C144  1  0.35913562  0.33228326  0.43755077  1  0.802976  0  0.05301  -0.098822  0  3.706156  0
C  C145  1  0.35912987  0.16771786  0.93755111  1  0.803167  0  0.052977  -0.098915  0  3.706113  0
C  C146  1  0.64086474  0.66771669  0.56244915  1  0.803061  0  0.052997  -0.098814  0  3.706108  0
C  C147  1  0.64086603  0.83228319  0.06244880  1  0.803055  0  0.05295  -0.098895  0  3.7061  0
C  C148  1  0.71816289  0.30223013  0.51110035  1  0.316195  0  -0.065134  -0.016728  0  3.898818  0
C  C149  1  0.71816300  0.19777158  0.01110015  1  0.316117  0  -0.065152  -0.016778  0  3.898819  0
C  C150  1  0.28183301  0.69777038  0.48889956  1  0.316149  0  -0.065141  -0.016697  0  3.898776  0
C  C151  1  0.28183290  0.80223057  0.98889976  1  0.316184  0  -0.065153  -0.016759  0  3.898778  0
C  C152  1  0.59574108  0.27174085  0.56227082  1  -0.068088  0  -0.24933  -0.382655  0  3.948093  0
C  C153  1  0.59573871  0.22826054  0.06227106  1  -0.068315  0  -0.249331  -0.382689  0  3.94809  0
C  C154  1  0.40425705  0.72825966  0.43772909  1  -0.068269  0  -0.249367  -0.382781  0  3.948113  0
C  C155  1  0.40425495  0.77174106  0.93772963  1  -0.068079  0  -0.249337  -0.382712  0  3.94792  0
I  I156  1  0.80685257  0.53711452  0.42698687  1  -0.426502  0  -0.198967  -0.311118  0  1.988288  0
I  I157  1  0.80685120  0.96288541  0.92698735  1  -0.426175  0  -0.198951  -0.311092  0  1.988293  0
I  I158  1  0.19315003  0.46288269  0.57301345  1  -0.426194  0  -0.198975  -0.311118  0  1.988253  0
I  I159  1  0.19314693  0.03711619  0.07301256  1  -0.426324  0  -0.198967  -0.311109  0  1.988295  0
N  N160  1  0.22695881  0.29074454  0.39876318  1  -1.203958  0  -0.24675  0.056078  0  3.797182  0
N  N161  1  0.22695497  0.20925652  0.89876281  1  -1.204035  0  -0.246706  0.056216  0  3.79699  0
N  N162  1  0.77303709  0.70925431  0.60123712  1  -1.204038  0  -0.246698  0.056127  0  3.797145  0
N  N163  1  0.77304317  0.79074399  0.10123670  1  -1.203953  0  -0.24672  0.056081  0  3.797096  0
N  N164  1  0.53182817  0.28319713  0.46506204  1  -1.224673  0  -0.249917  0.053173  0  3.804402  0
N  N165  1  0.53182651  0.21680400  0.96506209  1  -1.224567  0  -0.249916  0.053164  0  3.804382  0
N  N166  1  0.46816773  0.71680228  0.53493787  1  -1.224633  0  -0.249878  0.053221  0  3.804241  0
N  N167  1  0.46816716  0.78319705  0.03493781  1  -1.224669  0  -0.249928  0.05314  0  3.804308  0
