# generated using pymatgen
data_CuH12C9(N2Cl)2
_symmetry_space_group_name_H-M   'P 1'
_cell_length_a   8.02722985
_cell_length_b   8.02723641
_cell_length_c   10.08996500
_cell_angle_alpha   106.90538480
_cell_angle_beta   106.90584541
_cell_angle_gamma   101.26078519
_symmetry_Int_Tables_number   1
_chemical_formula_structural   CuH12C9(N2Cl)2
_chemical_formula_sum   'Cu2 H24 C18 N8 Cl4'
_cell_volume   566.69245024
_cell_formula_units_Z   2
loop_
 _symmetry_equiv_pos_site_id
 _symmetry_equiv_pos_as_xyz
  1  'x, y, z'
loop_
 _atom_site_type_symbol
 _atom_site_label
 _atom_site_symmetry_multiplicity
 _atom_site_fract_x
 _atom_site_fract_y
 _atom_site_fract_z
 _atom_site_occupancy
 _atom_site_pbe_bader_spin_density
 _atom_site_pbe_cm5_charge
 _atom_site_pbe_ddec_charge
 _atom_site_pbe_ddec_spin_density
 _atom_site_pbe_ddec_sum_bond_order
 _atom_site_pbe_magmom
Cu  Cu0  1  0.38208886  0.38209088  0.30749305  1  0  0.578947  0.580145  0  2.449118  0
Cu  Cu1  1  0.61790349  0.61790347  0.69247583  1  0  0.578734  0.579906  0  2.448921  0
H  H2  1  0.87008506  0.31699086  0.06860812  1  0  0.092726  0.100223  0  1.022552  0
H  H3  1  0.68299916  0.12990724  0.93139213  1  0  0.092735  0.100271  0  1.022374  0
H  H4  1  0.12991236  0.68300246  0.93139240  1  0  0.09276  0.100279  0  1.02245  0
H  H5  1  0.31699563  0.87008602  0.06860778  1  0  0.092748  0.100262  0  1.022494  0
H  H6  1  0.46700702  0.26985141  0.03059705  1  0  0.102858  0.078176  0  1.020105  0
H  H7  1  0.73015309  0.53298753  0.96939803  1  0  0.10289  0.078222  0  1.020063  0
H  H8  1  0.53299158  0.73015546  0.96939792  1  0  0.102877  0.078214  0  1.020061  0
H  H9  1  0.26985777  0.46700743  0.03059702  1  0  0.102859  0.078158  0  1.020085  0
H  H10  1  0.65798998  0.45560297  0.17037941  1  0  0.102283  0.083978  0  1.024964  0
H  H11  1  0.54440249  0.34200789  0.82961270  1  0  0.10229  0.083996  0  1.024892  0
H  H12  1  0.34200990  0.54440391  0.82961189  1  0  0.102253  0.083945  0  1.024888  0
H  H13  1  0.45560557  0.65799106  0.17037965  1  0  0.102267  0.083926  0  1.024994  0
H  H14  1  0.81328829  0.05930562  0.14638022  1  0  0.111961  0.121621  0  1.05401  0
H  H15  1  0.94070033  0.18669550  0.85363918  1  0  0.111923  0.121568  0  1.053902  0
H  H16  1  0.18670204  0.94070390  0.85363527  1  0  0.111902  0.121561  0  1.054003  0
H  H17  1  0.05930662  0.81328997  0.14636966  1  0  0.111944  0.121628  0  1.053946  0
H  H18  1  0.74565512  0.92428742  0.35642328  1  0  0.098036  0.132763  0  1.047616  0
H  H19  1  0.07574041  0.25433149  0.64359501  1  0  0.098037  0.132874  0  1.047488  0
H  H20  1  0.25432893  0.07573684  0.64358919  1  0  0.098045  0.132884  0  1.047595  0
H  H21  1  0.92428225  0.74565434  0.35641255  1  0  0.098065  0.132805  0  1.047552  0
H  H22  1  0.51101534  0.10112438  0.44323935  1  0  0.116376  0.116607  0  1.016631  0
H  H23  1  0.89890212  0.48896449  0.55677192  1  0  0.116378  0.116618  0  1.016629  0
H  H24  1  0.48895215  0.89889670  0.55676167  1  0  0.116372  0.11659  0  1.016792  0
H  H25  1  0.10111613  0.51101036  0.44323014  1  0  0.116429  0.116688  0  1.016576  0
C  C26  1  0.72398413  0.27601446  0.00000186  1  0  -0.166347  -0.190591  0  3.931373  0
C  C27  1  0.27601704  0.72398302  0.99999750  1  0  -0.166394  -0.190623  0  3.931486  0
C  C28  1  0.61350367  0.30994079  0.09891060  1  0  -0.054612  -0.095802  0  3.908037  0
C  C29  1  0.69006377  0.38649327  0.90108833  1  0  -0.05461  -0.095821  0  3.908004  0
C  C30  1  0.38649232  0.69006603  0.90108673  1  0  -0.054585  -0.095773  0  3.907996  0
C  C31  1  0.30994695  0.61350578  0.09891060  1  0  -0.054618  -0.09574  0  3.90807  0
C  C32  1  0.72718553  0.08711920  0.21035165  1  0  0.022111  -0.051884  0  3.872855  0
C  C33  1  0.91289563  0.27281384  0.78965021  1  0  0.022151  -0.051741  0  3.873723  0
C  C34  1  0.27281188  0.91289719  0.78965217  1  0  0.022182  -0.051745  0  3.873469  0
C  C35  1  0.08711993  0.72718395  0.21034557  1  0  0.022135  -0.051928  0  3.872922  0
C  C36  1  0.69172569  0.02091160  0.31549175  1  0  -0.11785  -0.207967  0  4.022295  0
C  C37  1  0.97909965  0.30825986  0.68453496  1  0  -0.117838  -0.208222  0  4.022527  0
C  C38  1  0.30825476  0.97910445  0.68452198  1  0  -0.117837  -0.208177  0  4.022346  0
C  C39  1  0.02091312  0.69172308  0.31547959  1  0  -0.117858  -0.207918  0  4.022326  0
C  C40  1  0.57204194  0.10855470  0.36154875  1  0  0.018218  0.013333  0  3.980846  0
C  C41  1  0.89146693  0.42794579  0.63845544  1  0  0.018177  0.013411  0  3.980196  0
C  C42  1  0.42794492  0.89146137  0.63844565  1  0  0.018088  0.01326  0  3.980456  0
C  C43  1  0.10854949  0.57204118  0.36154005  1  0  0.018143  0.013193  0  3.980877  0
N  N44  1  0.53726277  0.22217341  0.28983170  1  0  -0.281406  -0.211571  0  3.56329  0
N  N45  1  0.77782866  0.46274130  0.71016536  1  0  -0.281404  -0.211591  0  3.562377  0
N  N46  1  0.46273781  0.77782671  0.71016020  1  0  -0.281353  -0.211418  0  3.562439  0
N  N47  1  0.22217101  0.53726016  0.28982762  1  0  -0.281403  -0.211534  0  3.563191  0
N  N48  1  0.63126117  0.20719311  0.19706125  1  0  -0.146348  0.195634  0  3.685906  0
N  N49  1  0.79282088  0.36872430  0.80294551  1  0  -0.146424  0.195503  0  3.685832  0
N  N50  1  0.36872814  0.79281765  0.80294041  1  0  -0.146385  0.19544  0  3.68584  0
N  N51  1  0.20719220  0.63125992  0.19705751  1  0  -0.146334  0.195629  0  3.685896  0
Cl  Cl52  1  0.34904707  0.34905150  0.54869568  1  0  -0.301587  -0.529756  0  1.286868  0
Cl  Cl53  1  0.65091130  0.65090963  0.45129053  1  0  -0.301498  -0.529654  0  1.287264  0
Cl  Cl54  1  0.14427760  0.14427882  0.10922789  1  0  -0.239546  -0.409832  0  1.39733  0
Cl  Cl55  1  0.85575432  0.85575345  0.89080132  1  0  -0.239666  -0.410025  0  1.397054  0
