# generated using pymatgen
data_TbH8C9NO8
_symmetry_space_group_name_H-M   'P 1'
_cell_length_a   8.35674720
_cell_length_b   9.78092627
_cell_length_c   14.74430000
_cell_angle_alpha   90.00000000
_cell_angle_beta   90.00000000
_cell_angle_gamma   96.63434982
_symmetry_Int_Tables_number   1
_chemical_formula_structural   TbH8C9NO8
_chemical_formula_sum   'Tb4 H32 C36 N4 O32'
_cell_volume   1197.08076669
_cell_formula_units_Z   4
loop_
 _symmetry_equiv_pos_site_id
 _symmetry_equiv_pos_as_xyz
  1  'x, y, z'
loop_
 _atom_site_type_symbol
 _atom_site_label
 _atom_site_symmetry_multiplicity
 _atom_site_fract_x
 _atom_site_fract_y
 _atom_site_fract_z
 _atom_site_occupancy
 _atom_site_hle17_bader_spin_density
 _atom_site_hle17_ddec_charge
 _atom_site_hle17_ddec_spin_density
 _atom_site_hle17_ddec_sum_bond_order
 _atom_site_hle17_magmom
 _atom_site_hse06_10hf_bader_spin_density
 _atom_site_hse06_10hf_ddec_charge
 _atom_site_hse06_10hf_ddec_spin_density
 _atom_site_hse06_10hf_ddec_sum_bond_order
 _atom_site_hse06_10hf_magmom
 _atom_site_hse06_bader_spin_density
 _atom_site_hse06_ddec_charge
 _atom_site_hse06_ddec_spin_density
 _atom_site_hse06_ddec_sum_bond_order
 _atom_site_hse06_magmom
 _atom_site_pbe_bader_charge
 _atom_site_pbe_bader_spin_density
 _atom_site_pbe_cm5_charge
 _atom_site_pbe_ddec_charge
 _atom_site_pbe_ddec_spin_density
 _atom_site_pbe_ddec_sum_bond_order
 _atom_site_pbe_magmom
Tb  Tb0  1  0.00461614  0.11242837  0.38697327  1  0  2.279147  0  1.627429  0  0  2.126034  0  2.098491  0  0  2.252146  0  1.910971  0  2.195074  0  1.508415  2.089181  0  2.129558  0
Tb  Tb1  1  0.49538302  0.88757162  0.88697327  1  0  2.279142  0  1.6274  0  0  2.126032  0  2.098447  0  0  2.252137  0  1.910942  0  2.19509  0  1.508417  2.08918  0  2.12951  0
Tb  Tb2  1  0.99538259  0.88757162  0.61302673  1  0  2.279147  0  1.627396  0  0  2.126031  0  2.098452  0  0  2.252141  0  1.910937  0  2.195006  0  1.508426  2.089182  0  2.129512  0
Tb  Tb3  1  0.50461691  0.11242837  0.11302673  1  0  2.279145  0  1.62742  0  0  2.126034  0  2.098481  0  0  2.252144  0  1.910966  0  2.195093  0  1.508416  2.089183  0  2.129544  0
H  H4  1  0.33802863  0.53769107  0.17543186  1  0  0.123008  0  0.932425  0  0  0.131663  0  0.990084  0  0  0.135678  0  0.988002  0  0.117029  0  0.116544  0.128982  0  0.991423  0
H  H5  1  0.16197172  0.46230892  0.67543118  1  0  0.123013  0  0.932376  0  0  0.131669  0  0.990027  0  0  0.135684  0  0.987944  0  0.11703  0  0.116549  0.128986  0  0.991365  0
H  H6  1  0.66197235  0.46230789  0.82456814  1  0  0.123006  0  0.932423  0  0  0.131651  0  0.990093  0  0  0.135667  0  0.988011  0  0.117033  0  0.116548  0.12897  0  0.99143  0
H  H7  1  0.83802820  0.53769107  0.32456882  1  0  0.123041  0  0.932424  0  0  0.1317  0  0.990069  0  0  0.135715  0  0.987987  0  0.117024  0  0.116568  0.129018  0  0.991407  0
H  H8  1  0.28648503  0.77038072  0.23804860  1  0  0.131925  0  0.93532  0  0  0.140418  0  0.994588  0  0  0.145135  0  0.990206  0  0.125633  0  0.119957  0.137025  0  0.99734  0
H  H9  1  0.21351532  0.22961927  0.73804860  1  0  0.131909  0  0.93533  0  0  0.140403  0  0.994597  0  0  0.145118  0  0.990215  0  0.125624  0  0.119952  0.137011  0  0.997345  0
H  H10  1  0.71351595  0.22961825  0.76195072  1  0  0.131902  0  0.935343  0  0  0.140384  0  0.994622  0  0  0.1451  0  0.99024  0  0.125619  0  0.119948  0.136992  0  0.99737  0
H  H11  1  0.78648460  0.77038072  0.26195140  1  0  0.131909  0  0.93533  0  0  0.140401  0  0.994601  0  0  0.145117  0  0.99022  0  0.125624  0  0.119953  0.137008  0  0.997354  0
H  H12  1  0.12744810  0.55863919  0.48422645  1  0  0.132122  0  0.927189  0  0  0.137528  0  0.992779  0  0  0.142954  0  0.986229  0  0.18165  0  0.140325  0.133779  0  0.997293  0
H  H13  1  0.37255092  0.44135977  0.98422713  1  0  0.132101  0  0.927229  0  0  0.137531  0  0.992784  0  0  0.142956  0  0.986236  0  0.181686  0  0.140336  0.133781  0  0.997298  0
H  H14  1  0.87255169  0.44135977  0.51577287  1  0  0.132099  0  0.927207  0  0  0.137538  0  0.992757  0  0  0.142964  0  0.986206  0  0.181682  0  0.140324  0.133786  0  0.99727  0
H  H15  1  0.62744886  0.55863919  0.01577355  1  0  0.132154  0  0.927182  0  0  0.137559  0  0.992772  0  0  0.142985  0  0.986221  0  0.18166  0  0.140342  0.133809  0  0.997286  0
H  H16  1  0.55945531  0.84735621  0.54100907  1  0  0.157041  0  0.915592  0  0  0.177561  0  0.969424  0  0  0.180861  0  0.967464  0  0.079417  0  0.11342  0.17505  0  0.971001  0
H  H17  1  0.94054391  0.15264172  0.04100907  1  0  0.157019  0  0.915633  0  0  0.177549  0  0.969454  0  0  0.180845  0  0.9675  0  0.079435  0  0.113413  0.175038  0  0.971032  0
H  H18  1  0.44054434  0.15264172  0.45899093  1  0  0.157035  0  0.915622  0  0  0.177566  0  0.969439  0  0  0.180861  0  0.967486  0  0.079442  0  0.113422  0.175053  0  0.971018  0
H  H19  1  0.05945574  0.84735621  0.95899093  1  0  0.157068  0  0.915579  0  0  0.177594  0  0.969404  0  0  0.180892  0  0.967445  0  0.079432  0  0.11343  0.175083  0  0.970981  0
H  H20  1  0.61189239  0.71760900  0.46746607  1  0  0.147333  0  0.929529  0  0  0.165566  0  0.987231  0  0  0.168461  0  0.985907  0  0.097375  0  0.103111  0.163574  0  0.987899  0
H  H21  1  0.88810816  0.28238997  0.96746607  1  0  0.147349  0  0.92952  0  0  0.165582  0  0.987224  0  0  0.168477  0  0.985899  0  0.097391  0  0.103111  0.16359  0  0.987892  0
H  H22  1  0.38810739  0.28238997  0.53253393  1  0  0.147357  0  0.929519  0  0  0.165586  0  0.987223  0  0  0.168481  0  0.985898  0  0.09739  0  0.103116  0.163594  0  0.98789  0
H  H23  1  0.11189283  0.71760900  0.03253393  1  0  0.147368  0  0.92952  0  0  0.165603  0  0.987215  0  0  0.168497  0  0.98589  0  0.097373  0  0.103123  0.163612  0  0.987883  0
H  H24  1  0.47503499  0.83514471  0.42946088  1  0  0.131156  0  0.971738  0  0  0.15041  0  1.031174  0  0  0.151716  0  1.031719  0  0.051999  0  0.095709  0.149524  0  1.03045  0
H  H25  1  0.02496522  0.16485426  0.92946088  1  0  0.131152  0  0.971738  0  0  0.15041  0  1.031171  0  0  0.151717  0  1.031715  0  0.051995  0  0.095702  0.149525  0  1.030445  0
H  H26  1  0.52496479  0.16485426  0.57053912  1  0  0.13115  0  0.971752  0  0  0.150406  0  1.031182  0  0  0.151713  0  1.031726  0  0.051991  0  0.095701  0.149521  0  1.030456  0
H  H27  1  0.97503456  0.83514471  0.07053912  1  0  0.131157  0  0.971732  0  0  0.150409  0  1.03117  0  0  0.151715  0  1.031715  0  0.051996  0  0.095701  0.149523  0  1.030445  0
H  H28  1  0.85624411  0.01829667  0.21289719  1  0  0.446224  0  0.843939  0  0  0.415483  0  0.907948  0  0  0.4259  0  0.892772  0  0.663487  0  0.308046  0.407783  0  0.919447  0
H  H29  1  0.64375525  0.98170230  0.71289719  1  0  0.44625  0  0.843903  0  0  0.415509  0  0.907918  0  0  0.425926  0  0.892742  0  0.663489  0  0.30807  0.407823  0  0.919408  0
H  H30  1  0.14375568  0.98170230  0.78710349  1  0  0.446244  0  0.843907  0  0  0.415499  0  0.907934  0  0  0.425916  0  0.892758  0  0.663508  0  0.308056  0.407813  0  0.919424  0
H  H31  1  0.35624454  0.01829667  0.28710349  1  0  0.44621  0  0.843961  0  0  0.415469  0  0.90797  0  0  0.425885  0  0.892794  0  0.663508  0  0.308036  0.407769  0  0.919469  0
H  H32  1  0.04434234  0.00081211  0.19959781  1  0  0.446152  0  0.846647  0  0  0.415644  0  0.908948  0  0  0.427205  0  0.892213  0  0.649338  0  0.299634  0.407664  0  0.920523  0
H  H33  1  0.45565802  0.99918788  0.69959713  1  0  0.446127  0  0.846684  0  0  0.415624  0  0.908978  0  0  0.427184  0  0.892242  0  0.649363  0  0.299629  0.407645  0  0.920551  0
H  H34  1  0.95565759  0.99918788  0.80040219  1  0  0.446138  0  0.846666  0  0  0.415638  0  0.908956  0  0  0.427198  0  0.892221  0  0.649342  0  0.299635  0.407659  0  0.920529  0
H  H35  1  0.54434191  0.00081211  0.30040287  1  0  0.44617  0  0.846621  0  0  0.415661  0  0.908924  0  0  0.427221  0  0.892189  0  0.649333  0  0.299641  0.407681  0  0.920499  0
C  C36  1  0.29332428  0.29007259  0.25737811  1  0  0.69629  0  3.885122  0  0  0.65127  0  4.176341  0  0  0.686919  0  4.167337  0  1.646987  0  0.238499  0.627001  0  4.185234  0
C  C37  1  0.20667608  0.70992740  0.75737878  1  0  0.69626  0  3.885298  0  0  0.651241  0  4.176504  0  0  0.686886  0  4.167506  0  1.646986  0  0.238472  0.626971  0  4.185395  0
C  C38  1  0.70667565  0.70992740  0.74262122  1  0  0.696202  0  3.885357  0  0  0.651175  0  4.17659  0  0  0.686818  0  4.167595  0  1.646981  0  0.238447  0.626906  0  4.185479  0
C  C39  1  0.79332504  0.29007259  0.24262189  1  0  0.696286  0  3.8852  0  0  0.651272  0  4.176409  0  0  0.686918  0  4.167408  0  1.646967  0  0.23851  0.627001  0  4.185302  0
C  C40  1  0.25593569  0.42716174  0.29344357  1  0  -0.008674  0  3.575244  0  0  -0.015768  0  3.823313  0  0  -0.013357  0  3.835845  0  0.30256  0  0.110815  -0.015732  0  3.813383  0
C  C41  1  0.24406347  0.57283825  0.79344425  1  0  -0.008678  0  3.575364  0  0  -0.015766  0  3.823421  0  0  -0.013354  0  3.835953  0  0.302536  0  0.110797  -0.015729  0  3.81349  0
C  C42  1  0.74406396  0.57283620  0.70655643  1  0  -0.008633  0  3.575243  0  0  -0.015726  0  3.823309  0  0  -0.013314  0  3.835842  0  0.302556  0  0.110821  -0.01569  0  3.813379  0
C  C43  1  0.75593645  0.42716174  0.20655575  1  0  -0.008657  0  3.57528  0  0  -0.01575  0  3.823343  0  0  -0.013338  0  3.835875  0  0.302558  0  0.110809  -0.015714  0  3.813412  0
C  C44  1  0.28828215  0.54820527  0.24300035  1  0  -0.088168  0  3.723844  0  0  -0.110377  0  3.983618  0  0  -0.11419  0  4.001315  0  0.022757  0  -0.069739  -0.107948  0  3.970018  0
C  C45  1  0.21171715  0.45179575  0.74300102  1  0  -0.088206  0  3.723875  0  0  -0.110425  0  3.983656  0  0  -0.114239  0  4.001353  0  0.022768  0  -0.069753  -0.107995  0  3.970058  0
C  C46  1  0.71171777  0.45179472  0.75699965  1  0  -0.088197  0  3.723902  0  0  -0.110399  0  3.98368  0  0  -0.114213  0  4.001376  0  0.022745  0  -0.069753  -0.107971  0  3.970081  0
C  C47  1  0.78828291  0.54820527  0.25699965  1  0  -0.088231  0  3.723867  0  0  -0.110451  0  3.983657  0  0  -0.114265  0  4.001355  0  0.022767  0  -0.069769  -0.10802  0  3.970059  0
C  C48  1  0.26010395  0.67594846  0.27710844  1  0  -0.03282  0  3.667141  0  0  -0.068333  0  3.926225  0  0  -0.063336  0  3.93937  0  -0.005296  0  -0.066236  -0.069459  0  3.91528  0
C  C49  1  0.23989640  0.32405153  0.77710776  1  0  -0.032802  0  3.667105  0  0  -0.06831  0  3.926183  0  0  -0.063312  0  3.939327  0  -0.005295  0  -0.066216  -0.069436  0  3.915236  0
C  C50  1  0.73989583  0.32405050  0.72289224  1  0  -0.032829  0  3.66715  0  0  -0.068331  0  3.926214  0  0  -0.063333  0  3.939358  0  -0.005274  0  -0.066231  -0.069457  0  3.915268  0
C  C51  1  0.76010352  0.67594846  0.22289224  1  0  -0.032778  0  3.667103  0  0  -0.068311  0  3.92617  0  0  -0.063314  0  3.939315  0  -0.005301  0  -0.066225  -0.069438  0  3.915225  0
C  C52  1  0.20288682  0.68113506  0.36620118  1  0  -0.067663  0  3.734767  0  0  -0.043029  0  3.973669  0  0  -0.050132  0  3.991302  0  0.049118  0  0.0016  -0.039047  0  3.961879  0
C  C53  1  0.29711128  0.31886597  0.86620118  1  0  -0.067566  0  3.734724  0  0  -0.042949  0  3.973626  0  0  -0.050053  0  3.991259  0  0.049142  0  0.001581  -0.038967  0  3.961836  0
C  C54  1  0.79711324  0.31886597  0.63379679  1  0  -0.067629  0  3.734811  0  0  -0.042979  0  3.973705  0  0  -0.050083  0  3.991337  0  0.049231  0  0.001559  -0.038992  0  3.961918  0
C  C55  1  0.70288653  0.68113609  0.13379950  1  0  -0.067659  0  3.734744  0  0  -0.04295  0  3.973551  0  0  -0.050054  0  3.991185  0  0.049122  0  0.001608  -0.038968  0  3.961762  0
C  C56  1  0.16929831  0.81076082  0.41526353  1  0  0.700629  0  3.883919  0  0  0.652765  0  4.177341  0  0  0.687657  0  4.171601  0  1.63037  0  0.232957  0.629033  0  4.184212  0
C  C57  1  0.33070177  0.18923712  0.91526217  1  0  0.700556  0  3.883857  0  0  0.652714  0  4.177244  0  0  0.687607  0  4.171502  0  1.63058  0  0.232939  0.628985  0  4.18411  0
C  C58  1  0.83070134  0.18923712  0.58473851  1  0  0.7007  0  3.88363  0  0  0.652801  0  4.177119  0  0  0.687693  0  4.171376  0  1.630553  0  0.232986  0.629056  0  4.184009  0
C  C59  1  0.66929788  0.81076082  0.08473715  1  0  0.700657  0  3.883897  0  0  0.652768  0  4.177319  0  0  0.687662  0  4.171575  0  1.630362  0  0.23295  0.629036  0  4.184191  0
C  C60  1  0.17176444  0.56018827  0.41500919  1  0  0.007946  0  3.555115  0  0  -0.046445  0  3.815379  0  0  -0.038475  0  3.823337  0  0.374778  0  0.050029  -0.052493  0  3.810974  0
C  C61  1  0.32823485  0.43981275  0.91500851  1  0  0.007938  0  3.555201  0  0  -0.046445  0  3.815426  0  0  -0.038476  0  3.823386  0  0.374791  0  0.050042  -0.052493  0  3.811021  0
C  C62  1  0.82823428  0.43981172  0.58499149  1  0  0.007979  0  3.55522  0  0  -0.046425  0  3.815431  0  0  -0.038456  0  3.823391  0  0.374661  0  0.050086  -0.052471  0  3.811022  0
C  C63  1  0.67176401  0.56018827  0.08499149  1  0  0.007882  0  3.555212  0  0  -0.046526  0  3.815447  0  0  -0.038556  0  3.823405  0  0.374795  0  0.049996  -0.052574  0  3.811042  0
C  C64  1  0.72332117  0.91905041  0.43548083  1  0  0.784193  0  3.803961  0  0  0.745473  0  4.094071  0  0  0.779136  0  4.092141  0  1.551275  0  0.220903  0.722109  0  4.100292  0
C  C65  1  0.77667804  0.08094752  0.93547947  1  0  0.784208  0  3.803892  0  0  0.745462  0  4.094052  0  0  0.779126  0  4.092122  0  1.550662  0  0.220874  0.722097  0  4.100273  0
C  C66  1  0.27667847  0.08094752  0.56451985  1  0  0.784182  0  3.803959  0  0  0.745435  0  4.094113  0  0  0.779099  0  4.092185  0  1.551358  0  0.220863  0.722069  0  4.100333  0
C  C67  1  0.22332160  0.91905041  0.06451917  1  0  0.784229  0  3.803871  0  0  0.745479  0  4.094027  0  0  0.779143  0  4.092099  0  1.551285  0  0.220875  0.722114  0  4.100249  0
C  C68  1  0.58249510  0.82404484  0.46963640  1  0  -0.448731  0  3.627461  0  0  -0.524024  0  3.85671  0  0  -0.530639  0  3.858  0  -0.107554  0  -0.238451  -0.5188  0  3.855091  0
C  C69  1  0.91750425  0.17595413  0.96963640  1  0  -0.448766  0  3.627467  0  0  -0.524063  0  3.856729  0  0  -0.530674  0  3.858023  0  -0.107627  0  -0.23846  -0.51884  0  3.85511  0
C  C70  1  0.41750468  0.17595413  0.53036428  1  0  -0.448778  0  3.627472  0  0  -0.524067  0  3.856725  0  0  -0.530679  0  3.858021  0  -0.107636  0  -0.238462  -0.518843  0  3.855106  0
C  C71  1  0.08249553  0.82404484  0.03036428  1  0  -0.448845  0  3.627462  0  0  -0.524131  0  3.856725  0  0  -0.530744  0  3.858015  0  -0.107561  0  -0.23848  -0.518909  0  3.855106  0
N  N72  1  0.19315536  0.43526843  0.37974065  1  0  0.285323  0  3.708419  0  0  0.33662  0  3.970769  0  0  0.338623  0  3.994171  0  -0.61965  0  -0.095314  0.334633  0  3.95702  0
N  N73  1  0.30684260  0.56473156  0.87974065  1  0  0.285325  0  3.708544  0  0  0.336607  0  3.970901  0  0  0.33861  0  3.994302  0  -0.6197  0  -0.095318  0.33462  0  3.957152  0
N  N74  1  0.80684456  0.56473156  0.62025935  1  0  0.285342  0  3.708477  0  0  0.336632  0  3.970832  0  0  0.338635  0  3.994234  0  -0.61968  0  -0.095311  0.334645  0  3.957082  0
N  N75  1  0.69315627  0.43526946  0.12026003  1  0  0.285372  0  3.708469  0  0  0.336664  0  3.970817  0  0  0.338667  0  3.994219  0  -0.619696  0  -0.095268  0.334677  0  3.957069  0
O  O76  1  0.15571970  0.32866790  0.43234877  1  0  -0.57872  0  1.857649  0  0  -0.548971  0  2.105396  0  0  -0.581552  0  2.104639  0  -0.610703  0  -0.276602  -0.53221  0  2.104077  0
O  O77  1  0.34428051  0.67133106  0.93234809  1  0  -0.578712  0  1.857683  0  0  -0.548955  0  2.105435  0  0  -0.581535  0  2.104678  0  -0.610689  0  -0.276593  -0.532195  0  2.104115  0
O  O78  1  0.84428008  0.67133106  0.56765191  1  0  -0.578722  0  1.857702  0  0  -0.548966  0  2.105446  0  0  -0.581546  0  2.10469  0  -0.610624  0  -0.276596  -0.532206  0  2.104127  0
O  O79  1  0.65571941  0.32866893  0.06765191  1  0  -0.578762  0  1.857621  0  0  -0.549008  0  2.105367  0  0  -0.581588  0  2.104609  0  -0.610674  0  -0.276627  -0.532247  0  2.104048  0
O  O80  1  0.22408988  0.18046859  0.29195893  1  0  -0.717221  0  2.142474  0  0  -0.664672  0  2.394288  0  0  -0.698139  0  2.380295  0  -1.186054  0  -0.379672  -0.647375  0  2.402529  0
O  O81  1  0.27591019  0.81952934  0.79195893  1  0  -0.717196  0  2.142618  0  0  -0.664653  0  2.394438  0  0  -0.69812  0  2.380453  0  -1.186069  0  -0.379658  -0.647354  0  2.402686  0
O  O82  1  0.77590976  0.81952934  0.70804107  1  0  -0.71718  0  2.142639  0  0  -0.664631  0  2.394458  0  0  -0.698098  0  2.380472  0  -1.186064  0  -0.379656  -0.647334  0  2.402706  0
O  O83  1  0.72408959  0.18046962  0.20804107  1  0  -0.717221  0  2.142557  0  0  -0.664677  0  2.394369  0  0  -0.698143  0  2.380378  0  -1.186046  0  -0.379675  -0.647379  0  2.402609  0
O  O84  1  0.39564075  0.29492467  0.19363279  1  0  -0.696807  0  2.021174  0  0  -0.655513  0  2.27045  0  0  -0.689716  0  2.257698  0  -1.161891  0  -0.371466  -0.638911  0  2.276656  0
O  O85  1  0.10435960  0.70507532  0.69363212  1  0  -0.696803  0  2.021185  0  0  -0.655503  0  2.270449  0  0  -0.689706  0  2.257699  0  -1.161883  0  -0.371444  -0.6389  0  2.276654  0
O  O86  1  0.60435903  0.70507430  0.80636788  1  0  -0.696796  0  2.021214  0  0  -0.655497  0  2.270493  0  0  -0.6897  0  2.257745  0  -1.161866  0  -0.371445  -0.638894  0  2.276698  0
O  O87  1  0.89564138  0.29492364  0.30636721  1  0  -0.696805  0  2.021181  0  0  -0.655506  0  2.270441  0  0  -0.689709  0  2.257689  0  -1.161878  0  -0.371468  -0.638904  0  2.276648  0
O  O88  1  0.16629107  0.91989134  0.36927287  1  0  -0.688106  0  2.026721  0  0  -0.636177  0  2.274059  0  0  -0.669686  0  2.262395  0  -1.184429  0  -0.357988  -0.618521  0  2.280833  0
O  O89  1  0.33370956  0.08011071  0.86927355  1  0  -0.688048  0  2.02683  0  0  -0.636114  0  2.274156  0  0  -0.669621  0  2.262493  0  -1.184675  0  -0.357958  -0.618459  0  2.280933  0
O  O90  1  0.83370927  0.08011174  0.63072645  1  0  -0.68805  0  2.026794  0  0  -0.636103  0  2.274149  0  0  -0.669612  0  2.262487  0  -1.184675  0  -0.357959  -0.618444  0  2.280934  0
O  O91  1  0.66629064  0.91989134  0.13072713  1  0  -0.688101  0  2.026712  0  0  -0.636168  0  2.274061  0  0  -0.669678  0  2.262396  0  -1.184454  0  -0.357982  -0.618514  0  2.280834  0
O  O92  1  0.14624047  0.79623135  0.49979450  1  0  -0.715682  0  2.096305  0  0  -0.670257  0  2.351433  0  0  -0.705381  0  2.339873  0  -1.17714  0  -0.390706  -0.652721  0  2.356847  0
O  O93  1  0.35376003  0.20376967  0.99979653  1  0  -0.715698  0  2.096092  0  0  -0.670307  0  2.351235  0  0  -0.705432  0  2.339672  0  -1.177101  0  -0.390719  -0.652772  0  2.356648  0
O  O94  1  0.85375959  0.20376967  0.50020347  1  0  -0.715799  0  2.096006  0  0  -0.670389  0  2.351181  0  0  -0.705514  0  2.339616  0  -1.177093  0  -0.390761  -0.652848  0  2.356603  0
O  O95  1  0.64624137  0.79623238  0.00020550  1  0  -0.715709  0  2.096295  0  0  -0.670288  0  2.351434  0  0  -0.70541  0  2.339869  0  -1.177127  0  -0.390706  -0.652752  0  2.356849  0
O  O96  1  0.70816217  0.00409040  0.37195187  1  0  -0.668855  0  1.975417  0  0  -0.609167  0  2.19627  0  0  -0.641097  0  2.186361  0  -1.184853  0  -0.325423  -0.591454  0  2.202134  0
O  O97  1  0.79183732  0.99590959  0.87195119  1  0  -0.668832  0  1.975385  0  0  -0.609148  0  2.196268  0  0  -0.641077  0  2.18636  0  -1.184199  0  -0.325405  -0.591435  0  2.202138  0
O  O98  1  0.29183656  0.99590959  0.62804813  1  0  -0.668811  0  1.975393  0  0  -0.609125  0  2.196271  0  0  -0.641054  0  2.186363  0  -1.184885  0  -0.325391  -0.591413  0  2.202144  0
O  O99  1  0.20816260  0.00409040  0.12804881  1  0  -0.668858  0  1.975346  0  0  -0.609168  0  2.196224  0  0  -0.641098  0  2.186316  0  -1.184855  0  -0.325412  -0.591458  0  2.202098  0
O  O100  1  0.95430642  0.99784157  0.24432560  1  0  -0.922442  0  1.903347  0  0  -0.879126  0  2.103426  0  0  -0.907592  0  2.06535  0  -1.289536  0  -0.647422  -0.865058  0  2.126018  0
O  O101  1  0.54569321  0.00215945  0.74432493  1  0  -0.922454  0  1.90335  0  0  -0.879148  0  2.103412  0  0  -0.907614  0  2.065341  0  -1.28956  0  -0.647443  -0.865105  0  2.125955  0
O  O102  1  0.04569336  0.00215739  0.75567507  1  0  -0.92245  0  1.903337  0  0  -0.879162  0  2.103423  0  0  -0.907625  0  2.065345  0  -1.289533  0  -0.647429  -0.865118  0  2.125966  0
O  O103  1  0.45430565  0.99784157  0.25567440  1  0  -0.922451  0  1.903352  0  0  -0.879137  0  2.103432  0  0  -0.907603  0  2.065359  0  -1.289554  0  -0.647422  -0.865069  0  2.126025  0
O  O104  1  0.86321341  0.91484164  0.47118615  1  0  -0.834607  0  2.164226  0  0  -0.77458  0  2.419895  0  0  -0.819099  0  2.409373  0  -1.211729  0  -0.440953  -0.755608  0  2.425597  0
O  O105  1  0.63678595  0.08515732  0.97118615  1  0  -0.834588  0  2.164202  0  0  -0.774541  0  2.419873  0  0  -0.81906  0  2.409354  0  -1.211783  0  -0.440923  -0.755567  0  2.425575  0
O  O106  1  0.13678518  0.08515732  0.52881385  1  0  -0.834589  0  2.164253  0  0  -0.774538  0  2.41991  0  0  -0.819056  0  2.409388  0  -1.211788  0  -0.440932  -0.755566  0  2.425615  0
O  O107  1  0.36321398  0.91484267  0.02881385  1  0  -0.834585  0  2.164202  0  0  -0.774545  0  2.419888  0  0  -0.819064  0  2.409371  0  -1.211733  0  -0.440922  -0.755571  0  2.42559  0
