# generated using pymatgen
data_ZnH10C15(NO2)2
_symmetry_space_group_name_H-M   'P 1'
_cell_length_a   9.35404200
_cell_length_b   9.98129493
_cell_length_c   14.47620587
_cell_angle_alpha   88.63728912
_cell_angle_beta   77.94382620
_cell_angle_gamma   88.21471884
_symmetry_Int_Tables_number   1
_chemical_formula_structural   ZnH10C15(NO2)2
_chemical_formula_sum   'Zn4 H40 C60 N8 O16'
_cell_volume   1320.91823864
_cell_formula_units_Z   4
loop_
 _symmetry_equiv_pos_site_id
 _symmetry_equiv_pos_as_xyz
  1  'x, y, z'
loop_
 _atom_site_type_symbol
 _atom_site_label
 _atom_site_symmetry_multiplicity
 _atom_site_fract_x
 _atom_site_fract_y
 _atom_site_fract_z
 _atom_site_occupancy
 _atom_site_hle17_bader_spin_density
 _atom_site_hle17_ddec_charge
 _atom_site_hle17_ddec_spin_density
 _atom_site_hle17_ddec_sum_bond_order
 _atom_site_hle17_magmom
 _atom_site_hse06_10hf_bader_spin_density
 _atom_site_hse06_10hf_ddec_charge
 _atom_site_hse06_10hf_ddec_spin_density
 _atom_site_hse06_10hf_ddec_sum_bond_order
 _atom_site_hse06_10hf_magmom
 _atom_site_hse06_bader_spin_density
 _atom_site_hse06_ddec_charge
 _atom_site_hse06_ddec_spin_density
 _atom_site_hse06_ddec_sum_bond_order
 _atom_site_hse06_magmom
 _atom_site_pbe_bader_spin_density
 _atom_site_pbe_cm5_charge
 _atom_site_pbe_ddec_charge
 _atom_site_pbe_ddec_spin_density
 _atom_site_pbe_ddec_sum_bond_order
 _atom_site_pbe_magmom
Zn  Zn0  1  0.35970173  0.17446726  0.11179092  1  0  1.064135  0  1.839997  0  0  0.889031  0  2.312635  0  0  0.936983  0  2.253918  0  0  0.69438  0.854187  0  2.35504  0
Zn  Zn1  1  0.64029796  0.82553297  0.88820858  1  0  1.06416  0  1.840021  0  0  0.889022  0  2.31264  0  0  0.936975  0  2.253924  0  0  0.694399  0.854218  0  2.355038  0
Zn  Zn2  1  0.25372159  0.95511827  0.28517136  1  0  1.11856  0  1.740513  0  0  0.938471  0  2.202955  0  0  0.990885  0  2.141384  0  0  0.690018  0.899703  0  2.247633  0
Zn  Zn3  1  0.74627807  0.04488297  0.71482882  1  0  1.118583  0  1.740537  0  0  0.938475  0  2.202995  0  0  0.990886  0  2.141422  0  0  0.690003  0.899675  0  2.247694  0
H  H4  1  0.91345759  0.23052766  0.41248059  1  0  0.100776  0  0.95943  0  0  0.10671  0  1.027412  0  0  0.110031  0  1.025203  0  0  0.103173  0.104403  0  1.028657  0
H  H5  1  0.08654314  0.76947458  0.58751873  1  0  0.1008  0  0.959413  0  0  0.106729  0  1.027394  0  0  0.110051  0  1.025185  0  0  0.103186  0.104427  0  1.028665  0
H  H6  1  0.75435216  0.42229986  0.48368874  1  0  0.087061  0  0.973267  0  0  0.096415  0  1.036133  0  0  0.098448  0  1.037503  0  0  0.096991  0.094945  0  1.035403  0
H  H7  1  0.24564966  0.57770238  0.51631043  1  0  0.087028  0  0.973286  0  0  0.096383  0  1.036158  0  0  0.098416  0  1.037529  0  0  0.096967  0.094898  0  1.035436  0
H  H8  1  0.83551781  0.65768513  0.44323735  1  0  0.091223  0  0.966735  0  0  0.097794  0  1.036663  0  0  0.101041  0  1.034391  0  0  0.100647  0.095493  0  1.038165  0
H  H9  1  0.16448291  0.34231710  0.55676059  1  0  0.091201  0  0.96672  0  0  0.097774  0  1.036652  0  0  0.101014  0  1.034388  0  0  0.100636  0.095457  0  1.038123  0
H  H10  1  0.22779526  0.50396475  0.26297439  1  0  0.097583  0  0.971654  0  0  0.105292  0  1.039823  0  0  0.109111  0  1.036356  0  0  0.103929  0.102513  0  1.042445  0
H  H11  1  0.77220552  0.49603548  0.73702289  1  0  0.097537  0  0.971727  0  0  0.105286  0  1.039858  0  0  0.1091  0  1.036388  0  0  0.103938  0.102518  0  1.042479  0
H  H12  1  0.11884094  0.78500209  0.12562850  1  0  0.093397  0  0.960791  0  0  0.10224  0  1.025623  0  0  0.105018  0  1.023987  0  0  0.102727  0.099991  0  1.027115  0
H  H13  1  0.88116085  0.21500116  0.87437342  1  0  0.093427  0  0.960791  0  0  0.102265  0  1.025619  0  0  0.105043  0  1.023984  0  0  0.102723  0.100011  0  1.027131  0
H  H14  1  0.90494157  0.63735655  0.17509411  1  0  0.090541  0  0.953374  0  0  0.101841  0  1.010181  0  0  0.103909  0  1.011546  0  0  0.100954  0.100287  0  1.009502  0
H  H15  1  0.09506028  0.36264470  0.82490784  1  0  0.090563  0  0.953295  0  0  0.101872  0  1.010095  0  0  0.10394  0  1.011457  0  0  0.100933  0.100285  0  1.009415  0
H  H16  1  0.65382067  0.73886788  0.20822420  1  0  0.086102  0  0.986112  0  0  0.094729  0  1.052795  0  0  0.097408  0  1.051528  0  0  0.09972  0.092705  0  1.053864  0
H  H17  1  0.34618123  0.26113134  0.79177432  1  0  0.086087  0  0.986146  0  0  0.094717  0  1.052824  0  0  0.097397  0  1.051555  0  0  0.099683  0.092663  0  1.053899  0
H  H18  1  0.82862784  0.12527854  0.11850513  1  0  0.106058  0  0.964375  0  0  0.113617  0  1.033325  0  0  0.116985  0  1.030849  0  0  0.106398  0.111284  0  1.035106  0
H  H19  1  0.17137182  0.87472269  0.88149366  1  0  0.106081  0  0.964367  0  0  0.113609  0  1.033347  0  0  0.116979  0  1.030869  0  0  0.10638  0.111261  0  1.035138  0
H  H20  1  0.65376836  0.33290974  0.80479303  1  0  0.317563  0  0.918532  0  0  0.297456  0  0.980857  0  0  0.306625  0  0.973181  0  0  0.311408  0.290946  0  0.986333  0
H  H21  1  0.34623239  0.66709150  0.19520630  1  0  0.31754  0  0.91861  0  0  0.297448  0  0.980916  0  0  0.306616  0  0.973241  0  0  0.311418  0.290937  0  0.986389  0
H  H22  1  0.62767568  0.18147844  0.94663030  1  0  0.108061  0  0.939635  0  0  0.116799  0  1.001856  0  0  0.119755  0  0.997933  0  0  0.140758  0.1144  0  1.005258  0
H  H23  1  0.37232404  0.81852080  0.05337059  1  0  0.108069  0  0.939627  0  0  0.11681  0  1.001847  0  0  0.119767  0  0.997925  0  0  0.14077  0.11442  0  1.005242  0
H  H24  1  0.47862252  0.56637596  0.75045371  1  0  0.105608  0  0.96865  0  0  0.116577  0  1.028978  0  0  0.119481  0  1.027704  0  0  0.10208  0.114544  0  1.029916  0
H  H25  1  0.52137829  0.43362328  0.24954704  1  0  0.105589  0  0.96865  0  0  0.116568  0  1.028966  0  0  0.11947  0  1.027699  0  0  0.102063  0.114533  0  1.0299  0
H  H26  1  0.23996082  0.68501373  0.80904025  1  0  0.086395  0  0.958425  0  0  0.098449  0  1.017749  0  0  0.100887  0  1.016954  0  0  0.099259  0.096653  0  1.018523  0
H  H27  1  0.76003890  0.31498551  0.19096064  1  0  0.086381  0  0.958421  0  0  0.098432  0  1.017755  0  0  0.100869  0  1.016961  0  0  0.099227  0.096601  0  1.018514  0
H  H28  1  0.08735159  0.63127097  0.96505503  1  0  0.100357  0  0.960814  0  0  0.10981  0  1.024139  0  0  0.112473  0  1.023695  0  0  0.100535  0.1078  0  1.024742  0
H  H29  1  0.91264815  0.36872726  0.03494519  1  0  0.100362  0  0.960829  0  0  0.109812  0  1.024154  0  0  0.112475  0  1.02371  0  0  0.100546  0.10781  0  1.024779  0
H  H30  1  0.16239143  0.44493207  0.06670346  1  0  0.11505  0  0.937987  0  0  0.128289  0  0.992914  0  0  0.131217  0  0.991437  0  0  0.108567  0.126158  0  0.994039  0
H  H31  1  0.83760832  0.55506617  0.93329745  1  0  0.115078  0  0.937995  0  0  0.128322  0  0.992912  0  0  0.131245  0  0.991437  0  0  0.108604  0.126235  0  0.994026  0
H  H32  1  0.21593790  0.03770420  0.63785252  1  0  0.327509  0  0.85073  0  0  0.314153  0  0.902185  0  0  0.320497  0  0.898492  0  0  0.337236  0.309698  0  0.904833  0
H  H33  1  0.78405966  0.96229404  0.36214799  1  0  0.327522  0  0.85077  0  0  0.314154  0  0.902217  0  0  0.320497  0  0.898525  0  0  0.337219  0.309648  0  0.904878  0
H  H34  1  0.13580319  0.10313551  0.48963376  1  0  0.103904  0  0.93955  0  0  0.112888  0  1.002039  0  0  0.115508  0  0.998308  0  0  0.141146  0.111009  0  1.004526  0
H  H35  1  0.86419649  0.89686473  0.51036574  1  0  0.103902  0  0.939572  0  0  0.112894  0  1.002053  0  0  0.115516  0  0.998321  0  0  0.14114  0.111001  0  1.004572  0
H  H36  1  0.43181965  0.83371593  0.68927159  1  0  0.111326  0  0.959032  0  0  0.122937  0  1.017502  0  0  0.125274  0  1.017005  0  0  0.10515  0.121279  0  1.017908  0
H  H37  1  0.56817788  0.16628331  0.31072960  1  0  0.111333  0  0.959098  0  0  0.122944  0  1.017566  0  0  0.125281  0  1.01707  0  0  0.105113  0.121212  0  1.01797  0
H  H38  1  0.59174182  0.64640379  0.61385399  1  0  0.085832  0  0.964384  0  0  0.098785  0  1.023169  0  0  0.100791  0  1.02329  0  0  0.096631  0.097464  0  1.023  0
H  H39  1  0.40825678  0.35359645  0.38614703  1  0  0.08582  0  0.964383  0  0  0.09877  0  1.023173  0  0  0.100776  0  1.023293  0  0  0.096621  0.09744  0  1.022997  0
H  H40  1  0.60445893  0.58940279  0.44658285  1  0  0.084844  0  0.981348  0  0  0.097824  0  1.041008  0  0  0.099736  0  1.041429  0  0  0.096896  0.095804  0  1.042284  0
H  H41  1  0.39554076  0.41059745  0.55341871  1  0  0.08482  0  0.981348  0  0  0.0978  0  1.041013  0  0  0.099713  0  1.041434  0  0  0.096885  0.095782  0  1.042301  0
H  H42  1  0.46762676  0.72758344  0.34587557  1  0  0.112789  0  0.957363  0  0  0.122537  0  1.018953  0  0  0.125882  0  1.016491  0  0  0.104074  0.120213  0  1.020493  0
H  H43  1  0.53237302  0.27241379  0.65412535  1  0  0.112832  0  0.957314  0  0  0.122599  0  1.018863  0  0  0.125942  0  1.016402  0  0  0.104067  0.120242  0  1.0204  0
C  C44  1  0.17389392  0.24359889  0.28837649  1  0  0.666421  0  3.883353  0  0  0.612786  0  4.170669  0  0  0.648718  0  4.163317  0  0  0.219872  0.588302  0  4.174931  0
C  C45  1  0.82610683  0.75640235  0.71162284  1  0  0.666378  0  3.883407  0  0  0.612725  0  4.170725  0  0  0.648657  0  4.163376  0  0  0.219871  0.588244  0  4.175014  0
C  C46  1  0.07938848  0.35702085  0.33351366  1  0  -0.082286  0  3.771052  0  0  -0.053944  0  4.001457  0  0  -0.065316  0  4.0261  0  0  -0.02096  -0.046688  0  3.985168  0
C  C47  1  0.92061008  0.64298039  0.66648459  1  0  -0.082226  0  3.770939  0  0  -0.053863  0  4.001317  0  0  -0.065235  0  4.025961  0  0  -0.021011  -0.046664  0  3.985124  0
C  C48  1  0.94617121  0.33349211  0.39585182  1  0  -0.038853  0  3.691133  0  0  -0.066655  0  3.939506  0  0  -0.06322  0  3.95771  0  0  -0.075147  -0.068074  0  3.926576  0
C  C49  1  0.05382955  0.66650913  0.60414751  1  0  -0.038941  0  3.691024  0  0  -0.066743  0  3.939378  0  0  -0.063312  0  3.957588  0  0  -0.075129  -0.068178  0  3.92652  0
C  C50  1  0.85781282  0.44138948  0.43515837  1  0  -0.079978  0  3.763728  0  0  -0.089246  0  4.014255  0  0  -0.094728  0  4.036948  0  0  -0.089634  -0.085843  0  3.998558  0
C  C51  1  0.14218793  0.55861176  0.56484097  1  0  -0.079971  0  3.763564  0  0  -0.089247  0  4.014108  0  0  -0.094728  0  4.0368  0  0  -0.089679  -0.085881  0  3.998419  0
C  C52  1  0.90268880  0.57218157  0.41299014  1  0  -0.045965  0  3.713752  0  0  -0.071728  0  3.958035  0  0  -0.069082  0  3.976986  0  0  -0.073931  -0.072878  0  3.944673  0
C  C53  1  0.09731196  0.42781967  0.58700920  1  0  -0.045858  0  3.713603  0  0  -0.071622  0  3.957885  0  0  -0.068973  0  3.97684  0  0  -0.073915  -0.072731  0  3.944438  0
C  C54  1  0.03658917  0.59692043  0.35135202  1  0  -0.077581  0  3.78129  0  0  -0.04996  0  4.011419  0  0  -0.059857  0  4.035256  0  0  -0.019772  -0.043585  0  3.995476  0
C  C55  1  0.96341158  0.40308080  0.64864593  1  0  -0.077679  0  3.781404  0  0  -0.050063  0  4.011543  0  0  -0.059959  0  4.035375  0  0  -0.019794  -0.043671  0  3.995554  0
C  C56  1  0.12404071  0.48859680  0.31171477  1  0  -0.064563  0  3.702934  0  0  -0.101091  0  3.946495  0  0  -0.09756  0  3.964951  0  0  -0.07949  -0.103554  0  3.93479  0
C  C57  1  0.87595895  0.51140443  0.68828264  1  0  -0.064495  0  3.702945  0  0  -0.101066  0  3.946491  0  0  -0.097528  0  3.964943  0  0  -0.079459  -0.103527  0  3.934803  0
C  C58  1  0.08238256  0.73864723  0.33046426  1  0  0.641341  0  3.91673  0  0  0.591181  0  4.20813  0  0  0.624686  0  4.202439  0  0  0.20499  0.568571  0  4.210915  0
C  C59  1  0.91762038  0.26135401  0.66953478  1  0  0.641356  0  3.916707  0  0  0.591201  0  4.208083  0  0  0.624702  0  4.202396  0  0  0.204937  0.568623  0  4.210838  0
C  C60  1  0.11199487  0.05833179  0.10844504  1  0  0.639973  0  3.89664  0  0  0.590073  0  4.184368  0  0  0.623417  0  4.179728  0  0  0.199935  0.567519  0  4.186577  0
C  C61  1  0.88800594  0.94166745  0.89155501  1  0  0.639949  0  3.896849  0  0  0.590062  0  4.184542  0  0  0.623408  0  4.179905  0  0  0.199946  0.567498  0  4.186784  0
C  C62  1  0.98697909  0.96547120  0.12414378  1  0  -0.067625  0  3.753098  0  0  -0.040808  0  3.986676  0  0  -0.051118  0  4.010887  0  0  -0.018366  -0.034575  0  3.971096  0
C  C63  1  0.01302057  0.03453004  0.87585778  1  0  -0.067542  0  3.753129  0  0  -0.040731  0  3.98668  0  0  -0.051042  0  4.010892  0  0  -0.018407  -0.034551  0  3.971174  0
C  C64  1  0.00816955  0.82697564  0.13597858  1  0  -0.034893  0  3.692917  0  0  -0.06436  0  3.943579  0  0  -0.060794  0  3.960963  0  0  -0.07595  -0.066136  0  3.931767  0
C  C65  1  0.99183118  0.17302662  0.86402419  1  0  -0.034975  0  3.692993  0  0  -0.064434  0  3.943654  0  0  -0.060868  0  3.961038  0  0  -0.075877  -0.066158  0  3.931867  0
C  C66  1  0.88880175  0.74472009  0.16462605  1  0  -0.065799  0  3.747519  0  0  -0.074787  0  3.998494  0  0  -0.07959  0  4.01966  0  0  -0.087382  -0.071726  0  3.984236  0
C  C67  1  0.11120119  0.25528116  0.83537506  1  0  -0.065814  0  3.747484  0  0  -0.074816  0  3.998456  0  0  -0.079616  0  4.019621  0  0  -0.087442  -0.071775  0  3.984205  0
C  C68  1  0.74778711  0.80068406  0.18216872  1  0  -0.048289  0  3.715713  0  0  -0.077792  0  3.964788  0  0  -0.074518  0  3.983238  0  0  -0.080454  -0.07981  0  3.952253  0
C  C69  1  0.25221364  0.19931718  0.81783061  1  0  -0.048303  0  3.715758  0  0  -0.077802  0  3.964844  0  0  -0.074532  0  3.983299  0  0  -0.080449  -0.079801  0  3.952299  0
C  C70  1  0.72486321  0.93705934  0.16316003  1  0  -0.087328  0  3.776623  0  0  -0.060745  0  4.013022  0  0  -0.070847  0  4.035792  0  0  -0.024711  -0.053876  0  3.997118  0
C  C71  1  0.27513648  0.06294089  0.83683808  1  0  -0.087308  0  3.776607  0  0  -0.060746  0  4.013013  0  0  -0.070848  0  4.035785  0  0  -0.024756  -0.053928  0  3.997149  0
C  C72  1  0.84487640  0.01907584  0.13316029  1  0  -0.064326  0  3.685832  0  0  -0.101071  0  3.929777  0  0  -0.09762  0  3.948295  0  0  -0.07635  -0.103176  0  3.917631  0
C  C73  1  0.15512438  0.98092439  0.86683905  1  0  -0.06434  0  3.685831  0  0  -0.101047  0  3.92976  0  0  -0.097597  0  3.948283  0  0  -0.076319  -0.103143  0  3.91764  0
C  C74  1  0.57252158  0.99307791  0.17280874  1  0  0.665236  0  3.900087  0  0  0.610929  0  4.193403  0  0  0.64672  0  4.184954  0  0  0.215889  0.58627  0  4.198736  0
C  C75  1  0.42747811  0.00692232  0.82719006  1  0  0.665204  0  3.900132  0  0  0.610909  0  4.193438  0  0  0.6467  0  4.184991  0  0  0.21586  0.586264  0  4.198779  0
C  C76  1  0.55234569  0.26443536  0.93949941  1  0  0.280888  0  3.630889  0  0  0.21685  0  3.906063  0  0  0.23519  0  3.91584  0  0  0.169512  0.204533  0  3.89982  0
C  C77  1  0.44765509  0.73556488  0.06050132  1  0  0.280933  0  3.630882  0  0  0.216856  0  3.906057  0  0  0.235196  0  3.915833  0  0  0.169533  0.204534  0  3.899807  0
C  C78  1  0.45249819  0.43861750  0.87633664  1  0  0.145327  0  3.788975  0  0  0.138211  0  4.033759  0  0  0.142061  0  4.056289  0  0  0.091893  0.135559  0  4.018291  0
C  C79  1  0.54750150  0.56138275  0.12366493  1  0  0.14528  0  3.788828  0  0  0.138159  0  4.033625  0  0  0.142005  0  4.056157  0  0  0.091866  0.135478  0  4.01819  0
C  C80  1  0.41071005  0.54013472  0.81862256  1  0  -0.150943  0  3.751877  0  0  -0.168313  0  4.00114  0  0  -0.17155  0  4.021202  0  0  -0.097158  -0.165799  0  3.987318  0
C  C81  1  0.58928964  0.45986553  0.18137901  1  0  -0.150937  0  3.751797  0  0  -0.168313  0  4.001065  0  0  -0.17155  0  4.021125  0  0  -0.097175  -0.165817  0  3.987249  0
C  C82  1  0.27771188  0.60667376  0.85267444  1  0  -0.063168  0  3.780235  0  0  -0.080796  0  4.036661  0  0  -0.082088  0  4.05888  0  0  -0.095655  -0.079433  0  4.021219  0
C  C83  1  0.72228780  0.39332649  0.14732644  1  0  -0.063157  0  3.780189  0  0  -0.080788  0  4.036624  0  0  -0.082081  0  4.058843  0  0  -0.095665  -0.079406  0  4.021153  0
C  C84  1  0.19004160  0.57505704  0.94179076  1  0  -0.087645  0  3.770735  0  0  -0.103958  0  4.027915  0  0  -0.10735  0  4.050946  0  0  -0.097374  -0.101588  0  4.012155  0
C  C85  1  0.80995815  0.42494120  0.05820946  1  0  -0.087581  0  3.770673  0  0  -0.103887  0  4.027848  0  0  -0.107278  0  4.050876  0  0  -0.097328  -0.101535  0  4.012116  0
C  C86  1  0.23128879  0.47300572  0.99909068  1  0  -0.130214  0  3.727349  0  0  -0.151498  0  3.981148  0  0  -0.153333  0  4.001124  0  0  -0.089352  -0.15004  0  3.967459  0
C  C87  1  0.76871093  0.52699351  0.00090952  1  0  -0.130315  0  3.727389  0  0  -0.151611  0  3.981201  0  0  -0.15344  0  4.00117  0  0  -0.08938  -0.150176  0  3.967533  0
C  C88  1  0.36323469  0.40349850  0.96481946  1  0  0.147427  0  3.804468  0  0  0.143707  0  4.049635  0  0  0.146611  0  4.074324  0  0  0.087945  0.141575  0  4.032703  0
C  C89  1  0.63676611  0.59650074  0.03518059  1  0  0.147535  0  3.804492  0  0  0.143799  0  4.049622  0  0  0.146705  0  4.07431  0  0  0.087992  0.141702  0  4.032686  0
C  C90  1  0.21620088  0.02402057  0.49389640  1  0  0.285188  0  3.638984  0  0  0.220069  0  3.916313  0  0  0.238562  0  3.924929  0  0  0.169798  0.207878  0  3.910102  0
C  C91  1  0.78379775  0.97597867  0.50610395  1  0  0.285222  0  3.638999  0  0  0.220084  0  3.916312  0  0  0.238576  0  3.92493  0  0  0.169764  0.20784  0  3.910185  0
C  C92  1  0.35901239  0.88490270  0.55876120  1  0  0.148477  0  3.775591  0  0  0.139524  0  4.022549  0  0  0.143123  0  4.04508  0  0  0.094573  0.137264  0  4.00746  0
C  C93  1  0.64098410  0.11509454  0.44123947  1  0  0.148466  0  3.77571  0  0  0.139527  0  4.022643  0  0  0.143127  0  4.045173  0  0  0.094579  0.137253  0  4.007562  0
C  C94  1  0.43791521  0.81082141  0.61541489  1  0  -0.142733  0  3.737353  0  0  -0.160549  0  3.988277  0  0  -0.163242  0  4.009519  0  0  -0.093081  -0.158665  0  3.973421  0
C  C95  1  0.56208126  0.18917683  0.38458646  1  0  -0.14272  0  3.737475  0  0  -0.160544  0  3.988392  0  0  -0.163235  0  4.009628  0  0  -0.09314  -0.15869  0  3.97352  0
C  C96  1  0.52687155  0.70552906  0.57244879  1  0  -0.082248  0  3.792445  0  0  -0.099406  0  4.049854  0  0  -0.102257  0  4.073733  0  0  -0.102731  -0.096876  0  4.033887  0
C  C97  1  0.47312491  0.29446918  0.42755256  1  0  -0.082236  0  3.792471  0  0  -0.099394  0  4.049882  0  0  -0.102243  0  4.073761  0  0  -0.102797  -0.096918  0  4.033904  0
C  C98  1  0.53630092  0.67434940  0.47683802  1  0  -0.094964  0  3.814814  0  0  -0.11016  0  4.06868  0  0  -0.112977  0  4.091761  0  0  -0.104596  -0.108837  0  4.055193  0
C  C99  1  0.46369661  0.32564984  0.52316317  1  0  -0.094898  0  3.814805  0  0  -0.110087  0  4.068658  0  0  -0.1129  0  4.09173  0  0  -0.104568  -0.108778  0  4.055194  0
C  C100  1  0.45988279  0.74945840  0.42001179  1  0  -0.133871  0  3.739453  0  0  -0.154237  0  3.990678  0  0  -0.155667  0  4.008774  0  0  -0.09372  -0.153197  0  3.978408  0
C  C101  1  0.54011477  0.25053983  0.57998872  1  0  -0.134009  0  3.739476  0  0  -0.154373  0  3.990726  0  0  -0.155803  0  4.008824  0  0  -0.093807  -0.153341  0  3.978453  0
C  C102  1  0.37120081  0.85615655  0.46178021  1  0  0.147258  0  3.807262  0  0  0.146423  0  4.048146  0  0  0.149703  0  4.07224  0  0  0.087391  0.144006  0  4.032156  0
C  C103  1  0.62879678  0.14384069  0.53822032  1  0  0.147349  0  3.807161  0  0  0.146469  0  4.048109  0  0  0.149749  0  4.072204  0  0  0.087433  0.144055  0  4.032112  0
N  N104  1  0.42951675  0.29350493  0.00185244  1  0  -0.450081  0  3.24949  0  0  -0.372238  0  3.551455  0  0  -0.395438  0  3.561828  0  0  -0.358701  -0.356129  0  3.544281  0
N  N105  1  0.57048513  0.70649531  0.99814814  1  0  -0.450217  0  3.249664  0  0  -0.37226  0  3.551516  0  0  -0.395463  0  3.561893  0  0  -0.358741  -0.356178  0  3.544346  0
N  N106  1  0.57106387  0.34879454  0.86382376  1  0  -0.344637  0  3.384511  0  0  -0.284556  0  3.625668  0  0  -0.302684  0  3.637028  0  0  -0.377742  -0.272076  0  3.617931  0
N  N107  1  0.42893579  0.65120670  0.13617710  1  0  -0.34462  0  3.384499  0  0  -0.284531  0  3.625627  0  0  -0.302655  0  3.636985  0  0  -0.377765  -0.272042  0  3.617908  0
N  N108  1  0.25916250  0.99185178  0.57578965  1  0  -0.329801  0  3.367959  0  0  -0.269367  0  3.603874  0  0  -0.285977  0  3.615038  0  0  -0.368609  -0.258348  0  3.596514  0
N  N109  1  0.74083393  0.00814746  0.42421030  1  0  -0.329873  0  3.368136  0  0  -0.269391  0  3.604014  0  0  -0.285999  0  3.615177  0  0  -0.368656  -0.258366  0  3.596682  0
N  N110  1  0.28157999  0.94599752  0.42375563  1  0  -0.451222  0  3.232493  0  0  -0.378589  0  3.518156  0  0  -0.402315  0  3.532219  0  0  -0.350779  -0.362542  0  3.508461  0
N  N111  1  0.71841757  0.05400072  0.57624488  1  0  -0.451238  0  3.232431  0  0  -0.37861  0  3.518138  0  0  -0.402338  0  3.532204  0  0  -0.350857  -0.362637  0  3.508516  0
O  O112  1  0.29218042  0.27399836  0.23067477  1  0  -0.646313  0  2.086932  0  0  -0.577162  0  2.36638  0  0  -0.604236  0  2.349394  0  0  -0.323218  -0.558231  0  2.377712  0
O  O113  1  0.70782036  0.72600188  0.76932527  1  0  -0.646302  0  2.086933  0  0  -0.577138  0  2.366381  0  0  -0.604212  0  2.349395  0  0  -0.323146  -0.558118  0  2.377689  0
O  O114  1  0.13098529  0.12488353  0.31025802  1  0  -0.63253  0  2.097073  0  0  -0.560013  0  2.365473  0  0  -0.58887  0  2.351157  0  0  -0.305482  -0.53998  0  2.375634  0
O  O115  1  0.86901544  0.87511872  0.68974268  1  0  -0.632526  0  2.097107  0  0  -0.56001  0  2.365542  0  0  -0.588862  0  2.351216  0  0  -0.305321  -0.539779  0  2.375645  0
O  O116  1  0.21176418  0.75734925  0.27726895  1  0  -0.679391  0  2.08042  0  0  -0.600277  0  2.341542  0  0  -0.631255  0  2.328938  0  0  -0.325169  -0.577975  0  2.349184  0
O  O117  1  0.78823879  0.24265099  0.72273286  1  0  -0.679429  0  2.080298  0  0  -0.60031  0  2.341435  0  0  -0.631278  0  2.328822  0  0  -0.325231  -0.578078  0  2.349076  0
O  O118  1  0.99959751  0.83413224  0.36375829  1  0  -0.612087  0  1.949532  0  0  -0.569359  0  2.185843  0  0  -0.592636  0  2.179056  0  0  -0.312839  -0.552037  0  2.190174  0
O  O119  1  0.00040322  0.16586999  0.63624034  1  0  -0.61205  0  1.94961  0  0  -0.56931  0  2.185884  0  0  -0.592587  0  2.1791  0  0  -0.31288  -0.552148  0  2.190262  0
O  O120  1  0.09743097  0.17942815  0.08773938  1  0  -0.589092  0  1.910268  0  0  -0.538584  0  2.133332  0  0  -0.562679  0  2.127459  0  0  -0.304909  -0.521625  0  2.136757  0
O  O121  1  0.90257090  0.82057208  0.91225982  1  0  -0.589064  0  1.910311  0  0  -0.538574  0  2.133382  0  0  -0.562667  0  2.127512  0  0  -0.304959  -0.52168  0  2.136846  0
O  O122  1  0.23782972  0.00782110  0.12279131  1  0  -0.705487  0  2.074607  0  0  -0.621549  0  2.350491  0  0  -0.651792  0  2.332966  0  0  -0.333004  -0.600518  0  2.363129  0
O  O123  1  0.76217109  0.99217815  0.87721013  1  0  -0.70551  0  2.074759  0  0  -0.62155  0  2.3506  0  0  -0.651798  0  2.333079  0  0  -0.333015  -0.600509  0  2.363243  0
O  O124  1  0.47160256  0.93445470  0.23098428  1  0  -0.648115  0  2.106974  0  0  -0.58055  0  2.390544  0  0  -0.608623  0  2.375233  0  0  -0.31394  -0.559928  0  2.400334  0
O  O125  1  0.52839931  0.06554554  0.76901492  1  0  -0.648096  0  2.106967  0  0  -0.580511  0  2.390517  0  0  -0.608573  0  2.375185  0  0  -0.313934  -0.559911  0  2.400322  0
O  O126  1  0.55591979  0.09531980  0.12122221  1  0  -0.630168  0  2.074949  0  0  -0.559064  0  2.346351  0  0  -0.587541  0  2.332687  0  0  -0.31394  -0.538854  0  2.356478  0
O  O127  1  0.44407987  0.90468144  0.87877727  1  0  -0.630171  0  2.075061  0  0  -0.559089  0  2.346476  0  0  -0.587567  0  2.3328  0  0  -0.31403  -0.539006  0  2.356675  0
