# generated using pymatgen
data_ZnH16C10N2O5
_symmetry_space_group_name_H-M   'P 1'
_cell_length_a   7.63968095
_cell_length_b   11.43187396
_cell_length_c   13.95325719
_cell_angle_alpha   89.99995959
_cell_angle_beta   90.00010285
_cell_angle_gamma   90.00001869
_symmetry_Int_Tables_number   1
_chemical_formula_structural   ZnH16C10N2O5
_chemical_formula_sum   'Zn4 H64 C40 N8 O20'
_cell_volume   1218.61985267
_cell_formula_units_Z   4
loop_
 _symmetry_equiv_pos_site_id
 _symmetry_equiv_pos_as_xyz
  1  'x, y, z'
loop_
 _atom_site_type_symbol
 _atom_site_label
 _atom_site_symmetry_multiplicity
 _atom_site_fract_x
 _atom_site_fract_y
 _atom_site_fract_z
 _atom_site_occupancy
 _atom_site_hle17_bader_spin_density
 _atom_site_hle17_ddec_charge
 _atom_site_hle17_ddec_spin_density
 _atom_site_hle17_ddec_sum_bond_order
 _atom_site_hle17_magmom
 _atom_site_hse06_10hf_bader_spin_density
 _atom_site_hse06_10hf_ddec_charge
 _atom_site_hse06_10hf_ddec_spin_density
 _atom_site_hse06_10hf_ddec_sum_bond_order
 _atom_site_hse06_10hf_magmom
 _atom_site_hse06_bader_spin_density
 _atom_site_hse06_ddec_charge
 _atom_site_hse06_ddec_spin_density
 _atom_site_hse06_ddec_sum_bond_order
 _atom_site_hse06_magmom
 _atom_site_pbe_bader_spin_density
 _atom_site_pbe_cm5_charge
 _atom_site_pbe_ddec_charge
 _atom_site_pbe_ddec_spin_density
 _atom_site_pbe_ddec_sum_bond_order
 _atom_site_pbe_magmom
Zn  Zn0  1  0.92743771  0.54069511  0.57459159  1  0  1.065799  0  1.705631  0  0  0.889705  0  2.161998  0  0  0.940515  0  2.103657  0  0  0.681551  0.853949  0  2.202161  0
Zn  Zn1  1  0.57256079  0.45930618  0.07459133  1  0  1.065796  0  1.705681  0  0  0.889715  0  2.162034  0  0  0.940522  0  2.10369  0  0  0.681534  0.85395  0  2.202194  0
Zn  Zn2  1  0.42743763  0.95930627  0.42540813  1  0  1.065822  0  1.705618  0  0  0.889741  0  2.16197  0  0  0.940548  0  2.103628  0  0  0.681544  0.853971  0  2.202126  0
Zn  Zn3  1  0.07256084  0.04069372  0.92540904  1  0  1.065796  0  1.705677  0  0  0.889716  0  2.162018  0  0  0.940519  0  2.103676  0  0  0.681538  0.853946  0  2.202179  0
H  H4  1  0.19018507  0.71595747  0.95066107  1  0  0.131127  0  0.916131  0  0  0.144457  0  0.97711  0  0  0.147871  0  0.974758  0  0  0.114319  0.142043  0  0.978881  0
H  H5  1  0.30981480  0.28404513  0.45066187  1  0  0.13116  0  0.916091  0  0  0.144496  0  0.977064  0  0  0.147913  0  0.974713  0  0  0.114346  0.142082  0  0.978833  0
H  H6  1  0.69018354  0.78404299  0.04933841  1  0  0.131139  0  0.916144  0  0  0.144473  0  0.977097  0  0  0.147887  0  0.974742  0  0  0.114336  0.142059  0  0.978872  0
H  H7  1  0.80981750  0.21595395  0.54933802  1  0  0.131182  0  0.916065  0  0  0.144514  0  0.977052  0  0  0.147932  0  0.974697  0  0  0.11437  0.142099  0  0.978827  0
H  H8  1  0.06374898  0.66840746  0.04703689  1  0  0.117951  0  0.922309  0  0  0.131597  0  0.983199  0  0  0.134332  0  0.981792  0  0  0.108239  0.129637  0  0.984335  0
H  H9  1  0.43625087  0.33159374  0.54703655  1  0  0.117954  0  0.922323  0  0  0.131609  0  0.983207  0  0  0.134344  0  0.981801  0  0  0.108252  0.129648  0  0.984344  0
H  H10  1  0.56374783  0.83159384  0.95296319  1  0  0.117952  0  0.922314  0  0  0.131595  0  0.9832  0  0  0.13433  0  0.981789  0  0  0.108241  0.129636  0  0.984341  0
H  H11  1  0.93625193  0.16840449  0.45296275  1  0  0.117929  0  0.922339  0  0  0.131595  0  0.983212  0  0  0.134331  0  0.981805  0  0  0.10824  0.129634  0  0.984352  0
H  H12  1  0.10856630  0.50907190  0.87260333  1  0  0.080498  0  0.924088  0  0  0.085832  0  0.989809  0  0  0.088386  0  0.987494  0  0  0.119447  0.083943  0  0.991595  0
H  H13  1  0.39143462  0.49092814  0.37260337  1  0  0.080511  0  0.92409  0  0  0.085854  0  0.989822  0  0  0.088409  0  0.987504  0  0  0.119451  0.083965  0  0.991607  0
H  H14  1  0.60856513  0.99092766  0.12739679  1  0  0.080509  0  0.924096  0  0  0.085831  0  0.989816  0  0  0.088391  0  0.987506  0  0  0.119445  0.083939  0  0.991602  0
H  H15  1  0.89143224  0.00906920  0.62739660  1  0  0.080524  0  0.924159  0  0  0.085853  0  0.989855  0  0  0.08842  0  0.987546  0  0  0.11945  0.083962  0  0.991641  0
H  H16  1  0.85123197  0.80927392  0.73186299  1  0  0.076721  0  0.913187  0  0  0.087698  0  0.971834  0  0  0.089858  0  0.97071  0  0  0.118521  0.086112  0  0.972764  0
H  H17  1  0.64876836  0.19072548  0.23186225  1  0  0.076696  0  0.913135  0  0  0.08765  0  0.971829  0  0  0.08981  0  0.970705  0  0  0.118493  0.086061  0  0.972758  0
H  H18  1  0.35123125  0.69072657  0.26813737  1  0  0.076669  0  0.913197  0  0  0.087639  0  0.971857  0  0  0.0898  0  0.970731  0  0  0.118491  0.08605  0  0.972793  0
H  H19  1  0.14876802  0.30927356  0.76813748  1  0  0.076664  0  0.913147  0  0  0.087645  0  0.971816  0  0  0.089806  0  0.97069  0  0  0.118501  0.086059  0  0.972752  0
H  H20  1  0.58169837  0.61442046  0.69907487  1  0  0.077029  0  0.955575  0  0  0.095573  0  1.016532  0  0  0.096062  0  1.017616  0  0  0.096858  0.095138  0  1.01589  0
H  H21  1  0.91830186  0.38557984  0.19907429  1  0  0.077016  0  0.955602  0  0  0.095563  0  1.01656  0  0  0.09605  0  1.017643  0  0  0.096858  0.095126  0  1.015919  0
H  H22  1  0.08169784  0.88557997  0.30092594  1  0  0.077011  0  0.95559  0  0  0.095553  0  1.016552  0  0  0.096042  0  1.017637  0  0  0.096844  0.095116  0  1.015905  0
H  H23  1  0.41830154  0.11442013  0.80092571  1  0  0.077024  0  0.955599  0  0  0.095566  0  1.016557  0  0  0.096053  0  1.017639  0  0  0.096856  0.09513  0  1.01591  0
H  H24  1  0.59647143  0.69935225  0.80411413  1  0  0.078588  0  0.931928  0  0  0.096142  0  0.991612  0  0  0.097073  0  0.991901  0  0  0.095764  0.095385  0  0.991543  0
H  H25  1  0.90353045  0.30064796  0.30411358  1  0  0.078656  0  0.931934  0  0  0.096207  0  0.991612  0  0  0.097136  0  0.991903  0  0  0.095805  0.095451  0  0.991538  0
H  H26  1  0.09646921  0.80064906  0.19588670  1  0  0.07859  0  0.931981  0  0  0.096138  0  0.991661  0  0  0.097069  0  0.991953  0  0  0.095759  0.095381  0  0.99159  0
H  H27  1  0.40352982  0.19935201  0.69588640  1  0  0.078659  0  0.931942  0  0  0.096207  0  0.991619  0  0  0.097136  0  0.991908  0  0  0.095806  0.09545  0  0.991545  0
H  H28  1  0.50258108  0.79343226  0.60522788  1  0  0.037855  0  0.92744  0  0  0.058274  0  0.979653  0  0  0.058343  0  0.980312  0  0  0.093287  0.058124  0  0.979401  0
H  H29  1  0.99741884  0.20656725  0.10522747  1  0  0.037909  0  0.927331  0  0  0.058304  0  0.979577  0  0  0.058371  0  0.980234  0  0  0.093322  0.058155  0  0.979327  0
H  H30  1  0.00257946  0.70656728  0.39477214  1  0  0.037858  0  0.927441  0  0  0.058276  0  0.979656  0  0  0.058344  0  0.980316  0  0  0.09329  0.058126  0  0.979407  0
H  H31  1  0.49742022  0.29343187  0.89477188  1  0  0.037848  0  0.927439  0  0  0.058268  0  0.97965  0  0  0.058337  0  0.98031  0  0  0.093294  0.05812  0  0.979401  0
H  H32  1  0.27842670  0.73161203  0.78019984  1  0  0.088504  0  0.956444  0  0  0.110824  0  1.017703  0  0  0.111681  0  1.018535  0  0  0.080495  0.110163  0  1.017159  0
H  H33  1  0.22157261  0.26838810  0.28019841  1  0  0.088502  0  0.956448  0  0  0.11081  0  1.017719  0  0  0.111665  0  1.018552  0  0  0.080492  0.110148  0  1.017173  0
H  H34  1  0.77842573  0.76838845  0.21979974  1  0  0.088494  0  0.956445  0  0  0.110808  0  1.017714  0  0  0.111665  0  1.018545  0  0  0.080492  0.110145  0  1.01717  0
H  H35  1  0.72157326  0.23161184  0.71979996  1  0  0.088482  0  0.956456  0  0  0.110797  0  1.017726  0  0  0.111654  0  1.018557  0  0  0.080492  0.110135  0  1.01718  0
H  H36  1  0.27692644  0.65920400  0.66717607  1  0  0.096422  0  0.957466  0  0  0.116213  0  1.022061  0  0  0.117554  0  1.022439  0  0  0.082822  0.115203  0  1.021839  0
H  H37  1  0.22307512  0.34079622  0.16717460  1  0  0.096392  0  0.957464  0  0  0.116183  0  1.022058  0  0  0.117524  0  1.022436  0  0  0.082795  0.115171  0  1.021837  0
H  H38  1  0.77692587  0.84079647  0.33282350  1  0  0.096403  0  0.957478  0  0  0.116195  0  1.022071  0  0  0.117536  0  1.02245  0  0  0.082814  0.115183  0  1.021843  0
H  H39  1  0.72307480  0.15920371  0.83282377  1  0  0.096401  0  0.957463  0  0  0.116192  0  1.022061  0  0  0.117533  0  1.02244  0  0  0.082812  0.115181  0  1.021834  0
H  H40  1  0.20009213  0.80578276  0.67694073  1  0  0.104293  0  0.969254  0  0  0.124556  0  1.030848  0  0  0.125824  0  1.031723  0  0  0.084743  0.123595  0  1.030306  0
H  H41  1  0.29990815  0.19421746  0.17694014  1  0  0.104281  0  0.969273  0  0  0.124545  0  1.030857  0  0  0.125813  0  1.031732  0  0  0.084739  0.123583  0  1.030317  0
H  H42  1  0.70009145  0.69421770  0.32305876  1  0  0.10424  0  0.969306  0  0  0.124514  0  1.030887  0  0  0.125782  0  1.031761  0  0  0.084722  0.12355  0  1.030352  0
H  H43  1  0.79990787  0.30578249  0.82305902  1  0  0.104231  0  0.969323  0  0  0.124514  0  1.030895  0  0  0.125782  0  1.03177  0  0  0.084719  0.123551  0  1.030361  0
H  H44  1  0.64022186  0.94579833  0.71570677  1  0  0.095214  0  0.961486  0  0  0.114641  0  1.028379  0  0  0.116318  0  1.027786  0  0  0.083158  0.113394  0  1.028851  0
H  H45  1  0.85977842  0.05420196  0.21570775  1  0  0.095219  0  0.961483  0  0  0.114646  0  1.028374  0  0  0.116323  0  1.027782  0  0  0.083159  0.113398  0  1.028845  0
H  H46  1  0.14022112  0.55420124  0.28429267  1  0  0.095221  0  0.961472  0  0  0.11465  0  1.028363  0  0  0.116327  0  1.02777  0  0  0.083156  0.113405  0  1.028836  0
H  H47  1  0.35977820  0.44579888  0.78429291  1  0  0.095212  0  0.961484  0  0  0.11464  0  1.028374  0  0  0.116317  0  1.027781  0  0  0.08316  0.113396  0  1.028848  0
H  H48  1  0.47113116  0.91523548  0.80004399  1  0  0.086323  0  0.960754  0  0  0.10789  0  1.025471  0  0  0.108773  0  1.02602  0  0  0.080534  0.107191  0  1.025138  0
H  H49  1  0.02886952  0.08476463  0.30004391  1  0  0.086369  0  0.960802  0  0  0.107938  0  1.0255  0  0  0.108827  0  1.026043  0  0  0.080565  0.107238  0  1.025165  0
H  H50  1  0.97113134  0.58476504  0.19995577  1  0  0.086369  0  0.960786  0  0  0.10794  0  1.025487  0  0  0.108824  0  1.026036  0  0  0.080562  0.107243  0  1.025156  0
H  H51  1  0.52886758  0.41523614  0.69995570  1  0  0.086311  0  0.960761  0  0  0.107876  0  1.025482  0  0  0.108758  0  1.026032  0  0  0.080532  0.107179  0  1.025149  0
H  H52  1  0.41934872  0.97382697  0.68561332  1  0  0.096063  0  0.962842  0  0  0.11734  0  1.026072  0  0  0.118171  0  1.027178  0  0  0.084918  0.116683  0  1.025346  0
H  H53  1  0.08065159  0.02617324  0.18561332  1  0  0.096074  0  0.962833  0  0  0.117351  0  1.02606  0  0  0.118183  0  1.027166  0  0  0.084925  0.116695  0  1.025335  0
H  H54  1  0.91934794  0.52617354  0.31438639  1  0  0.096056  0  0.962853  0  0  0.117331  0  1.026087  0  0  0.118163  0  1.027193  0  0  0.084908  0.116676  0  1.025364  0
H  H55  1  0.58065136  0.47382666  0.81438706  1  0  0.096059  0  0.962845  0  0  0.117335  0  1.026077  0  0  0.118167  0  1.027182  0  0  0.08492  0.116681  0  1.025354  0
H  H56  1  0.90608528  0.73124553  0.88079099  1  0  0.310808  0  0.944823  0  0  0.288542  0  1.013267  0  0  0.297699  0  1.00637  0  0  0.303177  0.282077  0  1.018218  0
H  H57  1  0.59391424  0.26875374  0.38079159  1  0  0.310819  0  0.944809  0  0  0.288542  0  1.01326  0  0  0.297701  0  1.006362  0  0  0.303182  0.282077  0  1.018212  0
H  H58  1  0.40608410  0.76875409  0.11920870  1  0  0.311018  0  0.944715  0  0  0.288643  0  1.013301  0  0  0.297802  0  1.006402  0  0  0.303241  0.282165  0  1.018258  0
H  H59  1  0.09391206  0.23124442  0.61920809  1  0  0.310826  0  0.944815  0  0  0.288514  0  1.013312  0  0  0.297671  0  1.00642  0  0  0.303198  0.282073  0  1.018225  0
H  H60  1  0.93312257  0.77584115  0.57901199  1  0  0.323081  0  0.931184  0  0  0.305937  0  0.995932  0  0  0.314175  0  0.989235  0  0  0.289027  0.30006  0  1.000733  0
H  H61  1  0.56687726  0.22416013  0.07901187  1  0  0.323096  0  0.931181  0  0  0.305962  0  0.995923  0  0  0.314199  0  0.989224  0  0  0.289037  0.300085  0  1.000723  0
H  H62  1  0.43312367  0.72416023  0.42098773  1  0  0.323124  0  0.931132  0  0  0.305957  0  0.995914  0  0  0.314195  0  0.989214  0  0  0.289028  0.300077  0  1.000718  0
H  H63  1  0.06687741  0.27584065  0.92098778  1  0  0.323083  0  0.931198  0  0  0.30594  0  0.995943  0  0  0.314177  0  0.989244  0  0  0.289026  0.300063  0  1.000745  0
H  H64  1  0.73718372  0.71624199  0.56185965  1  0  0.310677  0  0.91953  0  0  0.296681  0  0.979044  0  0  0.304174  0  0.973245  0  0  0.292679  0.291335  0  0.983235  0
H  H65  1  0.76281606  0.28375931  0.06185897  1  0  0.310695  0  0.919528  0  0  0.296706  0  0.979029  0  0  0.3042  0  0.973228  0  0  0.292691  0.291361  0  0.983222  0
H  H66  1  0.23718359  0.78375848  0.43813988  1  0  0.310674  0  0.919535  0  0  0.296668  0  0.979056  0  0  0.304161  0  0.973256  0  0  0.29267  0.291321  0  0.983252  0
H  H67  1  0.26281493  0.21624063  0.93814016  1  0  0.310704  0  0.919505  0  0  0.296708  0  0.979006  0  0  0.304201  0  0.973205  0  0  0.292684  0.291362  0  0.983203  0
C  C68  1  0.30108998  0.57383333  0.02479634  1  0  0.69338  0  3.846745  0  0  0.646603  0  4.140702  0  0  0.679665  0  4.135957  0  0  0.20835  0.624206  0  4.143079  0
C  C69  1  0.19890849  0.42617052  0.52479572  1  0  0.693132  0  3.847022  0  0  0.646382  0  4.140963  0  0  0.679445  0  4.136221  0  0  0.208239  0.623985  0  4.14334  0
C  C70  1  0.80108895  0.92616890  0.97520468  1  0  0.693328  0  3.846863  0  0  0.646562  0  4.140803  0  0  0.679622  0  4.136059  0  0  0.208343  0.624167  0  4.143177  0
C  C71  1  0.69890957  0.07382854  0.47520406  1  0  0.693211  0  3.846829  0  0  0.646444  0  4.140797  0  0  0.679507  0  4.13605  0  0  0.208272  0.624045  0  4.143176  0
C  C72  1  0.14163204  0.63624086  0.98619399  1  0  -0.297319  0  3.640215  0  0  -0.340876  0  3.889339  0  0  -0.347026  0  3.895357  0  0  -0.153555  -0.336753  0  3.885362  0
C  C73  1  0.35836795  0.36376171  0.48619479  1  0  -0.297303  0  3.640258  0  0  -0.340882  0  3.889411  0  0  -0.347043  0  3.895443  0  0  -0.153595  -0.336757  0  3.885429  0
C  C74  1  0.64163043  0.86375959  0.01380616  1  0  -0.297362  0  3.640279  0  0  -0.340895  0  3.889327  0  0  -0.347028  0  3.895343  0  0  -0.153597  -0.336784  0  3.885374  0
C  C75  1  0.85837049  0.13623650  0.51380514  1  0  -0.29722  0  3.640186  0  0  -0.340845  0  3.88932  0  0  -0.346985  0  3.895362  0  0  -0.153567  -0.336721  0  3.885348  0
C  C76  1  0.02670433  0.56675533  0.91641312  1  0  0.073338  0  3.597986  0  0  0.051635  0  3.835845  0  0  0.053036  0  3.846831  0  0  0.015058  0.050736  0  3.828448  0
C  C77  1  0.47329673  0.43324468  0.41641327  1  0  0.073281  0  3.598109  0  0  0.051522  0  3.83607  0  0  0.052934  0  3.847043  0  0  0.015034  0.050623  0  3.82867  0
C  C78  1  0.52670299  0.93324421  0.08358692  1  0  0.07329  0  3.598178  0  0  0.051635  0  3.835972  0  0  0.053  0  3.847014  0  0  0.015042  0.050716  0  3.828564  0
C  C79  1  0.97329686  0.06675269  0.58358749  1  0  0.073115  0  3.598306  0  0  0.051506  0  3.836007  0  0  0.052842  0  3.847097  0  0  0.015022  0.050605  0  3.828611  0
C  C80  1  0.89383878  0.48946186  0.97091840  1  0  0.645894  0  3.835538  0  0  0.595333  0  4.141115  0  0  0.627538  0  4.135267  0  0  0.216033  0.573451  0  4.144377  0
C  C81  1  0.60616365  0.51053821  0.47091887  1  0  0.645932  0  3.835395  0  0  0.595323  0  4.141041  0  0  0.627527  0  4.135188  0  0  0.216031  0.57344  0  4.144302  0
C  C82  1  0.39383849  0.01053636  0.02908085  1  0  0.645909  0  3.835585  0  0  0.595326  0  4.141196  0  0  0.627538  0  4.13535  0  0  0.216033  0.573443  0  4.144455  0
C  C83  1  0.10616261  0.98946048  0.52908053  1  0  0.646081  0  3.835348  0  0  0.595403  0  4.141052  0  0  0.627625  0  4.135207  0  0  0.216058  0.573519  0  4.144309  0
C  C84  1  0.90884826  0.62814438  0.76138091  1  0  0.529757  0  3.771313  0  0  0.481567  0  4.062967  0  0  0.510085  0  4.065034  0  0  0.248287  0.462344  0  4.060951  0
C  C85  1  0.59115479  0.37185675  0.26138288  1  0  0.529668  0  3.771224  0  0  0.481452  0  4.062937  0  0  0.509966  0  4.065017  0  0  0.248195  0.462228  0  4.060919  0
C  C86  1  0.40884883  0.87185525  0.23861950  1  0  0.529794  0  3.771294  0  0  0.481644  0  4.062891  0  0  0.510165  0  4.064953  0  0  0.248313  0.462396  0  4.060872  0
C  C87  1  0.09115296  0.12814316  0.73861823  1  0  0.529712  0  3.771169  0  0  0.481426  0  4.062975  0  0  0.509946  0  4.065042  0  0  0.2482  0.462199  0  4.060962  0
C  C88  1  0.80986238  0.72285852  0.70539248  1  0  0.079831  0  3.612197  0  0  0.059851  0  3.854484  0  0  0.059859  0  3.868133  0  0  0.006712  0.059769  0  3.845108  0
C  C89  1  0.69013786  0.27714265  0.20539316  1  0  0.079927  0  3.612171  0  0  0.059946  0  3.854486  0  0  0.059955  0  3.868132  0  0  0.006761  0.05986  0  3.845107  0
C  C90  1  0.30986178  0.77714196  0.29460713  1  0  0.079946  0  3.612228  0  0  0.059973  0  3.854461  0  0  0.059983  0  3.86811  0  0  0.006766  0.059886  0  3.845093  0
C  C91  1  0.19013757  0.22285815  0.79460733  1  0  0.080008  0  3.612081  0  0  0.059999  0  3.854423  0  0  0.060005  0  3.868071  0  0  0.006751  0.059914  0  3.84505  0
C  C92  1  0.61440529  0.70219434  0.72579336  1  0  -0.190452  0  3.642637  0  0  -0.233704  0  3.887029  0  0  -0.235613  0  3.901339  0  0  -0.159626  -0.232204  0  3.877187  0
C  C93  1  0.88559502  0.29780594  0.22579351  1  0  -0.19054  0  3.642738  0  0  -0.233786  0  3.887139  0  0  -0.235689  0  3.901437  0  0  -0.15968  -0.232282  0  3.877291  0
C  C94  1  0.11440464  0.79780610  0.27420677  1  0  -0.190451  0  3.642724  0  0  -0.233704  0  3.887106  0  0  -0.23562  0  3.901427  0  0  -0.159621  -0.232208  0  3.877264  0
C  C95  1  0.38559334  0.20219403  0.77420646  1  0  -0.190574  0  3.642753  0  0  -0.233806  0  3.88713  0  0  -0.235707  0  3.901432  0  0  -0.159687  -0.232304  0  3.87728  0
C  C96  1  0.48377675  0.78950549  0.68345118  1  0  0.116325  0  3.6546  0  0  0.126436  0  3.887723  0  0  0.126863  0  3.90603  0  0  -0.093764  0.126167  0  3.875128  0
C  C97  1  0.01622223  0.21049472  0.18345030  1  0  0.116374  0  3.654424  0  0  0.126475  0  3.887588  0  0  0.126912  0  3.905868  0  0  -0.093767  0.126203  0  3.874997  0
C  C98  1  0.98377738  0.71049503  0.31654859  1  0  0.116335  0  3.654635  0  0  0.126445  0  3.887753  0  0  0.126873  0  3.906064  0  0  -0.093753  0.126175  0  3.875161  0
C  C99  1  0.51622323  0.28950517  0.81654858  1  0  0.116387  0  3.654489  0  0  0.126498  0  3.88761  0  0  0.126924  0  3.905911  0  0  -0.093736  0.126227  0  3.875019  0
C  C100  1  0.29882664  0.74371594  0.70273406  1  0  -0.315457  0  3.668851  0  0  -0.390941  0  3.906516  0  0  -0.394369  0  3.918344  0  0  -0.250556  -0.388298  0  3.898325  0
C  C101  1  0.20117241  0.25628425  0.20273333  1  0  -0.315468  0  3.668858  0  0  -0.390928  0  3.906524  0  0  -0.394356  0  3.918348  0  0  -0.250555  -0.388288  0  3.898335  0
C  C102  1  0.79882723  0.75628454  0.29726625  1  0  -0.315357  0  3.668852  0  0  -0.390841  0  3.906504  0  0  -0.394267  0  3.918331  0  0  -0.250519  -0.388199  0  3.898312  0
C  C103  1  0.70117201  0.24371568  0.79726573  1  0  -0.315384  0  3.668874  0  0  -0.390871  0  3.906528  0  0  -0.394298  0  3.918355  0  0  -0.250537  -0.388229  0  3.898334  0
C  C104  1  0.50598458  0.91271887  0.72343251  1  0  -0.315637  0  3.693726  0  0  -0.395339  0  3.937966  0  0  -0.398112  0  3.949495  0  0  -0.248967  -0.393152  0  3.930016  0
C  C105  1  0.99401572  0.08728141  0.22343288  1  0  -0.315724  0  3.693782  0  0  -0.395409  0  3.937999  0  0  -0.39819  0  3.949521  0  0  -0.249004  -0.393223  0  3.930049  0
C  C106  1  0.00598383  0.58728155  0.27656680  1  0  -0.315702  0  3.69382  0  0  -0.395407  0  3.938049  0  0  -0.39818  0  3.949577  0  0  -0.248989  -0.393221  0  3.930106  0
C  C107  1  0.49401546  0.41271945  0.77656719  1  0  -0.315632  0  3.693715  0  0  -0.395334  0  3.937955  0  0  -0.398105  0  3.949483  0  0  -0.248961  -0.393147  0  3.930011  0
N  N108  1  0.93814283  0.64912340  0.85337521  1  0  -0.425435  0  3.333113  0  0  -0.37276  0  3.581606  0  0  -0.394517  0  3.590763  0  0  -0.40811  -0.358146  0  3.575283  0
N  N109  1  0.56185528  0.35087764  0.35337573  1  0  -0.42536  0  3.333181  0  0  -0.372627  0  3.581656  0  0  -0.394391  0  3.59082  0  0  -0.408055  -0.358011  0  3.575326  0
N  N110  1  0.43814309  0.85087536  0.14662380  1  0  -0.425611  0  3.333171  0  0  -0.372895  0  3.58172  0  0  -0.394654  0  3.590894  0  0  -0.408186  -0.35822  0  3.575341  0
N  N111  1  0.06185447  0.14912226  0.64662463  1  0  -0.425404  0  3.333212  0  0  -0.37264  0  3.58168  0  0  -0.39439  0  3.590868  0  0  -0.408111  -0.358046  0  3.575336  0
N  N112  1  0.84914395  0.71068909  0.60240149  1  0  -0.681017  0  3.114994  0  0  -0.627602  0  3.377606  0  0  -0.648263  0  3.369744  0  0  -0.628091  -0.61315  0  3.382821  0
N  N113  1  0.65085595  0.28931217  0.10240142  1  0  -0.681166  0  3.115132  0  0  -0.627684  0  3.377626  0  0  -0.648346  0  3.369765  0  0  -0.62812  -0.613232  0  3.382845  0
N  N114  1  0.34914370  0.78931140  0.39759887  1  0  -0.681122  0  3.114994  0  0  -0.627668  0  3.377569  0  0  -0.648329  0  3.369701  0  0  -0.62811  -0.613213  0  3.382787  0
N  N115  1  0.15085469  0.21068862  0.89759903  1  0  -0.681175  0  3.115064  0  0  -0.627694  0  3.377605  0  0  -0.648349  0  3.369733  0  0  -0.628107  -0.613242  0  3.382826  0
O  O116  1  0.40010469  0.62942437  0.08208049  1  0  -0.630486  0  1.993189  0  0  -0.567752  0  2.225693  0  0  -0.594768  0  2.216435  0  0  -0.313562  -0.548865  0  2.231408  0
O  O117  1  0.09989658  0.37057855  0.58208052  1  0  -0.630394  0  1.99338  0  0  -0.567687  0  2.225858  0  0  -0.594702  0  2.216602  0  0  -0.313541  -0.548811  0  2.231571  0
O  O118  1  0.90010476  0.87057788  0.91792207  1  0  -0.630416  0  1.99327  0  0  -0.56775  0  2.225798  0  0  -0.594767  0  2.216542  0  0  -0.313593  -0.548868  0  2.231513  0
O  O119  1  0.59989488  0.12942049  0.41792203  1  0  -0.630431  0  1.993326  0  0  -0.567718  0  2.225797  0  0  -0.594734  0  2.216538  0  0  -0.313594  -0.548839  0  2.231515  0
O  O120  1  0.33943478  0.46934173  0.99895030  1  0  -0.627962  0  1.952818  0  0  -0.557141  0  2.198445  0  0  -0.585652  0  2.186802  0  0  -0.31571  -0.537345  0  2.205812  0
O  O121  1  0.16056525  0.53066171  0.49894938  1  0  -0.627838  0  1.952853  0  0  -0.556997  0  2.198431  0  0  -0.585507  0  2.186789  0  0  -0.315624  -0.537203  0  2.205799  0
O  O122  1  0.83943166  0.03066086  0.00104962  1  0  -0.627918  0  1.952842  0  0  -0.557091  0  2.198448  0  0  -0.585601  0  2.186806  0  0  -0.315668  -0.537296  0  2.205811  0
O  O123  1  0.66056791  0.96933612  0.50105008  1  0  -0.62788  0  1.952763  0  0  -0.557052  0  2.198381  0  0  -0.585564  0  2.186738  0  0  -0.315624  -0.53726  0  2.205748  0
O  O124  1  0.91849032  0.38128100  0.97541918  1  0  -0.605013  0  1.991419  0  0  -0.550086  0  2.211165  0  0  -0.574186  0  2.203945  0  0  -0.300269  -0.533306  0  2.215661  0
O  O125  1  0.58150951  0.61872169  0.47541885  1  0  -0.605132  0  1.991284  0  0  -0.550104  0  2.210994  0  0  -0.574202  0  2.203766  0  0  -0.300284  -0.533322  0  2.215491  0
O  O126  1  0.41848744  0.11871898  0.02458153  1  0  -0.605036  0  1.991444  0  0  -0.550116  0  2.211218  0  0  -0.574211  0  2.203987  0  0  -0.300284  -0.533338  0  2.215714  0
O  O127  1  0.08150841  0.88127699  0.52458053  1  0  -0.605155  0  1.991248  0  0  -0.550139  0  2.211018  0  0  -0.574226  0  2.203762  0  0  -0.300273  -0.533366  0  2.215516  0
O  O128  1  0.76517346  0.54568402  0.00938942  1  0  -0.649279  0  2.025092  0  0  -0.583618  0  2.302781  0  0  -0.612286  0  2.287098  0  0  -0.331891  -0.563587  0  2.312808  0
O  O129  1  0.73482876  0.45431820  0.50938882  1  0  -0.649221  0  2.025113  0  0  -0.583561  0  2.30284  0  0  -0.612231  0  2.287156  0  0  -0.331855  -0.563537  0  2.312878  0
O  O130  1  0.26517262  0.95431470  0.99061014  1  0  -0.649263  0  2.025083  0  0  -0.5836  0  2.30279  0  0  -0.612268  0  2.287104  0  0  -0.331903  -0.563576  0  2.312826  0
O  O131  1  0.23482607  0.04568261  0.49061171  1  0  -0.649288  0  2.025107  0  0  -0.58363  0  2.302876  0  0  -0.612298  0  2.287184  0  0  -0.331919  -0.563604  0  2.3129  0
O  O132  1  0.95130937  0.53274447  0.72142757  1  0  -0.5774  0  2.03642  0  0  -0.513501  0  2.29691  0  0  -0.539059  0  2.285474  0  0  -0.299838  -0.495852  0  2.304283  0
O  O133  1  0.54869355  0.46725844  0.22142657  1  0  -0.577374  0  2.03628  0  0  -0.513498  0  2.296822  0  0  -0.539054  0  2.285386  0  0  -0.299817  -0.495851  0  2.304195  0
O  O134  1  0.45130619  0.96725429  0.27857218  1  0  -0.577415  0  2.036456  0  0  -0.513561  0  2.29697  0  0  -0.539117  0  2.285527  0  0  -0.29986  -0.495919  0  2.304352  0
O  O135  1  0.04869573  0.03274233  0.77857306  1  0  -0.577369  0  2.036352  0  0  -0.513462  0  2.296912  0  0  -0.539017  0  2.285471  0  0  -0.299795  -0.495817  0  2.304285  0
