# generated using pymatgen
data_CuH18C10(SO3)2
_symmetry_space_group_name_H-M   'P 1'
_cell_length_a   4.94718734
_cell_length_b   8.94850883
_cell_length_c   16.00997053
_cell_angle_alpha   103.49098856
_cell_angle_beta   89.99974348
_cell_angle_gamma   89.99838825
_symmetry_Int_Tables_number   1
_chemical_formula_structural   CuH18C10(SO3)2
_chemical_formula_sum   'Cu2 H36 C20 S4 O12'
_cell_volume   689.20349109
_cell_formula_units_Z   2
loop_
 _symmetry_equiv_pos_site_id
 _symmetry_equiv_pos_as_xyz
  1  'x, y, z'
loop_
 _atom_site_type_symbol
 _atom_site_label
 _atom_site_symmetry_multiplicity
 _atom_site_fract_x
 _atom_site_fract_y
 _atom_site_fract_z
 _atom_site_occupancy
 _atom_site_hle17_ddec_charge
 _atom_site_hle17_ddec_spin_density
 _atom_site_hle17_ddec_sum_bond_order
 _atom_site_hle17_magmom
 _atom_site_hse06_10hf_ddec_charge
 _atom_site_hse06_10hf_ddec_spin_density
 _atom_site_hse06_10hf_ddec_sum_bond_order
 _atom_site_hse06_10hf_magmom
 _atom_site_hse06_ddec_charge
 _atom_site_hse06_ddec_spin_density
 _atom_site_hse06_ddec_sum_bond_order
 _atom_site_hse06_magmom
 _atom_site_pbe_cm5_charge
 _atom_site_pbe_ddec_charge
 _atom_site_pbe_ddec_spin_density
 _atom_site_pbe_ddec_sum_bond_order
 _atom_site_pbe_magmom
Cu  Cu0  1  0.49999244  0.49999214  0.00000254  1  0.970204  0.688415  1.673398  0.52  0.971824  0.801115  2.054272  0.665  1.059956  0.859946  1.993175  0.75  0.716282  0.895323  0.74825  2.116643  0.597
Cu  Cu1  1  0.99999621  0.99999717  0.99999677  1  0.970146  0.688303  1.673554  0.52  0.971822  0.801132  2.05442  0.665  1.059991  0.859928  1.993238  0.75  0.716327  0.895404  0.748312  2.1168  0.596
H  H2  1  0.94100646  0.41258098  0.06453233  1  0.394537  1.3e-05  0.888433  0.0  0.37005  0.000637  0.95689  0.001  0.382617  0.00038  0.944227  0.001  0.306119  0.360973  0.000806  0.965885  0.001
H  H3  1  0.44099747  0.08741870  0.93546870  1  0.394526  1.9e-05  0.888493  0.0  0.370059  0.000637  0.956912  0.001  0.382622  0.000381  0.944256  0.001  0.30614  0.360991  0.000807  0.965921  0.001
H  H4  1  0.05898774  0.58740571  0.93546862  1  0.394536  2e-05  0.888419  0.0  0.370069  0.000637  0.956849  0.001  0.382633  0.00038  0.944189  0.001  0.306136  0.360992  0.000806  0.96586  0.001
H  H5  1  0.55900278  0.91258190  0.06452917  1  0.394591  1.7e-05  0.88839  0.0  0.370105  0.000637  0.956851  0.001  0.38267  0.00038  0.944193  0.001  0.30616  0.361028  0.000806  0.965864  0.001
H  H6  1  0.76482684  0.26406410  0.13851066  1  0.082019  4.9e-05  0.935033  0.0  0.087864  0.000243  0.999868  0.0  0.090102  0.000184  0.997698  0.0  0.116853  0.0857  0.000278  1.0022  0.0
H  H7  1  0.26480717  0.23593859  0.86148977  1  0.082117  3.2e-05  0.934918  0.0  0.087931  0.000242  0.999777  0.0  0.090173  0.000184  0.997603  0.0  0.116863  0.085768  0.000277  1.002105  0.0
H  H8  1  0.23518555  0.73592141  0.86149138  1  0.082084  2.8e-05  0.934981  0.0  0.087928  0.000243  0.999849  0.0  0.090141  0.000184  0.997663  0.0  0.116868  0.085784  0.000278  1.002197  0.0
H  H9  1  0.73519106  0.76406545  0.13850920  1  0.082155  6.1e-05  0.934912  0.0  0.087953  0.000242  0.999777  0.0  0.090192  0.000184  0.997608  0.0  0.11687  0.085787  0.000277  1.00211  0.0
H  H10  1  0.50386803  0.56987420  0.23055220  1  0.095437  -5e-05  0.936169  0.0  0.111789  -5e-06  0.998257  0.0  0.113226  -8e-06  0.998  0.0  0.095851  0.110533  1.9e-05  0.998881  0.0
H  H11  1  0.00384973  0.93012119  0.76944861  1  0.095401  -5.9e-05  0.936203  0.0  0.111781  -5e-06  0.998249  0.0  0.113219  -8e-06  0.99799  0.0  0.095868  0.110529  2e-05  0.998867  0.0
H  H12  1  0.49614031  0.43011607  0.76944363  1  0.095364  -4.5e-05  0.936234  0.0  0.111766  -5e-06  0.99827  0.0  0.113199  -8e-06  0.998013  0.0  0.095826  0.110511  1.9e-05  0.998891  0.0
H  H13  1  0.99615457  0.06988048  0.23055253  1  0.09542  -3.9e-05  0.936226  0.0  0.111828  -5e-06  0.998219  0.0  0.113262  -8e-06  0.997962  0.0  0.095869  0.110575  2e-05  0.998839  0.0
H  H14  1  0.50937017  0.40109647  0.27162503  1  0.081228  0.000456  0.955237  0.001  0.100468  0.000366  1.018544  0.001  0.101236  0.00021  1.019593  0.0  0.09319  0.09887  0.0005  1.018658  0.001
H  H15  1  0.00934120  0.09890932  0.72837867  1  0.081258  0.000447  0.955091  0.001  0.100473  0.000366  1.018447  0.001  0.101241  0.00021  1.019494  0.0  0.093149  0.098879  0.0005  1.018556  0.001
H  H16  1  0.49063615  0.59890166  0.72837938  1  0.081222  0.000451  0.955332  0.001  0.100491  0.000366  1.018585  0.001  0.101254  0.00021  1.019638  0.0  0.093195  0.098896  0.0005  1.01869  0.001
H  H17  1  0.99065703  0.90108897  0.27161951  1  0.081268  0.000434  0.955112  0.001  0.100508  0.000366  1.018447  0.001  0.101276  0.000211  1.01949  0.0  0.09317  0.098912  0.0005  1.018559  0.001
H  H18  1  0.02438197  0.55168436  0.22179158  1  0.102586  0.000259  0.945934  0.0  0.114525  0.000307  1.009185  0.0  0.115908  0.000207  1.008833  0.0  0.096288  0.114652  0.000399  1.008709  0.0
H  H19  1  0.52436921  0.94831064  0.77821102  1  0.102605  0.00027  0.945815  0.0  0.114502  0.000307  1.009128  0.0  0.115887  0.000208  1.008772  0.0  0.096298  0.114635  0.0004  1.00865  0.0
H  H20  1  0.97562233  0.44831730  0.77821018  1  0.102576  0.000255  0.94594  0.0  0.114512  0.000307  1.009211  0.0  0.115895  0.000208  1.008856  0.0  0.096281  0.114643  0.000399  1.008735  0.0
H  H21  1  0.47563307  0.05168650  0.22178700  1  0.102606  0.00027  0.945849  0.0  0.114511  0.000307  1.009152  0.0  0.115897  0.000207  1.008793  0.0  0.09629  0.114645  0.0004  1.008674  0.0
H  H22  1  0.00341185  0.40383709  0.27953566  1  0.084317  0.000809  0.942642  0.001  0.096611  1e-05  1.009627  0.0  0.097785  1e-06  1.009593  0.0  0.090643  0.095889  0.000239  1.009703  0.0
H  H23  1  0.50338569  0.09616410  0.72047179  1  0.084322  0.000812  0.942516  0.001  0.096568  1e-05  1.009565  0.0  0.097741  1e-06  1.009534  0.0  0.09064  0.095852  0.000238  1.009639  0.0
H  H24  1  0.99660054  0.59616796  0.72046907  1  0.084287  0.000804  0.94257  0.001  0.096564  1e-05  1.009603  0.0  0.097739  0.0  1.009567  0.0  0.090625  0.095845  0.000238  1.00968  0.0
H  H25  1  0.49661861  0.90383984  0.27953092  1  0.084269  0.000809  0.942664  0.001  0.096592  1e-05  1.009621  0.0  0.097767  1e-06  1.009592  0.0  0.090632  0.095873  0.000239  1.009697  0.0
H  H26  1  0.49476843  0.57845050  0.41749412  1  0.105443  0.000702  0.980936  0.001  0.114987  1.7e-05  1.057207  0.0  0.116783  4e-06  1.057119  0.0  0.081401  0.11409  0.000229  1.056971  0.0
H  H27  1  0.99479208  0.92157463  0.58250575  1  0.105389  0.000696  0.980946  0.001  0.11498  1.7e-05  1.057197  0.0  0.116776  4e-06  1.057109  0.0  0.081435  0.114078  0.000229  1.056957  0.0
H  H28  1  0.50521162  0.42155120  0.58250578  1  0.105441  0.000699  0.980943  0.001  0.115004  1.7e-05  1.057195  0.0  0.116802  4e-06  1.057103  0.0  0.081423  0.114102  0.000228  1.056958  0.0
H  H29  1  0.00522031  0.07845022  0.41749046  1  0.105429  0.000694  0.980938  0.001  0.114981  1.7e-05  1.057186  0.0  0.116778  4e-06  1.057097  0.0  0.08141  0.114083  0.000229  1.056942  0.0
H  H30  1  0.72655795  0.66487493  0.50019647  1  0.114834  7e-06  0.971762  0.0  0.133815  1.7e-05  1.033864  0.0  0.135172  9e-06  1.034092  0.0  0.087461  0.13261  2.5e-05  1.033954  0.0
H  H31  1  0.22658058  0.83514555  0.49980249  1  0.114801  5e-06  0.971699  0.0  0.133818  1.7e-05  1.033763  0.0  0.135172  9e-06  1.033996  0.0  0.087488  0.132603  2.5e-05  1.033855  0.0
H  H32  1  0.27342007  0.33512563  0.49980327  1  0.114807  2e-05  0.971849  0.0  0.133849  1.7e-05  1.033871  0.0  0.135206  9e-06  1.034101  0.0  0.087471  0.132636  2.5e-05  1.033961  0.0
H  H33  1  0.77342574  0.16487811  0.50019543  1  0.114785  4e-06  0.971797  0.0  0.133792  1.7e-05  1.033875  0.0  0.135151  9e-06  1.034103  0.0  0.087449  0.132583  2.5e-05  1.033959  0.0
H  H34  1  0.77889006  0.47062495  0.44165215  1  0.114051  0.000573  0.96695  0.001  0.131903  -2e-06  1.027484  0.0  0.133155  -3e-06  1.028222  0.0  0.086159  0.131727  0.000186  1.026029  0.0
H  H35  1  0.27891552  0.02939364  0.55834795  1  0.114083  0.000563  0.966895  0.001  0.131952  -2e-06  1.027442  0.0  0.133204  -3e-06  1.028179  0.0  0.086168  0.131765  0.000186  1.025988  0.0
H  H36  1  0.22108797  0.52937906  0.55834744  1  0.114111  0.000581  0.966906  0.001  0.131993  -2e-06  1.027415  0.0  0.133246  -3e-06  1.028151  0.0  0.086214  0.131807  0.000185  1.025964  0.0
H  H37  1  0.72110698  0.97062654  0.44165074  1  0.114067  0.000568  0.966973  0.001  0.13195  -2e-06  1.027461  0.0  0.1332  -3e-06  1.028199  0.0  0.086182  0.13177  0.000186  1.026002  0.0
C  C38  1  0.35857488  0.30837968  0.10602025  1  0.62941  -0.005566  3.819407  -0.004  0.581082  -0.001207  4.128674  -0.001  0.616743  -0.00112  4.120502  -0.001  0.211692  0.556613  -0.001003  4.132477  -0.001
C  C39  1  0.85852323  0.19161551  0.89398590  1  0.629432  -0.005642  3.819416  -0.005  0.58119  -0.001206  4.128509  -0.001  0.616864  -0.001119  4.120324  -0.001  0.211734  0.556717  -0.001005  4.132327  -0.001
C  C40  1  0.64143144  0.69160575  0.89398491  1  0.629421  -0.005596  3.819496  -0.005  0.581182  -0.001206  4.128667  -0.001  0.616816  -0.001119  4.120477  -0.001  0.211681  0.556746  -0.001003  4.132485  -0.001
C  C41  1  0.14146894  0.80838976  0.10600949  1  0.629462  -0.005551  3.819287  -0.004  0.581189  -0.001206  4.128406  -0.001  0.616862  -0.001119  4.120227  -0.001  0.211648  0.556717  -0.001005  4.132228  -0.001
C  C42  1  0.63645229  0.36495384  0.14022066  1  0.104692  -0.0012  3.575413  -0.002  0.086947  0.000618  3.81785  0.0  0.089917  0.000231  3.826298  0.0  -0.003617  0.085121  0.001149  3.812041  0.0
C  C43  1  0.13643381  0.13504514  0.85978444  1  0.104632  -0.001091  3.574985  -0.002  0.086916  0.000618  3.817341  0.0  0.089878  0.000228  3.825789  0.0  -0.003509  0.085117  0.001146  3.811509  0.0
C  C44  1  0.36355807  0.63503170  0.85978014  1  0.104725  -0.00103  3.575058  -0.001  0.086821  0.000614  3.817773  0.0  0.089932  0.000228  3.825996  0.0  -0.003649  0.084873  0.001149  3.812145  0.0
C  C45  1  0.86356645  0.86495774  0.14021437  1  0.104506  -0.00122  3.575124  -0.002  0.086821  0.000617  3.817492  0.0  0.089782  0.000231  3.825951  0.0  -0.003505  0.085019  0.001147  3.811664  0.0
C  C46  1  0.61949803  0.46547746  0.23175067  1  -0.152332  0.002144  3.665904  0.002  -0.199858  0.000878  3.914581  0.001  -0.202034  0.000423  3.928253  0.0  -0.169506  -0.197809  0.001579  3.905588  0.002
C  C47  1  0.11948598  0.03451962  0.76824982  1  -0.152459  0.002162  3.665639  0.002  -0.199944  0.000878  3.914211  0.001  -0.202135  0.00042  3.92792  0.0  -0.169519  -0.197891  0.001581  3.905208  0.002
C  C48  1  0.38051031  0.53451499  0.76825046  1  -0.152403  0.002111  3.666058  0.002  -0.199922  0.000878  3.914804  0.001  -0.202149  0.000422  3.928494  0.0  -0.169524  -0.197834  0.001578  3.905831  0.002
C  C49  1  0.88051428  0.96548325  0.23174962  1  -0.152478  0.002176  3.665643  0.002  -0.200038  0.000878  3.914293  0.001  -0.202231  0.000421  3.928008  0.0  -0.169557  -0.197987  0.001581  3.905292  0.002
C  C50  1  0.90237463  0.50656968  0.26787506  1  -0.144319  -0.000403  3.667102  0.0  -0.178009  0.000453  3.937751  0.0  -0.178087  0.000301  3.950004  0.0  -0.157928  -0.177971  0.000741  3.927105  0.001
C  C51  1  0.40237379  0.99342137  0.73212087  1  -0.144384  -0.000434  3.667213  0.0  -0.17802  0.000452  3.937878  0.0  -0.178094  0.000301  3.950116  0.0  -0.158022  -0.178  0.000742  3.92726  0.001
C  C52  1  0.09762967  0.49342966  0.73212701  1  -0.144207  -0.000371  3.666976  0.0  -0.177935  0.000453  3.937724  0.0  -0.178007  0.0003  3.949955  0.0  -0.157901  -0.177912  0.000741  3.927096  0.001
C  C53  1  0.59762848  0.00658037  0.26787778  1  -0.144374  -0.000414  3.667253  0.0  -0.178083  0.000453  3.93796  0.0  -0.178169  0.000301  3.950211  0.0  -0.158045  -0.178062  0.000743  3.927338  0.001
C  C54  1  0.70801860  0.58460162  0.43713343  1  -0.332173  -0.000565  3.685477  0.0  -0.393339  5.6e-05  3.9319  0.0  -0.395304  2.6e-05  3.940794  0.0  -0.238445  -0.392606  0.000388  3.92476  0.0
C  C55  1  0.20804634  0.91542030  0.56286639  1  -0.332081  -0.000548  3.68536  0.0  -0.393314  5.6e-05  3.931689  0.0  -0.395276  2.7e-05  3.940579  0.0  -0.238486  -0.392623  0.000388  3.924704  0.0
C  C56  1  0.29195740  0.41540124  0.56286601  1  -0.332258  -0.000622  3.685572  0.0  -0.393472  5.6e-05  3.93188  0.0  -0.395435  2.7e-05  3.940765  0.0  -0.238559  -0.392786  0.000388  3.924897  0.0
C  C57  1  0.79196807  0.08460339  0.43713029  1  -0.332137  -0.000532  3.685491  0.0  -0.393327  5.6e-05  3.931891  0.0  -0.395289  2.7e-05  3.940777  0.0  -0.238438  -0.392639  0.000389  3.924886  0.0
S  S58  1  0.91609298  0.65965785  0.36392747  1  -0.002371  0.024791  2.356649  0.026  -0.002736  0.000174  2.712791  0.0  -0.007443  -2.7e-05  2.712924  0.0  -0.029885  0.005933  0.006241  2.709549  0.007
S  S59  1  0.41610539  0.84036389  0.63607704  1  -0.002388  0.024743  2.357032  0.026  -0.00267  0.000174  2.71319  0.0  -0.007373  -2.6e-05  2.713317  0.0  -0.029858  0.005998  0.006233  2.709966  0.007
S  S60  1  0.08388505  0.34034386  0.63607243  1  -0.002446  0.02473  2.356608  0.026  -0.002695  0.000174  2.712756  0.0  -0.007404  -2.7e-05  2.712885  0.0  -0.029866  0.00598  0.006232  2.709528  0.007
S  S61  1  0.58389487  0.15964596  0.36391961  1  -0.002194  0.024787  2.356988  0.026  -0.002588  0.000174  2.713184  0.0  -0.007293  -2.7e-05  2.713318  0.0  -0.029809  0.006091  0.006243  2.709952  0.007
O  O62  1  0.25617210  0.36950320  0.04570324  1  -0.637743  0.063891  2.125327  0.09  -0.596345  0.046148  2.413437  0.072  -0.637143  0.034656  2.400728  0.058  -0.33505  -0.566791  0.051446  2.421847  0.075
O  O63  1  0.75616724  0.13048910  0.95430390  1  -0.637858  0.063852  2.125467  0.09  -0.596533  0.046143  2.413665  0.072  -0.637262  0.034656  2.400777  0.058  -0.335126  -0.567033  0.051443  2.422175  0.075
O  O64  1  0.74382210  0.63047994  0.95430160  1  -0.637906  0.063875  2.125287  0.09  -0.596529  0.046147  2.413401  0.072  -0.637301  0.034656  2.400625  0.058  -0.33512  -0.566984  0.051446  2.421816  0.075
O  O65  1  0.24382695  0.86950582  0.04569069  1  -0.637812  0.063838  2.125427  0.09  -0.596476  0.046139  2.413664  0.072  -0.637208  0.034653  2.400774  0.058  -0.33509  -0.566952  0.051438  2.422125  0.075
O  O66  1  0.23458550  0.21192222  0.13547221  1  -0.565315  0.019712  1.953205  0.027  -0.532871  0.009031  2.199282  0.014  -0.559236  0.002993  2.189481  0.006  -0.292418  -0.513915  0.015679  2.205754  0.022
O  O67  1  0.73456971  0.28808426  0.86453566  1  -0.565299  0.019718  1.953232  0.027  -0.532862  0.009027  2.19924  0.014  -0.559218  0.002992  2.18942  0.006  -0.29244  -0.51391  0.015669  2.205744  0.022
O  O68  1  0.76541476  0.78805631  0.86453262  1  -0.565228  0.019708  1.953542  0.027  -0.532833  0.009029  2.199644  0.014  -0.5592  0.002993  2.189856  0.006  -0.292336  -0.513849  0.015675  2.206049  0.022
O  O69  1  0.26543055  0.71191512  0.13546517  1  -0.565377  0.019695  1.953002  0.027  -0.532939  0.009027  2.199064  0.014  -0.559302  0.002991  2.189251  0.006  -0.292426  -0.513968  0.015671  2.20553  0.022
O  O70  1  0.75635486  0.45456009  0.08495375  1  -0.559296  0.050241  2.21896  0.07  -0.512794  0.041703  2.488594  0.064  -0.543403  0.031563  2.475505  0.053  -0.396957  -0.491236  0.046951  2.498698  0.067
O  O71  1  0.25636045  0.04542538  0.91504932  1  -0.559306  0.050217  2.218985  0.07  -0.512757  0.041708  2.488496  0.064  -0.54341  0.031569  2.475481  0.053  -0.396972  -0.491241  0.046961  2.498633  0.067
O  O72  1  0.24363731  0.54542202  0.91504595  1  -0.559224  0.050219  2.218774  0.07  -0.512682  0.041705  2.488398  0.064  -0.543343  0.031565  2.475306  0.053  -0.39692  -0.491097  0.046953  2.498541  0.067
O  O73  1  0.74363577  0.95457521  0.08494917  1  -0.559232  0.050221  2.218819  0.07  -0.512698  0.041706  2.488386  0.064  -0.543317  0.031567  2.475287  0.053  -0.396965  -0.491173  0.046958  2.498524  0.067
