# generated using pymatgen
data_ZnH10(C2O)8
_symmetry_space_group_name_H-M   'P 1'
_cell_length_a   6.97879771
_cell_length_b   7.82328102
_cell_length_c   14.90862455
_cell_angle_alpha   90.31685869
_cell_angle_beta   84.81745632
_cell_angle_gamma   118.49414590
_symmetry_Int_Tables_number   1
_chemical_formula_structural   ZnH10(C2O)8
_chemical_formula_sum   'Zn2 H20 C32 O16'
_cell_volume   711.78750709
_cell_formula_units_Z   2
loop_
 _symmetry_equiv_pos_site_id
 _symmetry_equiv_pos_as_xyz
  1  'x, y, z'
loop_
 _atom_site_type_symbol
 _atom_site_label
 _atom_site_symmetry_multiplicity
 _atom_site_fract_x
 _atom_site_fract_y
 _atom_site_fract_z
 _atom_site_occupancy
 _atom_site_hle17_bader_spin_density
 _atom_site_hle17_ddec_charge
 _atom_site_hle17_ddec_spin_density
 _atom_site_hle17_ddec_sum_bond_order
 _atom_site_hle17_magmom
 _atom_site_hse06_10hf_bader_spin_density
 _atom_site_hse06_10hf_ddec_charge
 _atom_site_hse06_10hf_ddec_spin_density
 _atom_site_hse06_10hf_ddec_sum_bond_order
 _atom_site_hse06_10hf_magmom
 _atom_site_hse06_bader_spin_density
 _atom_site_hse06_ddec_charge
 _atom_site_hse06_ddec_spin_density
 _atom_site_hse06_ddec_sum_bond_order
 _atom_site_hse06_magmom
 _atom_site_pbe_bader_spin_density
 _atom_site_pbe_cm5_charge
 _atom_site_pbe_ddec_charge
 _atom_site_pbe_ddec_spin_density
 _atom_site_pbe_ddec_sum_bond_order
 _atom_site_pbe_magmom
Zn  Zn0  1  0.93167845  0.69978374  0.43412268  1  0  1.239319  0  1.651166  0  0  1.075426  0  2.117826  0  0  1.124059  0  2.051568  0  0  0.706757  1.040848  0  2.163899  0
Zn  Zn1  1  0.06834565  0.29977477  0.56577369  1  0  1.238501  0  1.651629  0  0  1.074178  0  2.118436  0  0  1.122878  0  2.0521  0  0  0.706362  1.039555  0  2.164566  0
H  H2  1  0.90745760  0.98319280  0.86797047  1  0  0.136282  0  0.940023  0  0  0.138782  0  1.009725  0  0  0.143197  0  1.006024  0  0  0.117881  0.135603  0  1.012509  0
H  H3  1  0.09264551  0.01666792  0.13178702  1  0  0.136199  0  0.940486  0  0  0.138714  0  1.010261  0  0  0.14315  0  1.006528  0  0  0.117667  0.135527  0  1.01304  0
H  H4  1  0.82542728  0.34929382  0.76008417  1  0  0.118322  0  0.941153  0  0  0.124176  0  1.006576  0  0  0.128838  0  1.002768  0  0  0.11194  0.120744  0  1.009499  0
H  H5  1  0.17492562  0.65041627  0.24002990  1  0  0.118268  0  0.941245  0  0  0.124329  0  1.006476  0  0  0.129036  0  1.002629  0  0  0.111948  0.120881  0  1.009405  0
H  H6  1  0.64956366  0.07594919  0.06681744  1  0  0.12401  0  0.95922  0  0  0.127396  0  1.027909  0  0  0.131578  0  1.024208  0  0  0.111956  0.124436  0  1.030554  0
H  H7  1  0.35065133  0.92420476  0.93332917  1  0  0.123633  0  0.959504  0  0  0.127097  0  1.028174  0  0  0.131266  0  1.024484  0  0  0.11171  0.124154  0  1.030775  0
H  H8  1  0.57423601  0.10411651  0.23190977  1  0  0.095947  0  0.933988  0  0  0.106485  0  0.991338  0  0  0.110139  0  0.989138  0  0  0.101797  0.10366  0  0.9932  0
H  H9  1  0.42616205  0.89633614  0.76823693  1  0  0.096124  0  0.933786  0  0  0.106636  0  0.991205  0  0  0.110271  0  0.989036  0  0  0.101918  0.103857  0  0.993  0
H  H10  1  0.60778769  0.41684919  0.28913715  1  0  0.087534  0  0.969196  0  0  0.096003  0  1.033915  0  0  0.09946  0  1.031509  0  0  0.094749  0.093399  0  1.035832  0
H  H11  1  0.39246429  0.58360603  0.71087040  1  0  0.088156  0  0.96943  0  0  0.096528  0  1.034028  0  0  0.099973  0  1.031643  0  0  0.094869  0.093935  0  1.03595  0
H  H12  1  0.70046960  0.69362910  0.18135766  1  0  0.100255  0  0.942518  0  0  0.109277  0  1.003932  0  0  0.112796  0  1.001872  0  0  0.104009  0.106667  0  1.005578  0
H  H13  1  0.29969346  0.30670260  0.81852481  1  0  0.100381  0  0.94239  0  0  0.109652  0  1.00351  0  0  0.113194  0  1.001398  0  0  0.104049  0.107036  0  1.005159  0
H  H14  1  0.31751979  0.01147458  0.42451975  1  0  0.440297  0  0.799372  0  0  0.42407  0  0.848852  0  0  0.432206  0  0.839941  0  0  0.328107  0.418251  0  0.855279  0
H  H15  1  0.68021220  0.98968947  0.57572801  1  0  0.440719  0  0.798452  0  0  0.424605  0  0.847819  0  0  0.432718  0  0.838973  0  0  0.32858  0.4188  0  0.854202  0
H  H16  1  0.26370403  0.94886737  0.52836288  1  0  0.435608  0  0.859888  0  0  0.40259  0  0.926824  0  0  0.412753  0  0.911964  0  0  0.298352  0.395382  0  0.937366  0
H  H17  1  0.73444061  0.05150036  0.47184661  1  0  0.436123  0  0.858338  0  0  0.403446  0  0.924714  0  0  0.413551  0  0.909908  0  0  0.298967  0.39629  0  0.935187  0
H  H18  1  0.45509517  0.51358899  0.42451551  1  0  0.447856  0  0.838649  0  0  0.41851  0  0.897778  0  0  0.428356  0  0.883449  0  0  0.302734  0.411497  0  0.908001  0
H  H19  1  0.54493444  0.48634829  0.57515552  1  0  0.447942  0  0.838615  0  0  0.418398  0  0.898105  0  0  0.428267  0  0.883742  0  0  0.302542  0.41137  0  0.908348  0
H  H20  1  0.61447787  0.74448230  0.39222183  1  0  0.428588  0  0.872844  0  0  0.39764  0  0.93529  0  0  0.409089  0  0.918567  0  0  0.294242  0.389584  0  0.947027  0
H  H21  1  0.38604652  0.25584332  0.60787700  1  0  0.42854  0  0.872656  0  0  0.397697  0  0.934868  0  0  0.409091  0  0.91823  0  0  0.294427  0.389664  0  0.946576  0
C  C22  1  0.89048812  0.84608028  0.84287533  1  0  -0.042586  0  3.602564  0  0  -0.078104  0  3.858003  0  0  -0.077291  0  3.875388  0  0  -0.055059  -0.078539  0  3.846238  0
C  C23  1  0.10960286  0.15370614  0.15697777  1  0  -0.042707  0  3.602489  0  0  -0.078266  0  3.857897  0  0  -0.077452  0  3.875266  0  0  -0.054946  -0.07868  0  3.846135  0
C  C24  1  0.93965310  0.82675155  0.75167202  1  0  -0.050932  0  3.676805  0  0  -0.037879  0  3.918015  0  0  -0.042981  0  3.938255  0  0  0.001566  -0.034663  0  3.904591  0
C  C25  1  0.06037350  0.17283531  0.24819636  1  0  -0.05009  0  3.675874  0  0  -0.037579  0  3.917027  0  0  -0.042676  0  3.937229  0  0  0.001311  -0.034416  0  3.903706  0
C  C26  1  0.90790366  0.64474146  0.72131355  1  0  -0.071103  0  3.749263  0  0  -0.060627  0  3.989972  0  0  -0.06666  0  4.011376  0  0  -0.00714  -0.056685  0  3.975791  0
C  C27  1  0.09235831  0.35486102  0.27863441  1  0  -0.072581  0  3.750757  0  0  -0.061368  0  3.990414  0  0  -0.067369  0  4.011855  0  0  -0.007244  -0.057404  0  3.976192  0
C  C28  1  0.84324954  0.48886431  0.78206115  1  0  -0.071013  0  3.704656  0  0  -0.102638  0  3.955439  0  0  -0.103176  0  3.974306  0  0  -0.069158  -0.102188  0  3.942695  0
C  C29  1  0.15699931  0.51087851  0.21796439  1  0  -0.070268  0  3.7047  0  0  -0.102429  0  3.955175  0  0  -0.102974  0  3.974005  0  0  -0.069161  -0.101964  0  3.942427  0
C  C30  1  0.80531899  0.51062153  0.87368963  1  0  -0.03627  0  3.754734  0  0  -0.028062  0  3.991137  0  0  -0.032259  0  4.014301  0  0  -0.00552  -0.025162  0  3.975221  0
C  C31  1  0.19486913  0.48925693  0.12631318  1  0  -0.036878  0  3.754907  0  0  -0.028436  0  3.991258  0  0  -0.03263  0  4.014429  0  0  -0.00553  -0.025555  0  3.975365  0
C  C32  1  0.75240266  0.34311865  0.93594020  1  0  0.374535  0  3.764547  0  0  0.352701  0  4.030179  0  0  0.373928  0  4.033835  0  0  0.156748  0.338213  0  4.027637  0
C  C33  1  0.24781157  0.65686163  0.06411954  1  0  0.374864  0  3.763704  0  0  0.35283  0  4.029558  0  0  0.374073  0  4.033188  0  0  0.156516  0.33831  0  4.027083  0
C  C34  1  0.71294538  0.36563143  0.03307798  1  0  -0.061126  0  3.76845  0  0  -0.050301  0  4.004618  0  0  -0.057047  0  4.03046  0  0  -0.015866  -0.045701  0  3.987054  0
C  C35  1  0.28727826  0.63447985  0.96696939  1  0  -0.0614  0  3.768379  0  0  -0.050677  0  4.004677  0  0  -0.057463  0  4.03055  0  0  -0.015828  -0.046049  0  3.9871  0
C  C36  1  0.65855816  0.20901464  0.09341263  1  0  -0.038839  0  3.65849  0  0  -0.067232  0  3.915445  0  0  -0.067547  0  3.935054  0  0  -0.068335  -0.066898  0  3.901902  0
C  C37  1  0.34168767  0.79118021  0.90668937  1  0  -0.038507  0  3.657525  0  0  -0.06709  0  3.914752  0  0  -0.067386  0  3.934354  0  0  -0.068248  -0.066763  0  3.901229  0
C  C38  1  0.61767829  0.22644242  0.18506683  1  0  -0.036295  0  3.701636  0  0  -0.05187  0  3.957746  0  0  -0.054096  0  3.978513  0  0  -0.074397  -0.050057  0  3.943313  0
C  C39  1  0.38264102  0.77390566  0.81502134  1  0  -0.036568  0  3.701292  0  0  -0.052108  0  3.957634  0  0  -0.054338  0  3.97839  0  0  -0.074425  -0.050321  0  3.943226  0
C  C40  1  0.63512335  0.40141723  0.21721063  1  0  -0.053447  0  3.73556  0  0  -0.06922  0  3.993587  0  0  -0.071319  0  4.015669  0  0  -0.082724  -0.067496  0  3.978198  0
C  C41  1  0.36515097  0.59897697  0.78279753  1  0  -0.053583  0  3.735763  0  0  -0.069294  0  3.993907  0  0  -0.07136  0  4.015968  0  0  -0.083021  -0.067613  0  3.97857  0
C  C42  1  0.68860558  0.55733217  0.15758952  1  0  -0.059249  0  3.7099  0  0  -0.085335  0  3.968229  0  0  -0.0872  0  3.989965  0  0  -0.079067  -0.083963  0  3.953258  0
C  C43  1  0.31162572  0.44297145  0.84236518  1  0  -0.059435  0  3.709885  0  0  -0.085888  0  3.968135  0  0  -0.087791  0  3.989902  0  0  -0.078811  -0.084483  0  3.953137  0
C  C44  1  0.72599908  0.54075828  0.06480596  1  0  -0.063566  0  3.764009  0  0  -0.055331  0  4.002272  0  0  -0.061221  0  4.027994  0  0  -0.016529  -0.051267  0  3.984732  0
C  C45  1  0.27426226  0.45941746  0.93516468  1  0  -0.063394  0  3.763674  0  0  -0.054635  0  4.001569  0  0  -0.060498  0  4.027288  0  0  -0.016599  -0.050576  0  3.984012  0
C  C46  1  0.77537493  0.70715847  0.00230908  1  0  0.377139  0  3.733221  0  0  0.355518  0  4.000062  0  0  0.376906  0  4.002866  0  0  0.160658  0.340925  0  3.998057  0
C  C47  1  0.22489651  0.29293651  0.99760980  1  0  0.377026  0  3.733527  0  0  0.355012  0  4.000698  0  0  0.376389  0  4.003522  0  0  0.160616  0.340404  0  3.998695  0
C  C48  1  0.82444655  0.68804298  0.90443495  1  0  -0.025322  0  3.696904  0  0  -0.016124  0  3.933114  0  0  -0.020363  0  3.955537  0  0  0.002121  -0.013252  0  3.91776  0
C  C49  1  0.17575612  0.31189451  0.09549976  1  0  -0.02523  0  3.697213  0  0  -0.015973  0  3.933389  0  0  -0.020241  0  3.955875  0  0  0.002289  -0.013058  0  3.917959  0
C  C50  1  0.05149980  0.99637917  0.68418842  1  0  0.677459  0  3.86434  0  0  0.620921  0  4.167247  0  0  0.655785  0  4.159115  0  0  0.221824  0.597181  0  4.171992  0
C  C51  1  0.94814883  0.00297388  0.31555896  1  0  0.677147  0  3.864868  0  0  0.6212  0  4.167071  0  0  0.656083  0  4.15889  0  0  0.221997  0.597457  0  4.171844  0
C  C52  1  0.94331036  0.61476770  0.62383322  1  0  0.711013  0  3.843695  0  0  0.657274  0  4.132725  0  0  0.693526  0  4.122292  0  0  0.233778  0.632438  0  4.139263  0
C  C53  1  0.05700317  0.38462246  0.37613638  1  0  0.71256  0  3.842976  0  0  0.659592  0  4.130434  0  0  0.695688  0  4.120182  0  0  0.23554  0.634808  0  4.136923  0
O  O54  1  0.77043623  0.85383111  0.03059695  1  0  -0.424969  0  1.962538  0  0  -0.384099  0  2.182433  0  0  -0.400576  0  2.179789  0  0  -0.236099  -0.372903  0  2.184256  0
O  O55  1  0.22991601  0.14634767  0.96927405  1  0  -0.42463  0  1.962946  0  0  -0.383687  0  2.183029  0  0  -0.40006  0  2.180203  0  0  -0.235876  -0.372527  0  2.184925  0
O  O56  1  0.74717259  0.19316312  0.90626250  1  0  -0.427552  0  1.94118  0  0  -0.384736  0  2.156032  0  0  -0.401043  0  2.152926  0  0  -0.239286  -0.373732  0  2.158189  0
O  O57  1  0.25309814  0.80677622  0.09387532  1  0  -0.427655  0  1.940154  0  0  -0.384758  0  2.155105  0  0  -0.401081  0  2.151994  0  0  -0.239249  -0.373735  0  2.157269  0
O  O58  1  0.22857295  0.01738354  0.64119463  1  0  -0.65498  0  1.972455  0  0  -0.594065  0  2.187442  0  0  -0.620064  0  2.176051  0  0  -0.314913  -0.575673  0  2.19469  0
O  O59  1  0.77098788  0.98197595  0.35845716  1  0  -0.654626  0  1.970091  0  0  -0.593931  0  2.184659  0  0  -0.619932  0  2.173245  0  0  -0.315261  -0.575547  0  2.191898  0
O  O60  1  0.96586687  0.10660506  0.67364975  1  0  -0.644897  0  2.010098  0  0  -0.57553  0  2.271254  0  0  -0.605334  0  2.256543  0  0  -0.309187  -0.55452  0  2.280638  0
O  O61  1  0.03358220  0.89255917  0.32604625  1  0  -0.645285  0  2.010531  0  0  -0.576406  0  2.271695  0  0  -0.606198  0  2.256952  0  0  -0.309429  -0.555399  0  2.281094  0
O  O62  1  0.84411649  0.66594631  0.56954738  1  0  -0.690191  0  2.070125  0  0  -0.616791  0  2.33003  0  0  -0.645863  0  2.312574  0  0  -0.31572  -0.596443  0  2.341527  0
O  O63  1  0.15595794  0.33301052  0.43038425  1  0  -0.691401  0  2.069308  0  0  -0.618167  0  2.328821  0  0  -0.647216  0  2.311472  0  0  -0.316714  -0.597867  0  2.34037  0
O  O64  1  0.06570785  0.54157149  0.60018260  1  0  -0.650557  0  2.097484  0  0  -0.581199  0  2.375428  0  0  -0.608758  0  2.356819  0  0  -0.314401  -0.561852  0  2.387654  0
O  O65  1  0.93495217  0.45809675  0.39989293  1  0  -0.651788  0  2.097748  0  0  -0.583195  0  2.375794  0  0  -0.610753  0  2.357316  0  0  -0.315355  -0.56387  0  2.388026  0
O  O66  1  0.25969661  0.89926803  0.46666346  1  0  -0.819575  0  1.860272  0  0  -0.762629  0  2.053193  0  0  -0.783398  0  2.022893  0  0  -0.561702  -0.747963  0  2.074281  0
O  O67  1  0.73916374  0.10169481  0.53340086  1  0  -0.819032  0  1.859407  0  0  -0.762486  0  2.05174  0  0  -0.783144  0  2.021567  0  0  -0.561577  -0.747892  0  2.072746  0
O  O68  1  0.60566296  0.62229921  0.41655153  1  0  -0.871994  0  1.912441  0  0  -0.804893  0  2.11607  0  0  -0.826376  0  2.07797  0  0  -0.58439  -0.789717  0  2.142617  0
O  O69  1  0.39413368  0.37822436  0.58434143  1  0  -0.870823  0  1.912941  0  0  -0.803646  0  2.116692  0  0  -0.825109  0  2.07861  0  0  -0.583759  -0.788483  0  2.143242  0
