# generated using pymatgen
data_Co5H34C44(NO2)12
_symmetry_space_group_name_H-M   'P 1'
_cell_length_a   10.97968294
_cell_length_b   12.10693038
_cell_length_c   12.85046529
_cell_angle_alpha   65.32867816
_cell_angle_beta   86.22295896
_cell_angle_gamma   84.18151163
_symmetry_Int_Tables_number   1
_chemical_formula_structural   Co5H34C44(NO2)12
_chemical_formula_sum   'Co5 H34 C44 N12 O24'
_cell_volume   1543.76326267
_cell_formula_units_Z   1
loop_
 _symmetry_equiv_pos_site_id
 _symmetry_equiv_pos_as_xyz
  1  'x, y, z'
loop_
 _atom_site_type_symbol
 _atom_site_label
 _atom_site_symmetry_multiplicity
 _atom_site_fract_x
 _atom_site_fract_y
 _atom_site_fract_z
 _atom_site_occupancy
 _atom_site_pbe_bader_charge
 _atom_site_pbe_bader_spin_density
 _atom_site_pbe_cm5_charge
 _atom_site_pbe_ddec_charge
 _atom_site_pbe_ddec_spin_density
 _atom_site_pbe_ddec_sum_bond_order
 _atom_site_pbe_magmom
Co  Co0  1  0.75503202  0.11819164  0.05029910  1  1.277171  2.58102  0.626469  0.960669  2.766636  2.407598  2.566
Co  Co1  1  0.24497183  0.88180399  0.94971244  1  1.277044  2.581085  0.62656  0.960897  2.766717  2.407689  2.566
Co  Co2  1  0.00000427  0.99999452  0.00000190  1  1.264624  2.598648  0.599173  0.970643  2.789484  2.405799  2.587
Co  Co3  1  0.09759316  0.82220614  0.22889587  1  1.340225  2.642759  0.681224  1.039718  2.849922  2.479955  2.626
Co  Co4  1  0.90240929  0.17778566  0.77110016  1  1.340191  2.642793  0.681272  1.039862  2.849972  2.479892  2.626
H  H5  1  0.84904350  0.17717895  0.33748255  1  0.096814  0.000319  0.100651  0.111768  0.000112  1.015056  0.0
H  H6  1  0.15096067  0.82282380  0.66250668  1  0.096703  0.000319  0.100677  0.111785  0.000112  1.015232  0.0
H  H7  1  0.14857202  0.13356528  0.55253057  1  0.073005  0.000565  0.105532  0.121319  0.000214  1.019916  0.0
H  H8  1  0.85142886  0.86643304  0.44747773  1  0.073137  0.000565  0.105515  0.121334  0.000214  1.019948  0.0
H  H9  1  0.20520842  0.03885609  0.26239835  1  0.161697  9.7e-05  0.109928  0.127385  -9.6e-05  1.059779  0.0
H  H10  1  0.79478456  0.96113854  0.73761730  1  0.161619  9.6e-05  0.109921  0.127354  -9.6e-05  1.059844  0.0
H  H11  1  0.33423274  0.92049066  0.38519741  1  0.165756  0.000136  0.130272  0.102351  4.3e-05  1.024575  0.0
H  H12  1  0.66577233  0.07949140  0.61483040  1  0.165703  0.000137  0.130328  0.102549  4.3e-05  1.024485  0.0
H  H13  1  0.45658887  0.92930894  0.46653726  1  0.099323  4e-05  0.128326  0.087676  1.6e-05  0.964793  0.0
H  H14  1  0.54341016  0.07067940  0.53348447  1  0.099693  4e-05  0.128413  0.087875  1.6e-05  0.964711  0.0
H  H15  1  0.47514767  0.21531618  0.03128307  1  0.167569  0.000257  0.140059  0.112067  1e-05  0.979985  0.0
H  H16  1  0.52482726  0.78467640  0.96873203  1  0.167265  0.000257  0.140036  0.112146  1e-05  0.979906  0.0
H  H17  1  0.64701191  0.98833910  0.33986758  1  0.191377  0.000204  0.142398  0.114296  -0.00015  1.004743  0.0
H  H18  1  0.35298578  0.01166381  0.66014528  1  0.191436  0.000205  0.142396  0.114228  -0.00015  1.004816  0.0
H  H19  1  0.40046898  0.10569663  0.91856827  1  0.104367  0.00026  0.109906  0.122917  -6.5e-05  1.01373  0.0
H  H20  1  0.59953666  0.89430911  0.08144303  1  0.104211  0.00026  0.109928  0.122926  -6.5e-05  1.01386  0.0
H  H21  1  0.21578463  0.29266108  0.59833241  1  0.155159  0.000191  0.109426  0.12443  6.4e-05  1.058061  0.0
H  H22  1  0.78420177  0.70734609  0.40166145  1  0.155243  0.000191  0.109499  0.124521  6.4e-05  1.058037  0.0
H  H23  1  0.61188905  0.27233979  0.60412927  1  0.19036  0.000166  0.114391  0.143582  1.3e-05  1.019332  0.0
H  H24  1  0.38808382  0.72766543  0.39586920  1  0.19027  0.000166  0.114394  0.143679  1.3e-05  1.019017  0.0
H  H25  1  0.29317705  0.26828429  0.43352949  1  0.170899  0.00013  0.127445  0.082303  1.9e-05  1.040601  0.0
H  H26  1  0.70681271  0.73172572  0.56646928  1  0.170743  0.00013  0.127415  0.082307  1.9e-05  1.040576  0.0
H  H27  1  0.39077369  0.35929013  0.31774473  1  0.093626  2.1e-05  0.135108  0.096053  -2e-06  0.934731  0.0
H  H28  1  0.60922084  0.64071803  0.68224752  1  0.093664  2.1e-05  0.135051  0.096006  -2e-06  0.93469  0.0
H  H29  1  0.98362752  0.57241630  0.38941900  1  0.17661  0.000352  0.142883  0.114892  -4.8e-05  0.994685  0.0
H  H30  1  0.01636542  0.42758914  0.61057753  1  0.176803  0.000352  0.142918  0.114975  -4.8e-05  0.994686  0.0
H  H31  1  0.34142830  0.60621364  0.24825104  1  0.185263  0.000244  0.150074  0.123786  -0.000269  0.97512  0.0
H  H32  1  0.65856329  0.39378638  0.75175474  1  0.185179  0.000243  0.149978  0.123744  -0.000269  0.97508  0.0
H  H33  1  0.05206439  0.77631787  0.06552598  1  0.591515  0.002365  0.308596  0.389813  0.001253  0.902605  0.002
H  H34  1  0.94795177  0.22367401  0.93446151  1  0.591463  0.002365  0.308585  0.389768  0.001254  0.90273  0.002
H  H35  1  0.77100795  0.31427295  0.06980050  1  0.613729  -0.000562  0.31936  0.407401  -0.000696  0.885993  0.0
H  H36  1  0.22899448  0.68575815  0.93018371  1  0.613959  -0.000562  0.31934  0.407454  -0.000696  0.885933  0.0
H  H37  1  0.77296824  0.36576317  0.93681256  1  0.596424  0.000666  0.313249  0.383884  0.00028  0.913696  0.0
H  H38  1  0.22704485  0.63423232  0.06317287  1  0.596685  0.000667  0.31329  0.384007  0.00028  0.913795  0.0
C  C39  1  0.02321438  0.10609603  0.29060409  1  -0.024594  0.009305  -0.022458  -0.020835  0.004797  3.983346  0.007
C  C40  1  0.97680125  0.89389138  0.70939533  1  -0.024013  0.009299  -0.022506  -0.021228  0.004795  3.983946  0.007
C  C41  1  0.94580307  0.15278700  0.35632216  1  -0.002779  0.00282  -0.087267  -0.124645  0.001481  3.945782  0.002
C  C42  1  0.05420649  0.84721673  0.64366717  1  -0.002643  0.002819  -0.087234  -0.124516  0.001481  3.946386  0.002
C  C43  1  0.99133076  0.16285486  0.45053568  1  0.010929  0.007942  -0.018092  -0.009789  0.00404  3.979756  0.006
C  C44  1  0.00867670  0.83715165  0.54945887  1  0.010675  0.007942  -0.018064  -0.00964  0.00404  3.979854  0.006
C  C45  1  0.11493025  0.12926481  0.47661954  1  0.00855  -0.001572  -0.09462  -0.204577  -0.002085  3.972914  -0.001
C  C46  1  0.88506772  0.87073531  0.52338897  1  0.008637  -0.001568  -0.09463  -0.204688  -0.002081  3.973075  -0.001
C  C47  1  0.19241100  0.08672619  0.40866233  1  0.339594  0.000697  0.073923  0.242236  0.000259  4.039156  0.001
C  C48  1  0.80758806  0.91327209  0.59134452  1  0.339758  0.000696  0.073956  0.242275  0.000259  4.03901  0.001
C  C49  1  0.14750502  0.07348718  0.31591303  1  -0.012395  -0.002236  -0.094462  -0.20763  -0.002903  3.944827  -0.001
C  C50  1  0.85250795  0.92650856  0.68409798  1  -0.012525  -0.002234  -0.094453  -0.207459  -0.0029  3.944655  -0.001
C  C51  1  0.97180342  0.08751022  0.19510349  1  1.52973  0.003044  0.221916  0.614983  0.001258  4.098404  0.003
C  C52  1  0.02821713  0.91247354  0.80489168  1  1.527603  0.003045  0.221883  0.615093  0.00126  4.098375  0.003
C  C53  1  0.90584315  0.19929155  0.52992484  1  1.585649  -0.000441  0.201477  0.576271  -0.001028  4.219717  0.001
C  C54  1  0.09415287  0.80073026  0.47005409  1  1.58573  -0.000443  0.201491  0.576284  -0.001028  4.219808  0.001
C  C55  1  0.38926802  0.98263856  0.40096555  1  0.747858  0.000705  0.048097  0.078299  0.000399  3.876888  0.001
C  C56  1  0.61073639  0.01736076  0.59904760  1  0.747909  0.000705  0.047862  0.077816  0.0004  3.877583  0.001
C  C57  1  0.48956842  0.15690256  0.12081338  1  0.963536  -0.001328  0.149851  0.154449  -0.002175  3.971851  -0.001
C  C58  1  0.51042593  0.84308745  0.87919703  1  0.963693  -0.001327  0.149769  0.154217  -0.002175  3.97165  -0.001
C  C59  1  0.58065991  0.04191098  0.27512993  1  0.974063  -0.003423  0.165174  0.105738  -0.004829  3.90401  -0.001
C  C60  1  0.41934152  0.95809104  0.72488153  1  0.973761  -0.003415  0.165213  0.10596  -0.004821  3.904031  -0.001
C  C61  1  0.51755178  0.18827125  0.76877853  1  -0.000893  0.009011  -0.022587  -0.029197  0.004455  4.019908  0.007
C  C62  1  0.48244364  0.81173696  0.23121754  1  -0.001372  0.009013  -0.022579  -0.029223  0.004455  4.020327  0.007
C  C63  1  0.40449263  0.15967663  0.82629883  1  -0.049736  0.002027  -0.087978  -0.139371  0.000428  3.956936  0.001
C  C64  1  0.59550638  0.84032250  0.17370068  1  -0.049561  0.002025  -0.088025  -0.13948  0.000426  3.9572  0.001
C  C65  1  0.29730883  0.19660691  0.76374249  1  -0.00335  0.007248  -0.018817  -0.012772  0.003624  3.997667  0.006
C  C66  1  0.70269849  0.80339135  0.23625226  1  -0.003245  0.007252  -0.018817  -0.012713  0.003626  3.997507  0.006
C  C67  1  0.30148332  0.26360945  0.64415419  1  -0.066555  -0.000135  -0.099592  -0.231551  -0.000516  3.936786  0.0
C  C68  1  0.69851156  0.73639505  0.35583717  1  -0.065422  -0.000139  -0.099689  -0.231638  -0.000519  3.937122  0.0
C  C69  1  0.41530969  0.28996591  0.58812013  1  0.366446  0.000824  0.078393  0.254103  0.000387  4.057291  0.001
C  C70  1  0.58469282  0.71003501  0.41187147  1  0.365333  0.000825  0.078327  0.253981  0.000387  4.057239  0.001
C  C71  1  0.52341488  0.25337033  0.64959198  1  -0.042204  4e-06  -0.092561  -0.218958  -0.000521  3.942315  0.0
C  C72  1  0.47657354  0.74663498  0.35039707  1  -0.042015  -1e-06  -0.092537  -0.218959  -0.000526  3.942058  0.0
C  C73  1  0.63476620  0.14814842  0.83243920  1  1.559039  -0.006263  0.215073  0.582228  -0.008582  4.177898  -0.003
C  C74  1  0.36523227  0.85186623  0.16755568  1  1.559337  -0.00627  0.215053  0.582259  -0.008584  4.177835  -0.003
C  C75  1  0.17556717  0.16356101  0.82228141  1  1.564494  0.002568  0.220758  0.598426  0.000588  4.130819  0.002
C  C76  1  0.82444816  0.83642995  0.17770726  1  1.564558  0.002566  0.220799  0.598434  0.000586  4.130696  0.002
C  C77  1  0.34180012  0.35146607  0.39743978  1  0.752562  0.000968  0.052544  0.077736  0.000502  3.90833  0.001
C  C78  1  0.65819476  0.64853842  0.60255081  1  0.752724  0.000968  0.052709  0.077901  0.000502  3.907972  0.001
C  C79  1  0.07802371  0.54945000  0.37068464  1  0.982928  -0.002003  0.159456  0.166975  -0.002837  3.931967  -0.002
C  C80  1  0.92196544  0.45055647  0.62932725  1  0.982429  -0.002003  0.159272  0.166831  -0.002835  3.932003  -0.002
C  C81  1  0.25811072  0.57126500  0.29579385  1  0.958229  -0.003403  0.166157  0.097469  -0.004655  3.904158  -0.002
C  C82  1  0.74188119  0.42872216  0.70420928  1  0.958425  -0.003402  0.166327  0.097584  -0.004654  3.904134  -0.001
N  N83  1  0.45881796  0.05221702  0.29681233  1  -0.816212  0.000651  -0.142185  0.083937  -0.000334  3.766025  0.0
N  N84  1  0.54118579  0.94777958  0.70320428  1  -0.815725  0.000654  -0.142124  0.08383  -0.000332  3.766304  0.0
N  N85  1  0.39967574  0.12573907  0.19859139  1  -0.675787  0.003828  -0.218924  -0.235972  0.001802  3.11841  0.003
N  N86  1  0.60033502  0.87425115  0.80142040  1  -0.676108  0.003828  -0.218823  -0.235776  0.001802  3.117833  0.003
N  N87  1  0.60298515  0.10619339  0.16353740  1  -1.211584  0.046871  -0.340922  -0.333646  0.025758  3.521689  0.035
N  N88  1  0.39701616  0.89380034  0.83646960  1  -1.211435  0.046873  -0.340978  -0.333703  0.025761  3.521902  0.035
N  N89  1  0.24905332  0.45368898  0.36962539  1  -0.818782  0.001621  -0.139724  0.092831  0.000351  3.77453  0.001
N  N90  1  0.75093255  0.54630446  0.63037011  1  -0.819014  0.001623  -0.139728  0.09263  0.000352  3.774551  0.001
N  N91  1  0.13431191  0.43860099  0.41854552  1  -0.678811  0.004255  -0.209323  -0.233063  0.002145  3.105505  0.003
N  N92  1  0.86568042  0.56140088  0.58146104  1  -0.678688  0.004252  -0.209299  -0.233063  0.002144  3.105774  0.003
N  N93  1  0.15097362  0.63424503  0.29447339  1  -1.190678  0.059112  -0.336053  -0.333297  0.030967  3.548998  0.052
N  N94  1  0.84901889  0.36574498  0.70553945  1  -1.190267  0.059106  -0.336033  -0.333267  0.030963  3.548857  0.052
O  O95  1  0.03713166  0.02505341  0.14848075  1  -1.17442  0.078726  -0.306808  -0.589369  0.041247  2.440883  0.068
O  O96  1  0.96289195  0.97494675  0.85150147  1  -1.17418  0.078713  -0.3068  -0.589597  0.04124  2.44113  0.068
O  O97  1  0.86381053  0.13628475  0.16450935  1  -1.183469  0.070325  -0.321334  -0.590512  0.036359  2.386303  0.061
O  O98  1  0.13620564  0.86368711  0.83549315  1  -1.181938  0.070316  -0.321296  -0.590336  0.036351  2.385853  0.061
O  O99  1  0.79620512  0.23333733  0.50568311  1  -1.168963  0.010502  -0.336191  -0.551397  0.004792  2.089786  0.009
O  O100  1  0.20379094  0.76668438  0.49428652  1  -1.168968  0.010481  -0.336218  -0.551398  0.004782  2.089743  0.008
O  O101  1  0.95843128  0.18701383  0.62213903  1  -1.14987  0.104593  -0.335208  -0.589011  0.054635  2.430209  0.086
O  O102  1  0.04154872  0.81300331  0.37785119  1  -1.150188  0.104552  -0.335184  -0.589088  0.054615  2.43032  0.086
O  O103  1  0.31457839  0.05909078  0.44177858  1  -1.076504  0.000341  -0.191279  -0.244692  0.000154  2.544886  0.0
O  O104  1  0.68540828  0.94089291  0.55825035  1  -1.076841  0.000341  -0.191247  -0.244632  0.000155  2.544931  0.0
O  O105  1  0.73093158  0.13857506  0.77507806  1  -1.15459  0.085021  -0.302975  -0.543576  0.043835  2.441045  0.071
O  O106  1  0.26905722  0.86143579  0.22491420  1  -1.154878  0.085038  -0.302952  -0.543501  0.043843  2.440989  0.071
O  O107  1  0.62996998  0.12966252  0.93771083  1  -1.163561  0.070737  -0.310534  -0.560366  0.036213  2.415796  0.062
O  O108  1  0.37003312  0.87036130  0.06227858  1  -1.163302  0.070766  -0.310575  -0.560528  0.036228  2.415789  0.062
O  O109  1  0.17215163  0.06507971  0.91563289  1  -1.162755  0.095536  -0.306447  -0.587405  0.049604  2.473714  0.087
O  O110  1  0.82787812  0.93490324  0.08436211  1  -1.162892  0.09552  -0.306375  -0.587291  0.049594  2.473979  0.087
O  O111  1  0.08246241  0.23402664  0.77716888  1  -1.164353  0.05974  -0.300597  -0.545721  0.029941  2.320748  0.051
O  O112  1  0.91754657  0.76596345  0.22283138  1  -1.164601  0.059739  -0.30065  -0.545711  0.029941  2.320634  0.051
O  O113  1  0.43228653  0.35155127  0.47066241  1  -1.084118  0.000481  -0.184138  -0.213005  0.00021  2.505094  0.0
O  O114  1  0.56770022  0.64845223  0.52933057  1  -1.084142  0.000482  -0.184139  -0.212939  0.00021  2.504805  0.0
O  O115  1  0.10336272  0.83744784  0.06527299  1  -1.174722  0.208373  -0.566922  -0.897273  0.115677  2.491662  0.18
O  O116  1  0.89664784  0.16254499  0.93472376  1  -1.174747  0.208357  -0.566911  -0.897208  0.11567  2.491697  0.18
O  O117  1  0.72134847  0.32673673  0.00462801  1  -1.174925  0.044361  -0.559786  -0.729854  0.022506  2.018351  0.035
O  O118  1  0.27865489  0.67328434  0.99536093  1  -1.175385  0.044371  -0.559816  -0.730078  0.022514  2.018444  0.035
