# generated using pymatgen
data_BaH16C20(IN2)2
_symmetry_space_group_name_H-M   'P 1'
_cell_length_a   9.13492285
_cell_length_b   10.90798665
_cell_length_c   11.18461159
_cell_angle_alpha   88.94895555
_cell_angle_beta   78.24701383
_cell_angle_gamma   81.76367567
_symmetry_Int_Tables_number   1
_chemical_formula_structural   BaH16C20(IN2)2
_chemical_formula_sum   'Ba2 H32 C40 I4 N8'
_cell_volume   1079.78833744
_cell_formula_units_Z   2
loop_
 _symmetry_equiv_pos_site_id
 _symmetry_equiv_pos_as_xyz
  1  'x, y, z'
loop_
 _atom_site_type_symbol
 _atom_site_label
 _atom_site_symmetry_multiplicity
 _atom_site_fract_x
 _atom_site_fract_y
 _atom_site_fract_z
 _atom_site_occupancy
 _atom_site_hle17_bader_spin_density
 _atom_site_hle17_ddec_charge
 _atom_site_hle17_ddec_spin_density
 _atom_site_hle17_ddec_sum_bond_order
 _atom_site_hle17_magmom
 _atom_site_hse06_10hf_bader_spin_density
 _atom_site_hse06_10hf_ddec_charge
 _atom_site_hse06_10hf_ddec_spin_density
 _atom_site_hse06_10hf_ddec_sum_bond_order
 _atom_site_hse06_10hf_magmom
 _atom_site_hse06_bader_spin_density
 _atom_site_hse06_ddec_charge
 _atom_site_hse06_ddec_spin_density
 _atom_site_hse06_ddec_sum_bond_order
 _atom_site_hse06_magmom
 _atom_site_pbe_bader_spin_density
 _atom_site_pbe_cm5_charge
 _atom_site_pbe_ddec_charge
 _atom_site_pbe_ddec_spin_density
 _atom_site_pbe_ddec_sum_bond_order
 _atom_site_pbe_magmom
Ba  Ba0  1  0.74113647  0.88916991  0.61157847  1  0  1.337895  0  1.317183  0  0  1.164864  0  1.714294  0  0  1.205623  0  1.680861  0  0  0.59809  1.135501  0  1.738129  0
Ba  Ba1  1  0.25886284  0.11082932  0.38841930  1  0  1.337901  0  1.317177  0  0  1.164823  0  1.714355  0  0  1.205584  0  1.680918  0  0  0.598089  1.135462  0  1.738207  0
H  H2  1  0.01269078  0.36736783  0.68536892  1  0  0.096886  0  0.99049  0  0  0.103207  0  1.061726  0  0  0.107014  0  1.059392  0  0  0.09494  0.100858  0  1.062793  0
H  H3  1  0.98730981  0.63263050  0.31462956  1  0  0.096871  0  0.990454  0  0  0.103176  0  1.061708  0  0  0.106979  0  1.059385  0  0  0.094945  0.100827  0  1.062772  0
H  H4  1  0.28289107  0.38787500  0.60464876  1  0  0.090901  0  0.979319  0  0  0.098441  0  1.04814  0  0  0.101882  0  1.045055  0  0  0.092369  0.095568  0  1.050963  0
H  H5  1  0.71710954  0.61212336  0.39535240  1  0  0.090928  0  0.979297  0  0  0.098465  0  1.048125  0  0  0.101906  0  1.045039  0  0  0.092378  0.09559  0  1.050948  0
H  H6  1  0.34719907  0.59619513  0.52255367  1  0  0.104063  0  0.962612  0  0  0.11302  0  1.023981  0  0  0.116407  0  1.022981  0  0  0.094834  0.110097  0  1.025546  0
H  H7  1  0.65280155  0.40380327  0.47745105  1  0  0.10402  0  0.962709  0  0  0.113027  0  1.02402  0  0  0.116409  0  1.023027  0  0  0.094827  0.110102  0  1.025588  0
H  H8  1  0.13955388  0.77000522  0.52749183  1  0  0.062662  0  0.988982  0  0  0.063184  0  1.069026  0  0  0.066557  0  1.06565  0  0  0.100685  0.060979  0  1.070942  0
H  H9  1  0.86044623  0.22999593  0.47251022  1  0  0.062671  0  0.989007  0  0  0.063201  0  1.069031  0  0  0.066574  0  1.065655  0  0  0.100693  0.060997  0  1.070941  0
H  H10  1  0.81473805  0.38991422  0.81904049  1  0  0.102017  0  0.95983  0  0  0.113166  0  1.019703  0  0  0.116326  0  1.018489  0  0  0.103281  0.110766  0  1.020826  0
H  H11  1  0.18526064  0.61008223  0.18095747  1  0  0.101978  0  0.959848  0  0  0.113115  0  1.019741  0  0  0.116276  0  1.018527  0  0  0.103246  0.110716  0  1.020864  0
H  H12  1  0.54245331  0.38334985  0.90229361  1  0  0.083219  0  0.971157  0  0  0.092912  0  1.036044  0  0  0.094715  0  1.035832  0  0  0.100769  0.091703  0  1.035957  0
H  H13  1  0.45754506  0.61664848  0.09770703  1  0  0.083209  0  0.971187  0  0  0.092881  0  1.0361  0  0  0.094685  0  1.035885  0  0  0.100778  0.091674  0  1.036013  0
H  H14  1  0.34923498  0.53982935  0.82967109  1  0  0.099792  0  0.942202  0  0  0.112719  0  0.995612  0  0  0.115668  0  0.995609  0  0  0.104948  0.110556  0  0.995877  0
H  H15  1  0.65076289  0.46017177  0.17033045  1  0  0.099789  0  0.942197  0  0  0.112715  0  0.995605  0  0  0.115682  0  0.995581  0  0  0.104935  0.110535  0  0.99588  0
H  H16  1  0.44213100  0.70269273  0.68425934  1  0  0.064058  0  0.96346  0  0  0.070279  0  1.033711  0  0  0.072518  0  1.032016  0  0  0.108477  0.068737  0  1.03478  0
H  H17  1  0.55786928  0.29730750  0.31574360  1  0  0.0641  0  0.963451  0  0  0.070319  0  1.033705  0  0  0.072558  0  1.032009  0  0  0.10849  0.068795  0  1.034762  0
H  H18  1  0.39998872  0.83302868  0.12675732  1  0  0.1032  0  0.967698  0  0  0.110892  0  1.035498  0  0  0.11459  0  1.033295  0  0  0.105491  0.108493  0  1.03669  0
H  H19  1  0.60001490  0.16697154  0.87324237  1  0  0.103238  0  0.967724  0  0  0.110928  0  1.035515  0  0  0.114624  0  1.033311  0  0  0.1055  0.108529  0  1.036703  0
H  H20  1  0.14549048  0.90074633  0.08882927  1  0  0.089383  0  0.992665  0  0  0.097618  0  1.060204  0  0  0.101002  0  1.05731  0  0  0.087134  0.094834  0  1.062812  0
H  H21  1  0.85451125  0.09925205  0.91117259  1  0  0.089377  0  0.992621  0  0  0.09763  0  1.06015  0  0  0.101011  0  1.057269  0  0  0.087136  0.094845  0  1.062763  0
H  H22  1  0.11740623  0.97052492  0.87443798  1  0  0.099032  0  0.985212  0  0  0.106979  0  1.050262  0  0  0.110116  0  1.049648  0  0  0.091471  0.104494  0  1.051165  0
H  H23  1  0.88259181  0.02947527  0.12556356  1  0  0.099007  0  0.98526  0  0  0.106976  0  1.050283  0  0  0.110112  0  1.04967  0  0  0.091495  0.104494  0  1.051172  0
H  H24  1  0.34882482  0.96873054  0.71454912  1  0  0.059639  0  0.98555  0  0  0.060406  0  1.065445  0  0  0.063741  0  1.062066  0  0  0.103073  0.058119  0  1.067512  0
H  H25  1  0.65117125  0.03127427  0.28545172  1  0  0.059627  0  0.985529  0  0  0.0604  0  1.065423  0  0  0.063733  0  1.062045  0  0  0.103073  0.058111  0  1.06749  0
H  H26  1  0.60410185  0.76643887  0.14831488  1  0  0.100237  0  0.990645  0  0  0.107158  0  1.059411  0  0  0.110809  0  1.05739  0  0  0.094236  0.10448  0  1.060877  0
H  H27  1  0.39590013  0.23356409  0.85168233  1  0  0.100208  0  0.990662  0  0  0.107139  0  1.059435  0  0  0.110791  0  1.057414  0  0  0.094204  0.104461  0  1.060898  0
H  H28  1  0.86377109  0.69078590  0.16852790  1  0  0.088968  0  0.967688  0  0  0.098899  0  1.031554  0  0  0.101334  0  1.0298  0  0  0.100603  0.097016  0  1.032948  0
H  H29  1  0.13623011  0.30921519  0.83146860  1  0  0.08895  0  0.967677  0  0  0.098855  0  1.031569  0  0  0.101289  0  1.029817  0  0  0.100604  0.096973  0  1.032962  0
H  H30  1  0.07758340  0.70184463  0.98649729  1  0  0.093912  0  0.957627  0  0  0.106659  0  1.013183  0  0  0.109808  0  1.012443  0  0  0.102024  0.104366  0  1.01394  0
H  H31  1  0.92241847  0.29815276  0.01350010  1  0  0.093871  0  0.957634  0  0  0.106619  0  1.013196  0  0  0.109768  0  1.012455  0  0  0.102028  0.104327  0  1.013952  0
H  H32  1  0.01407366  0.79403176  0.79448147  1  0  0.066426  0  0.95768  0  0  0.0733  0  1.025986  0  0  0.075513  0  1.024477  0  0  0.112909  0.071772  0  1.026984  0
H  H33  1  0.98592788  0.20596750  0.20551681  1  0  0.066441  0  0.957659  0  0  0.073315  0  1.02597  0  0  0.075528  0  1.024461  0  0  0.112922  0.071787  0  1.026967  0
C  C34  1  0.93383442  0.56122708  0.65793376  1  0  0.176153  0  3.762099  0  0  0.17575  0  4.001091  0  0  0.181947  0  4.021508  0  0  0.120588  0.171623  0  3.987373  0
C  C35  1  0.06616602  0.43877221  0.34206740  1  0  0.176106  0  3.762027  0  0  0.175722  0  4.000986  0  0  0.181916  0  4.021404  0  0  0.120603  0.171576  0  3.987292  0
C  C36  1  0.04454580  0.45743799  0.65569165  1  0  -0.155321  0  3.711403  0  0  -0.173079  0  3.957651  0  0  -0.180222  0  3.978901  0  0  -0.085386  -0.168153  0  3.942616  0
C  C37  1  0.95545498  0.54255944  0.34430951  1  0  -0.155287  0  3.711352  0  0  -0.173023  0  3.957606  0  0  -0.180166  0  3.978857  0  0  -0.085413  -0.168089  0  3.942562  0
C  C38  1  0.19538172  0.46820757  0.60829355  1  0  -0.003308  0  3.726399  0  0  -0.020395  0  3.974839  0  0  -0.017594  0  3.993364  0  0  -0.069449  -0.021977  0  3.962254  0
C  C39  1  0.80461760  0.53179171  0.39170780  1  0  -0.003305  0  3.726312  0  0  -0.020403  0  3.974764  0  0  -0.0176  0  3.993285  0  0  -0.069432  -0.021982  0  3.962172  0
C  C40  1  0.23173163  0.58209549  0.56261587  1  0  -0.114796  0  3.721715  0  0  -0.126504  0  3.966783  0  0  -0.133319  0  3.989007  0  0  -0.087024  -0.121724  0  3.951772  0
C  C41  1  0.76826881  0.41790379  0.43738529  1  0  -0.114872  0  3.72177  0  0  -0.126616  0  3.966835  0  0  -0.133427  0  3.98906  0  0  -0.087071  -0.121832  0  3.951819  0
C  C42  1  0.11504840  0.68027402  0.56522966  1  0  0.121303  0  3.736776  0  0  0.096147  0  3.990975  0  0  0.101885  0  4.008716  0  0  0.044639  0.09258  0  3.978312  0
C  C43  1  0.88495204  0.31972528  0.43477238  1  0  0.121405  0  3.736751  0  0  0.096237  0  3.990966  0  0  0.101975  0  4.008706  0  0  0.04468  0.092669  0  3.978297  0
C  C44  1  0.77243482  0.55332980  0.71035832  1  0  0.185995  0  3.750133  0  0  0.18526  0  3.989866  0  0  0.191678  0  4.010237  0  0  0.126549  0.18087  0  3.976073  0
C  C45  1  0.22756674  0.44666949  0.28964264  1  0  0.185979  0  3.750213  0  0  0.185226  0  3.989957  0  0  0.191646  0  4.010326  0  0  0.126563  0.180854  0  3.976144  0
C  C46  1  0.72979420  0.45904764  0.79163829  1  0  -0.144124  0  3.695336  0  0  -0.161387  0  3.936574  0  0  -0.168414  0  3.957456  0  0  -0.081486  -0.156677  0  3.922479  0
C  C47  1  0.27020177  0.54095162  0.20836363  1  0  -0.144041  0  3.695159  0  0  -0.161296  0  3.936413  0  0  -0.168323  0  3.957291  0  0  -0.081413  -0.156588  0  3.922316  0
C  C48  1  0.57710342  0.45448437  0.83733883  1  0  -0.006545  0  3.755674  0  0  -0.023782  0  4.004621  0  0  -0.020454  0  4.023872  0  0  -0.072007  -0.025689  0  3.991274  0
C  C49  1  0.42289907  0.54551582  0.16265926  1  0  -0.006478  0  3.755512  0  0  -0.02371  0  4.004472  0  0  -0.020381  0  4.023729  0  0  -0.072015  -0.02562  0  3.991124  0
C  C50  1  0.46996251  0.54176722  0.79863810  1  0  -0.123173  0  3.735627  0  0  -0.134139  0  3.98204  0  0  -0.141161  0  4.003604  0  0  -0.086618  -0.129795  0  3.967677  0
C  C51  1  0.53003491  0.45823019  0.20136363  1  0  -0.123227  0  3.735691  0  0  -0.134184  0  3.982086  0  0  -0.141223  0  4.003647  0  0  -0.086603  -0.129813  0  3.967718  0
C  C52  1  0.52134087  0.63257530  0.71800557  1  0  0.136148  0  3.736637  0  0  0.109362  0  3.990602  0  0  0.115833  0  4.008953  0  0  0.049988  0.105228  0  3.978089  0
C  C53  1  0.47866069  0.36742398  0.28199450  1  0  0.1361  0  3.736661  0  0  0.109316  0  3.990611  0  0  0.115785  0  4.008971  0  0  0.049964  0.105159  0  3.9781  0
C  C54  1  0.51256486  0.85830697  0.93828360  1  0  0.175867  0  3.759733  0  0  0.175605  0  4.000382  0  0  0.182127  0  4.02015  0  0  0.120023  0.171255  0  3.987129  0
C  C55  1  0.48743396  0.14169507  0.06171685  1  0  0.175815  0  3.759853  0  0  0.175588  0  4.000426  0  0  0.182114  0  4.020197  0  0  0.119997  0.171242  0  3.987165  0
C  C56  1  0.38691224  0.85940211  0.03464905  1  0  -0.150627  0  3.701823  0  0  -0.169795  0  3.951087  0  0  -0.176555  0  3.971449  0  0  -0.082888  -0.165286  0  3.936942  0
C  C57  1  0.61308898  0.14059902  0.96535013  1  0  -0.150687  0  3.701871  0  0  -0.169881  0  3.951143  0  0  -0.176636  0  3.971501  0  0  -0.082928  -0.165371  0  3.936992  0
C  C58  1  0.24274940  0.89870483  0.01330465  1  0  -0.010197  0  3.740113  0  0  -0.026725  0  3.985745  0  0  -0.024079  0  4.00483  0  0  -0.074653  -0.028176  0  3.972953  0
C  C59  1  0.75725070  0.10129630  0.98669651  1  0  -0.010163  0  3.740068  0  0  -0.026703  0  3.985697  0  0  -0.02406  0  4.004779  0  0  -0.074637  -0.028155  0  3.972901  0
C  C60  1  0.22678376  0.93726478  0.89677813  1  0  -0.119901  0  3.730613  0  0  -0.130506  0  3.97296  0  0  -0.137862  0  3.996238  0  0  -0.089697  -0.125534  0  3.957392  0
C  C61  1  0.77321428  0.06273541  0.10322251  1  0  -0.119938  0  3.730566  0  0  -0.130555  0  3.97292  0  0  -0.137914  0  3.996198  0  0  -0.089758  -0.125577  0  3.957343  0
C  C62  1  0.35685834  0.93628911  0.80642883  1  0  0.128978  0  3.740168  0  0  0.104815  0  3.992293  0  0  0.11067  0  4.010291  0  0  0.04849  0.101251  0  3.979562  0
C  C63  1  0.64313954  0.06371202  0.19357360  1  0  0.129102  0  3.740019  0  0  0.104924  0  3.992157  0  0  0.110783  0  4.010156  0  0  0.048557  0.101359  0  3.979426  0
C  C64  1  0.66823944  0.81410093  0.95597211  1  0  0.179938  0  3.743624  0  0  0.179052  0  3.983075  0  0  0.185451  0  4.00303  0  0  0.123175  0.174638  0  3.969637  0
C  C65  1  0.33176048  0.18590109  0.04402547  1  0  0.179839  0  3.743851  0  0  0.17901  0  3.983242  0  0  0.185389  0  4.003231  0  0  0.123149  0.174593  0  3.969806  0
C  C66  1  0.69513450  0.76749562  0.06858957  1  0  -0.147779  0  3.705248  0  0  -0.163949  0  3.94673  0  0  -0.171307  0  3.968401  0  0  -0.084448  -0.15889  0  3.931914  0
C  C67  1  0.30486525  0.23250732  0.93140802  1  0  -0.147736  0  3.705323  0  0  -0.163964  0  3.946832  0  0  -0.171319  0  3.968511  0  0  -0.084397  -0.158906  0  3.932014  0
C  C68  1  0.84232068  0.72554870  0.08097033  1  0  -0.002586  0  3.744857  0  0  -0.01905  0  3.989584  0  0  -0.015839  0  4.008521  0  0  -0.071548  -0.020857  0  3.97645  0
C  C69  1  0.15768069  0.27445148  0.91902706  1  0  -0.002496  0  3.744919  0  0  -0.018924  0  3.989651  0  0  -0.015713  0  4.008588  0  0  -0.0715  -0.020732  0  3.976521  0
C  C70  1  0.96022629  0.73230671  0.98119761  1  0  -0.127959  0  3.748653  0  0  -0.13781  0  3.992852  0  0  -0.144527  0  4.013918  0  0  -0.088305  -0.133493  0  3.978563  0
C  C71  1  0.03977653  0.26769161  0.01879959  1  0  -0.12792  0  3.748831  0  0  -0.137764  0  3.993011  0  0  -0.14448  0  4.014077  0  0  -0.088343  -0.133454  0  3.978725  0
C  C72  1  0.92488534  0.78302170  0.87357131  1  0  0.130434  0  3.74223  0  0  0.103105  0  3.998427  0  0  0.109442  0  4.016463  0  0  0.048082  0.099027  0  3.986103  0
C  C73  1  0.07511586  0.21697939  0.12642519  1  0  0.130393  0  3.742255  0  0  0.103054  0  3.998466  0  0  0.109392  0  4.016501  0  0  0.048076  0.098976  0  3.986138  0
I  I74  1  0.48584374  0.82337439  0.42015163  1  0  -0.677575  0  0.794077  0  0  -0.615011  0  1.071361  0  0  -0.631742  0  1.051382  0  0  -0.240539  -0.602753  0  1.085445  0
I  I75  1  0.51415557  0.17662486  0.57984704  1  0  -0.677567  0  0.794074  0  0  -0.615017  0  1.071374  0  0  -0.631747  0  1.051391  0  0  -0.240536  -0.602757  0  1.085458  0
I  I76  1  0.00198596  0.08734070  0.66799428  1  0  -0.671352  0  0.820433  0  0  -0.6077  0  1.103925  0  0  -0.625151  0  1.084359  0  0  -0.233486  -0.595086  0  1.117561  0
I  I77  1  0.99801290  0.91265482  0.33200369  1  0  -0.671344  0  0.820434  0  0  -0.607694  0  1.103925  0  0  -0.625145  0  1.084357  0  0  -0.233491  -0.595085  0  1.117554  0
N  N78  1  0.96924038  0.67110403  0.61130487  1  0  -0.387655  0  3.17078  0  0  -0.332852  0  3.426959  0  0  -0.3484  0  3.445966  0  0  -0.359289  -0.322431  0  3.414287  0
N  N79  1  0.03076005  0.32889525  0.38869539  1  0  -0.387664  0  3.170725  0  0  -0.332852  0  3.426883  0  0  -0.348399  0  3.445893  0  0  -0.359306  -0.322429  0  3.414217  0
N  N80  1  0.66815798  0.64047779  0.67653401  1  0  -0.373137  0  3.147412  0  0  -0.323194  0  3.410988  0  0  -0.338455  0  3.428853  0  0  -0.355006  -0.312455  0  3.398245  0
N  N81  1  0.33184006  0.35952242  0.32346842  1  0  -0.373156  0  3.147455  0  0  -0.323198  0  3.411019  0  0  -0.338464  0  3.428892  0  0  -0.355052  -0.312464  0  3.398285  0
N  N82  1  0.49650585  0.89794825  0.82559907  1  0  -0.391031  0  3.168962  0  0  -0.336801  0  3.425461  0  0  -0.352535  0  3.444647  0  0  -0.363244  -0.326087  0  3.412105  0
N  N83  1  0.50349185  0.10205378  0.17440068  1  0  -0.391056  0  3.168956  0  0  -0.336839  0  3.42546  0  0  -0.352559  0  3.444606  0  0  -0.363267  -0.326135  0  3.412127  0
N  N84  1  0.78329643  0.82175739  0.85964903  1  0  -0.370049  0  3.146678  0  0  -0.320104  0  3.410478  0  0  -0.335027  0  3.428584  0  0  -0.351795  -0.309736  0  3.398032  0
N  N85  1  0.21670349  0.17824463  0.14034856  1  0  -0.369977  0  3.146671  0  0  -0.320051  0  3.410471  0  0  -0.334968  0  3.428582  0  0  -0.35177  -0.309678  0  3.398021  0
