# generated using pymatgen
data_Al2H8C11O10
_symmetry_space_group_name_H-M   'P 1'
_cell_length_a   6.65522890
_cell_length_b   11.28175044
_cell_length_c   16.18798264
_cell_angle_alpha   78.88539485
_cell_angle_beta   90.00129024
_cell_angle_gamma   89.99908257
_symmetry_Int_Tables_number   1
_chemical_formula_structural   Al2H8C11O10
_chemical_formula_sum   'Al4 H16 C22 O20'
_cell_volume   1192.63907243
_cell_formula_units_Z   2
loop_
 _symmetry_equiv_pos_site_id
 _symmetry_equiv_pos_as_xyz
  1  'x, y, z'
loop_
 _atom_site_type_symbol
 _atom_site_label
 _atom_site_symmetry_multiplicity
 _atom_site_fract_x
 _atom_site_fract_y
 _atom_site_fract_z
 _atom_site_occupancy
 _atom_site_pbe_bader_charge
 _atom_site_pbe_bader_spin_density
 _atom_site_pbe_cm5_charge
 _atom_site_pbe_ddec_charge
 _atom_site_pbe_ddec_spin_density
 _atom_site_pbe_ddec_sum_bond_order
 _atom_site_pbe_magmom
Al  Al0  1  0.99506254  0.49593229  0.50209782  1  2.500018  0  0.402677  1.638232  0  2.57953  0
Al  Al1  1  0.00497587  0.99592936  0.00210996  1  2.500044  0  0.402641  1.638438  0  2.579387  0
Al  Al2  1  0.49493839  0.49955550  0.50059833  1  2.501266  0  0.400179  1.640893  0  2.587476  0
Al  Al3  1  0.50508629  0.99955454  0.00059560  1  2.50102  0  0.400149  1.640952  0  2.587631  0
H  H4  1  0.02068467  0.66012468  0.70407437  1  0.10005  0  0.110119  0.114764  0  1.002853  0
H  H5  1  0.97937022  0.16014954  0.20406431  1  0.099806  0  0.110061  0.113931  0  1.00354  0
H  H6  1  0.04654258  0.79727908  0.80603686  1  0.092466  0  0.110858  0.104416  0  0.979493  0
H  H7  1  0.95353945  0.29730759  0.30602244  1  0.093069  0  0.110839  0.104519  0  0.979271  0
H  H8  1  0.58829193  0.76428724  0.82329680  1  0.107535  0  0.11066  0.130083  0  0.998176  0
H  H9  1  0.41179339  0.26431449  0.32328262  1  0.106867  0  0.110621  0.130082  0  0.998213  0
H  H10  1  0.49884731  0.82084950  0.59181939  1  0.069699  0  0.100544  0.141855  0  0.98448  0
H  H11  1  0.42093328  0.73360530  0.68799009  1  0.048775  0  0.100238  0.137923  0  0.983764  0
H  H12  1  0.56698598  0.86580709  0.68853441  1  0.044381  0  0.095166  0.131024  0  1.008676  0
H  H13  1  0.50121413  0.32085052  0.09180762  1  0.070232  0  0.100391  0.141603  0  0.984595  0
H  H14  1  0.43307801  0.36581790  0.18851853  1  0.044523  0  0.095169  0.130971  0  1.008629  0
H  H15  1  0.57910241  0.23359840  0.18797445  1  0.047743  0  0.100172  0.137787  0  0.98392  0
H  H16  1  0.23932928  0.64665340  0.44629811  1  0.601726  0  0.35696  0.437967  0  0.843244  0
H  H17  1  0.76069277  0.14665665  0.94629932  1  0.601385  0  0.356947  0.437975  0  0.843255  0
H  H18  1  0.74096602  0.34631510  0.49157215  1  0.636166  0  0.355945  0.434747  0  0.846064  0
H  H19  1  0.25905295  0.84631551  0.99157712  1  0.636828  0  0.355886  0.434822  0  0.845885  0
C  C20  1  0.24128224  0.35839227  0.40495323  1  1.540574  0  0.259274  0.6839  0  4.112395  0
C  C21  1  0.75876380  0.85838138  0.90496615  1  1.54263  0  0.259051  0.683473  0  4.112998  0
C  C22  1  0.25318311  0.36112033  0.63431053  1  1.6963  0  0.283193  0.706435  0  4.160449  0
C  C23  1  0.74688011  0.86112357  0.13431328  1  1.695915  0  0.283243  0.706398  0  4.160115  0
C  C24  1  0.75213320  0.63800411  0.59484240  1  1.570016  0  0.269184  0.626395  0  4.092074  0
C  C25  1  0.24791940  0.13801451  0.09482400  1  1.570463  0  0.269263  0.626445  0  4.092529  0
C  C26  1  0.74071899  0.64106130  0.36828171  1  1.668454  0  0.279104  0.71106  0  4.158262  0
C  C27  1  0.25927551  0.14107954  0.86827047  1  1.667782  0  0.278878  0.710818  0  4.158129  0
C  C28  1  0.74745160  0.71939121  0.28622400  1  -0.238031  0  -0.016339  -0.121985  0  3.919661  0
C  C29  1  0.25254201  0.21941341  0.78622630  1  -0.237821  0  -0.016142  -0.121692  0  3.920069  0
C  C30  1  0.74872570  0.78355518  0.21679709  1  0.063379  0  -0.010112  -0.110537  0  3.911418  0
C  C31  1  0.25129328  0.28355939  0.71679664  1  0.06311  0  -0.01006  -0.110611  0  3.911533  0
C  C32  1  0.88814087  0.71192796  0.71561544  1  -0.00691  0  -0.077077  -0.121427  0  3.955565  0
C  C33  1  0.11189135  0.21195927  0.21559441  1  -0.006475  0  -0.077111  -0.120813  0  3.955141  0
C  C34  1  0.73503282  0.71555322  0.65961520  1  -0.043787  0  0.001793  0.034899  0  3.888565  0
C  C35  1  0.26502070  0.21556849  0.15960642  1  -0.043457  0  0.001798  0.035049  0  3.88805  0
C  C36  1  0.89743227  0.77113696  0.78719194  1  -0.088892  0  -0.062908  0.006099  0  3.986751  0
C  C37  1  0.10264394  0.27115367  0.28718419  1  -0.08992  0  -0.062852  0.005824  0  3.986271  0
C  C38  1  0.73998830  0.79325700  0.83480288  1  -0.015427  0  -0.090341  -0.251302  0  3.889131  0
C  C39  1  0.26007870  0.29326266  0.33480110  1  -0.013606  0  -0.090409  -0.251275  0  3.88938  0
C  C40  1  0.54650674  0.78868271  0.65718846  1  -0.059333  0  -0.235379  -0.393666  0  3.988091  0
C  C41  1  0.45354100  0.28868692  0.15717814  1  -0.059423  0  -0.23513  -0.39321  0  3.988093  0
O  O42  1  0.42210171  0.40593111  0.60857981  1  -1.223452  0  -0.218053  -0.561121  0  2.278798  0
O  O43  1  0.57791102  0.90593178  0.10857791  1  -1.222686  0  -0.218101  -0.561157  0  2.278144  0
O  O44  1  0.06782052  0.39381830  0.42382753  1  -1.262189  0  -0.24364  -0.612617  0  2.321369  0
O  O45  1  0.93222028  0.89379941  0.92384480  1  -1.263442  0  -0.243581  -0.612519  0  2.32119  0
O  O46  1  0.90670469  0.62090464  0.40753736  1  -1.234395  0  -0.227569  -0.586643  0  2.284035  0
O  O47  1  0.09328014  0.12091175  0.90753926  1  -1.234257  0  -0.227514  -0.586656  0  2.283649  0
O  O48  1  0.08656796  0.37655923  0.59545972  1  -1.230037  0  -0.220844  -0.568032  0  2.288837  0
O  O49  1  0.91347815  0.87655984  0.09546655  1  -1.230496  0  -0.220735  -0.568035  0  2.289229  0
O  O50  1  0.92184625  0.59286603  0.58184540  1  -1.260038  0  -0.233037  -0.585397  0  2.353974  0
O  O51  1  0.07820461  0.09288789  0.08183829  1  -1.259743  0  -0.232987  -0.585468  0  2.354062  0
O  O52  1  0.40618650  0.37575004  0.44194915  1  -1.258556  0  -0.24795  -0.621321  0  2.306198  0
O  O53  1  0.59387474  0.87574517  0.94195482  1  -1.258518  0  -0.247872  -0.621074  0  2.306713  0
O  O54  1  0.24381947  0.57262779  0.48827791  1  -1.40155  0  -0.447057  -0.991093  0  2.181909  0
O  O55  1  0.75618703  0.07262315  0.98827483  1  -1.401006  0  -0.447086  -0.991181  0  2.181874  0
O  O56  1  0.58934605  0.62174973  0.55680073  1  -1.252264  0  -0.233124  -0.586037  0  2.351668  0
O  O57  1  0.41067477  0.12177397  0.05677657  1  -1.252827  0  -0.233154  -0.585877  0  2.352151  0
O  O58  1  0.56816854  0.60024456  0.39293029  1  -1.23081  0  -0.226658  -0.581108  0  2.279124  0
O  O59  1  0.43184467  0.10024709  0.89292606  1  -1.230225  0  -0.22666  -0.58116  0  2.278783  0
O  O60  1  0.74394028  0.42376446  0.50907031  1  -1.436001  0  -0.445832  -0.988325  0  2.192895  0
O  O61  1  0.25610681  0.92376726  0.00907368  1  -1.436644  0  -0.445694  -0.988439  0  2.192688  0
