# generated using pymatgen
data_UH4C5N2O5
_symmetry_space_group_name_H-M   'P 1'
_cell_length_a   6.55005357
_cell_length_b   8.34719416
_cell_length_c   13.57468806
_cell_angle_alpha   89.99973352
_cell_angle_beta   89.99963153
_cell_angle_gamma   90.00058243
_symmetry_Int_Tables_number   1
_chemical_formula_structural   UH4C5N2O5
_chemical_formula_sum   'U4 H16 C20 N8 O20'
_cell_volume   742.19021808
_cell_formula_units_Z   4
loop_
 _symmetry_equiv_pos_site_id
 _symmetry_equiv_pos_as_xyz
  1  'x, y, z'
loop_
 _atom_site_type_symbol
 _atom_site_label
 _atom_site_symmetry_multiplicity
 _atom_site_fract_x
 _atom_site_fract_y
 _atom_site_fract_z
 _atom_site_occupancy
 _atom_site_hle17_bader_spin_density
 _atom_site_hle17_ddec_charge
 _atom_site_hle17_ddec_spin_density
 _atom_site_hle17_ddec_sum_bond_order
 _atom_site_hle17_magmom
 _atom_site_hse06_10hf_bader_charge
 _atom_site_hse06_10hf_bader_spin_density
 _atom_site_hse06_10hf_ddec_charge
 _atom_site_hse06_10hf_ddec_spin_density
 _atom_site_hse06_10hf_ddec_sum_bond_order
 _atom_site_hse06_10hf_magmom
 _atom_site_hse06_bader_spin_density
 _atom_site_hse06_ddec_charge
 _atom_site_hse06_ddec_spin_density
 _atom_site_hse06_ddec_sum_bond_order
 _atom_site_hse06_magmom
 _atom_site_pbe_bader_spin_density
 _atom_site_pbe_cm5_charge
 _atom_site_pbe_ddec_charge
 _atom_site_pbe_ddec_spin_density
 _atom_site_pbe_ddec_sum_bond_order
 _atom_site_pbe_magmom
U  U0  1  0.45631841  0.47866392  0.46424352  1  0  2.512873  0  4.107052  0  2.985985  0  2.581441  0  4.760004  0  0  2.694478  0  4.719989  0  0  2.15653  2.501073  0  4.789107  0
U  U1  1  0.54369756  0.97866794  0.53575370  1  0  2.512734  0  4.107132  0  2.986093  0  2.581563  0  4.759831  0  0  2.694362  0  4.720063  0  0  2.15661  2.501204  0  4.788875  0
U  U2  1  0.54368841  0.47867916  0.96424236  1  0  2.512507  0  4.107274  0  2.986479  0  2.581616  0  4.759833  0  0  2.694475  0  4.720007  0  0  2.156536  2.501076  0  4.789165  0
U  U3  1  0.45632603  0.97866707  0.03575929  1  0  2.51301  0  4.107015  0  2.985833  0  2.581574  0  4.759981  0  0  2.694484  0  4.720008  0  0  2.156502  2.501231  0  4.788972  0
H  H4  1  0.11373684  0.37908201  0.08499497  1  0  0.109416  0  0.949337  0  0.136902  0  0.116311  0  1.015732  0  0  0.119757  0  1.012642  0  0  0.138916  0.113864  0  1.018107  0
H  H5  1  0.88625647  0.87907274  0.91500107  1  0  0.109458  0  0.94928  0  0.136689  0  0.116355  0  1.015698  0  0  0.119787  0  1.012624  0  0  0.138943  0.113902  0  1.018083  0
H  H6  1  0.88626001  0.37907722  0.58499495  1  0  0.109434  0  0.949312  0  0.136612  0  0.116294  0  1.015749  0  0  0.119754  0  1.012642  0  0  0.138917  0.113847  0  1.018124  0
H  H7  1  0.11373024  0.87907633  0.41500846  1  0  0.109444  0  0.949234  0  0.136519  0  0.116333  0  1.015643  0  0  0.119788  0  1.012542  0  0  0.138915  0.113883  0  1.01802  0
H  H8  1  0.76851325  0.13736668  0.29467057  1  0  0.106032  0  0.960459  0  0.168014  0  0.110766  0  1.026046  0  0  0.115001  0  1.022501  0  0  0.131743  0.107658  0  1.028644  0
H  H9  1  0.23146776  0.63736095  0.70532616  1  0  0.106006  0  0.960593  0  0.168264  0  0.110729  0  1.026137  0  0  0.114962  0  1.022578  0  0  0.131795  0.107631  0  1.028725  0
H  H10  1  0.23147767  0.13736746  0.79466964  1  0  0.106039  0  0.960444  0  0.168251  0  0.110771  0  1.026024  0  0  0.115003  0  1.022476  0  0  0.131769  0.107662  0  1.028621  0
H  H11  1  0.76852167  0.63736976  0.20533152  1  0  0.106022  0  0.960483  0  0.168113  0  0.110764  0  1.026054  0  0  0.114996  0  1.022505  0  0  0.131773  0.107657  0  1.028651  0
H  H12  1  0.02944861  0.20057012  0.42432544  1  0  0.116069  0  0.930479  0  0.184922  0  0.127467  0  0.98274  0  0  0.130816  0  0.979475  0  0  0.139473  0.125128  0  0.98519  0
H  H13  1  0.97053169  0.70056526  0.57567259  1  0  0.116073  0  0.930547  0  0.184935  0  0.127488  0  0.982782  0  0  0.130837  0  0.979524  0  0  0.139515  0.125153  0  0.98523  0
H  H14  1  0.97054140  0.20057319  0.92432294  1  0  0.116102  0  0.930479  0  0.184742  0  0.127498  0  0.982717  0  0  0.130848  0  0.979456  0  0  0.139492  0.125162  0  0.985168  0
H  H15  1  0.02946028  0.70057417  0.07567729  1  0  0.116085  0  0.930511  0  0.184836  0  0.127485  0  0.982746  0  0  0.130835  0  0.979484  0  0  0.13949  0.125148  0  0.985198  0
H  H16  1  0.73038839  0.73452363  0.41433145  1  0  0.391297  0  0.926728  0  0.638552  0  0.357138  0  1.00206  0  0  0.371128  0  0.982521  0  0  0.284185  0.347175  0  1.015821  0
H  H17  1  0.26960457  0.23451840  0.58566795  1  0  0.391316  0  0.926725  0  0.638671  0  0.357154  0  1.002055  0  0  0.371145  0  0.982517  0  0  0.284196  0.347187  0  1.01582  0
H  H18  1  0.26961325  0.73452351  0.91433556  1  0  0.391435  0  0.926543  0  0.638742  0  0.357278  0  1.001864  0  0  0.371269  0  0.982325  0  0  0.284231  0.347312  0  1.015629  0
H  H19  1  0.73040108  0.23452811  0.08567195  1  0  0.391252  0  0.926835  0  0.63864  0  0.357084  0  1.00218  0  0  0.371076  0  0.982642  0  0  0.284151  0.34712  0  1.015942  0
C  C20  1  0.23182651  0.38325458  0.23427261  1  0  0.0338  0  3.769625  0  0.481711  0  0.040942  0  4.020965  0  0  0.037113  0  4.041205  0  0  0.124523  0.042903  0  4.007758  0
C  C21  1  0.76816227  0.88325268  0.76572415  1  0  0.033537  0  3.76997  0  0.481663  0  0.04094  0  4.021047  0  0  0.037111  0  4.041276  0  0  0.124561  0.0429  0  4.007838  0
C  C22  1  0.76816840  0.38325245  0.73427296  1  0  0.033762  0  3.76978  0  0.481662  0  0.040931  0  4.021048  0  0  0.037102  0  4.041287  0  0  0.124536  0.042892  0  4.007833  0
C  C23  1  0.23182801  0.88325601  0.26572970  1  0  0.033895  0  3.769433  0  0.481553  0  0.040964  0  4.020929  0  0  0.037135  0  4.04117  0  0  0.124593  0.042925  0  4.007725  0
C  C24  1  0.09279427  0.34042314  0.16106163  1  0  0.078441  0  3.647247  0  0.579109  0  0.03866  0  3.903944  0  0  0.042  0  3.920202  0  0  0.079241  0.03637  0  3.89348  0
C  C25  1  0.90719396  0.84041820  0.83893600  1  0  0.078465  0  3.647308  0  0.579428  0  0.038605  0  3.903999  0  0  0.041955  0  3.920256  0  0  0.079198  0.036313  0  3.893542  0
C  C26  1  0.90719954  0.34041852  0.66106154  1  0  0.078357  0  3.647352  0  0.579351  0  0.038623  0  3.904032  0  0  0.041955  0  3.920277  0  0  0.079202  0.036335  0  3.89356  0
C  C27  1  0.09279174  0.84042043  0.33893903  1  0  0.078397  0  3.647233  0  0.579348  0  0.038648  0  3.903995  0  0  0.041982  0  3.920243  0  0  0.079229  0.036363  0  3.893519  0
C  C28  1  0.90498751  0.20532067  0.27611588  1  0  0.109694  0  3.590457  0  0.53905  0  0.078829  0  3.841044  0  0  0.082724  0  3.853776  0  0  0.079767  0.076419  0  3.832463  0
C  C29  1  0.09499897  0.70531491  0.72388435  1  0  0.109452  0  3.59056  0  0.538899  0  0.07873  0  3.841013  0  0  0.082638  0  3.853741  0  0  0.079638  0.076314  0  3.832439  0
C  C30  1  0.09500759  0.20532035  0.77611389  1  0  0.109601  0  3.590433  0  0.538476  0  0.078781  0  3.840973  0  0  0.08268  0  3.853703  0  0  0.079707  0.076372  0  3.832391  0
C  C31  1  0.90499415  0.70531882  0.22388633  1  0  0.109715  0  3.590489  0  0.53894  0  0.078859  0  3.84106  0  0  0.082763  0  3.853787  0  0  0.079708  0.076451  0  3.83248  0
C  C32  1  0.04890877  0.24325188  0.34912435  1  0  0.120517  0  3.625978  0  0.507419  0  0.101271  0  3.879001  0  0  0.105724  0  3.892255  0  0  0.082915  0.098125  0  3.870005  0
C  C33  1  0.95107972  0.74324871  0.65087576  1  0  0.120515  0  3.626132  0  0.507405  0  0.101192  0  3.879185  0  0  0.105636  0  3.892439  0  0  0.082859  0.098041  0  3.870195  0
C  C34  1  0.95109043  0.24325840  0.84912266  1  0  0.120397  0  3.626239  0  0.507708  0  0.101155  0  3.879236  0  0  0.105606  0  3.892485  0  0  0.082867  0.098006  0  3.870236  0
C  C35  1  0.04891639  0.74325417  0.15087819  1  0  0.1204  0  3.626274  0  0.50764  0  0.101174  0  3.879254  0  0  0.105622  0  3.892512  0  0  0.082866  0.098024  0  3.870268  0
C  C36  1  0.40419388  0.49659282  0.21713661  1  0  0.680877  0  3.868164  0  1.660827  0  0.643451  0  4.157203  0  0  0.683014  0  4.143448  0  0  0.252682  0.616273  0  4.165671  0
C  C37  1  0.59581010  0.99659301  0.78285835  1  0  0.680951  0  3.868199  0  1.660801  0  0.64338  0  4.157339  0  0  0.682941  0  4.143584  0  0  0.252531  0.616206  0  4.165807  0
C  C38  1  0.59580425  0.49659170  0.71713675  1  0  0.680836  0  3.868176  0  1.660936  0  0.64345  0  4.157124  0  0  0.683013  0  4.143374  0  0  0.252718  0.616272  0  4.165591  0
C  C39  1  0.40419058  0.99659771  0.28286484  1  0  0.680915  0  3.867923  0  1.660392  0  0.643427  0  4.157092  0  0  0.682989  0  4.143342  0  0  0.252657  0.616253  0  4.165561  0
N  N40  1  0.21012193  0.33493251  0.32850324  1  0  -0.329205  0  3.230969  0  -1.254026  0  -0.307465  0  3.509845  0  0  -0.321759  0  3.532359  0  0  -0.315101  -0.297155  0  3.494396  0
N  N41  1  0.78987081  0.83493509  0.67149587  1  0  -0.329067  0  3.231021  0  -1.254248  0  -0.307391  0  3.509842  0  0  -0.321666  0  3.53235  0  0  -0.315073  -0.297087  0  3.494398  0
N  N42  1  0.78987721  0.33493534  0.82850204  1  0  -0.329049  0  3.23101  0  -1.254204  0  -0.307353  0  3.509872  0  0  -0.321631  0  3.532377  0  0  -0.315055  -0.297029  0  3.494417  0
N  N43  1  0.21012926  0.83493465  0.17149781  1  0  -0.329216  0  3.230978  0  -1.254135  0  -0.307444  0  3.509863  0  0  -0.321737  0  3.532379  0  0  -0.315107  -0.297147  0  3.494426  0
N  N44  1  0.92573179  0.25378649  0.18261750  1  0  -0.227537  0  3.06298  0  -1.227037  0  -0.171193  0  3.312257  0  0  -0.179691  0  3.324049  0  0  -0.261546  -0.165267  0  3.304224  0
N  N45  1  0.07425073  0.75378226  0.81738185  1  0  -0.227364  0  3.062802  0  -1.226973  0  -0.17111  0  3.312114  0  0  -0.179609  0  3.323898  0  0  -0.261518  -0.165186  0  3.304082  0
N  N46  1  0.07425908  0.25378122  0.68261484  1  0  -0.22741  0  3.062833  0  -1.226642  0  -0.171143  0  3.312141  0  0  -0.179642  0  3.323938  0  0  -0.261531  -0.165217  0  3.304105  0
N  N47  1  0.92572955  0.75378154  0.31738451  1  0  -0.227517  0  3.062971  0  -1.226907  0  -0.171203  0  3.312276  0  0  -0.179701  0  3.324064  0  0  -0.261515  -0.165275  0  3.304239  0
O  O48  1  0.47925272  0.56175365  0.29349911  1  0  -0.636689  0  2.055896  0  -1.183274  0  -0.613121  0  2.316098  0  0  -0.646365  0  2.310895  0  0  -0.337857  -0.589018  0  2.318614  0
O  O49  1  0.52075021  0.06176389  0.70650079  1  0  -0.636577  0  2.055849  0  -1.183436  0  -0.613041  0  2.316202  0  0  -0.646263  0  2.311006  0  0  -0.337776  -0.588945  0  2.318712  0
O  O50  1  0.52074982  0.56175913  0.79349728  1  0  -0.636585  0  2.055882  0  -1.183313  0  -0.613056  0  2.316063  0  0  -0.646284  0  2.310861  0  0  -0.337856  -0.588937  0  2.318581  0
O  O51  1  0.47924091  0.06175842  0.20650041  1  0  -0.636714  0  2.055829  0  -1.183242  0  -0.613083  0  2.316057  0  0  -0.646327  0  2.31086  0  0  -0.337858  -0.588993  0  2.31857  0
O  O52  1  0.46298960  0.52827348  0.13058495  1  0  -0.6606  0  2.119906  0  -1.212507  0  -0.642716  0  2.401241  0  0  -0.676002  0  2.392318  0  0  -0.357169  -0.618245  0  2.406109  0
O  O53  1  0.53702664  0.02827066  0.86941284  1  0  -0.660683  0  2.119817  0  -1.212324  0  -0.642735  0  2.401247  0  0  -0.676036  0  2.392322  0  0  -0.357124  -0.618296  0  2.406101  0
O  O54  1  0.53701162  0.52826831  0.63058380  1  0  -0.660609  0  2.119952  0  -1.212497  0  -0.642704  0  2.401259  0  0  -0.67601  0  2.392336  0  0  -0.357174  -0.618255  0  2.406124  0
O  O55  1  0.46298783  0.02827823  0.36941694  1  0  -0.660655  0  2.119857  0  -1.211985  0  -0.642728  0  2.401237  0  0  -0.676006  0  2.39232  0  0  -0.357163  -0.618281  0  2.406093  0
O  O56  1  0.20361395  0.55771213  0.48903553  1  0  -0.71189  0  1.567049  0  -0.886861  0  -0.724425  0  1.863584  0  0  -0.748568  0  1.850802  0  0  -0.753874  -0.709073  0  1.873074  0
O  O57  1  0.79640572  0.05772844  0.51096659  1  0  -0.711887  0  1.567031  0  -0.886715  0  -0.724493  0  1.863515  0  0  -0.748562  0  1.850781  0  0  -0.753815  -0.709129  0  1.873003  0
O  O58  1  0.79639967  0.55772580  0.98903137  1  0  -0.711828  0  1.567128  0  -0.887055  0  -0.724514  0  1.86358  0  0  -0.748596  0  1.850828  0  0  -0.753809  -0.709109  0  1.873098  0
O  O59  1  0.20362154  0.05771957  0.01096560  1  0  -0.711978  0  1.567004  0  -0.886816  0  -0.724516  0  1.863525  0  0  -0.748595  0  1.850756  0  0  -0.753852  -0.709154  0  1.873012  0
O  O60  1  0.70456487  0.39444030  0.43721354  1  0  -0.705037  0  1.595597  0  -0.878303  0  -0.716427  0  1.896932  0  0  -0.74024  0  1.883971  0  0  -0.747895  -0.701322  0  1.906514  0
O  O61  1  0.29545459  0.89445292  0.56278614  1  0  -0.705049  0  1.595637  0  -0.878479  0  -0.716498  0  1.896922  0  0  -0.740236  0  1.884012  0  0  -0.748007  -0.701382  0  1.906502  0
O  O62  1  0.29544580  0.39445356  0.93721756  1  0  -0.704954  0  1.595724  0  -0.878586  0  -0.716449  0  1.896942  0  0  -0.740216  0  1.884039  0  0  -0.74794  -0.701297  0  1.90655  0
O  O63  1  0.70456755  0.89444086  0.06279243  1  0  -0.705011  0  1.595658  0  -0.878236  0  -0.716403  0  1.896994  0  0  -0.740154  0  1.88405  0  0  -0.747868  -0.701284  0  1.906566  0
O  O64  1  0.61486229  0.73441876  0.46322558  1  0  -0.987952  0  1.812227  0  -1.240539  0  -1.02091  0  2.108231  0  0  -1.06908  0  2.089363  0  0  -0.696544  -0.984883  0  2.119802  0
O  O65  1  0.38514135  0.23441482  0.53677825  1  0  -0.987999  0  1.812293  0  -1.240632  0  -1.020933  0  2.10829  0  0  -1.069108  0  2.089422  0  0  -0.696544  -0.984899  0  2.119857  0
O  O66  1  0.38514938  0.73441716  0.96322342  1  0  -0.988132  0  1.812127  0  -1.240615  0  -1.021114  0  2.108157  0  0  -1.069289  0  2.089285  0  0  -0.696588  -0.985066  0  2.119737  0
O  O67  1  0.61487411  0.23441282  0.03677745  1  0  -0.987937  0  1.812187  0  -1.240521  0  -1.020952  0  2.108213  0  0  -1.069134  0  2.089344  0  0  -0.696519  -0.984899  0  2.11979  0
