# generated using pymatgen
data_Yb2H8C10S(N2O7)2
_symmetry_space_group_name_H-M   'P 1'
_cell_length_a   6.55447462
_cell_length_b   10.89375750
_cell_length_c   12.95630993
_cell_angle_alpha   105.36841129
_cell_angle_beta   90.00564081
_cell_angle_gamma   107.48403879
_symmetry_Int_Tables_number   1
_chemical_formula_structural   Yb2H8C10S(N2O7)2
_chemical_formula_sum   'Yb4 H16 C20 S2 N8 O28'
_cell_volume   847.62278750
_cell_formula_units_Z   2
loop_
 _symmetry_equiv_pos_site_id
 _symmetry_equiv_pos_as_xyz
  1  'x, y, z'
loop_
 _atom_site_type_symbol
 _atom_site_label
 _atom_site_symmetry_multiplicity
 _atom_site_fract_x
 _atom_site_fract_y
 _atom_site_fract_z
 _atom_site_occupancy
 _atom_site_hle17_bader_spin_density
 _atom_site_hle17_ddec_charge
 _atom_site_hle17_ddec_spin_density
 _atom_site_hle17_ddec_sum_bond_order
 _atom_site_hle17_magmom
 _atom_site_hse06_10hf_bader_spin_density
 _atom_site_hse06_10hf_ddec_charge
 _atom_site_hse06_10hf_ddec_spin_density
 _atom_site_hse06_10hf_ddec_sum_bond_order
 _atom_site_hse06_10hf_magmom
 _atom_site_hse06_bader_spin_density
 _atom_site_hse06_ddec_charge
 _atom_site_hse06_ddec_spin_density
 _atom_site_hse06_ddec_sum_bond_order
 _atom_site_hse06_magmom
 _atom_site_pbe_bader_spin_density
 _atom_site_pbe_cm5_charge
 _atom_site_pbe_ddec_charge
 _atom_site_pbe_ddec_spin_density
 _atom_site_pbe_ddec_sum_bond_order
 _atom_site_pbe_magmom
C  C0  1  0.63680537  0.73918024  0.96425441  1  0  0.004282  0  3.756845  0  0  -0.001548  0  4.016494  0  0  -0.003951  0  4.039183  0  0  0.08943  -0.000529  0  4.004599  0
C  C1  1  0.89762571  0.26061403  0.53574737  1  0  0.004357  0  3.758402  0  0  -0.001489  0  4.017731  0  0  -0.003873  0  4.040406  0  0  0.089794  -0.000353  0  4.005711  0
C  C2  1  0.36319360  0.26082120  0.03574467  1  0  0.004151  0  3.756919  0  0  -0.001648  0  4.016527  0  0  -0.004052  0  4.039214  0  0  0.089428  -0.000604  0  4.004602  0
C  C3  1  0.10237611  0.73938699  0.46425331  1  0  0.004394  0  3.758374  0  0  -0.001415  0  4.017767  0  0  -0.003799  0  4.040438  0  0  0.089793  -0.000277  0  4.005748  0
C  C4  1  0.80687059  0.67486860  0.95466994  1  0  0.710017  0  3.866074  0  0  0.658669  0  4.160912  0  0  0.695443  0  4.152093  0  0  0.237261  0.634164  0  4.169562  0
C  C5  1  0.13194451  0.32499595  0.54537911  1  0  0.710886  0  3.866879  0  0  0.660318  0  4.160576  0  0  0.697065  0  4.151756  0  0  0.23764  0.635786  0  4.169186  0
C  C6  1  0.19312965  0.32512926  0.04532992  1  0  0.709962  0  3.866033  0  0  0.658625  0  4.160854  0  0  0.695399  0  4.152038  0  0  0.237249  0.634109  0  4.169498  0
C  C7  1  0.86806008  0.67500756  0.45461756  1  0  0.710842  0  3.866716  0  0  0.660093  0  4.160734  0  0  0.696841  0  4.151918  0  0  0.237515  0.635559  0  4.169344  0
C  C8  1  0.43629000  0.83846079  0.90791025  1  0  0.290944  0  3.588719  0  0  0.226849  0  3.87651  0  0  0.242483  0  3.88602  0  0  0.169615  0.217066  0  3.870881  0
C  C9  1  0.59784534  0.16145999  0.59203029  1  0  0.291473  0  3.59366  0  0  0.227863  0  3.880824  0  0  0.243497  0  3.890331  0  0  0.170352  0.21798  0  3.8755  0
C  C10  1  0.56371175  0.16154009  0.09209283  1  0  0.290963  0  3.588641  0  0  0.226873  0  3.876456  0  0  0.242509  0  3.88596  0  0  0.169647  0.217076  0  3.870816  0
C  C11  1  0.40215723  0.83854255  0.40797200  1  0  0.291457  0  3.593692  0  0  0.227865  0  3.880832  0  0  0.243527  0  3.890348  0  0  0.170388  0.217986  0  3.875498  0
C  C12  1  0.43540536  0.69721329  0.13225879  1  0  0.730288  0  3.871103  0  0  0.683899  0  4.159923  0  0  0.72182  0  4.14836  0  0  0.247208  0.659116  0  4.168596  0
C  C13  1  0.73819564  0.30278513  0.36774084  1  0  0.728921  0  3.869241  0  0  0.681573  0  4.159877  0  0  0.719499  0  4.148357  0  0  0.245986  0.656832  0  4.168455  0
C  C14  1  0.56459440  0.30278361  0.86774107  1  0  0.730259  0  3.871011  0  0  0.683918  0  4.159796  0  0  0.721836  0  4.148234  0  0  0.247187  0.659141  0  4.168464  0
C  C15  1  0.26180639  0.69721631  0.63225823  1  0  0.72882  0  3.869375  0  0  0.681525  0  4.159931  0  0  0.719452  0  4.14841  0  0  0.245989  0.656787  0  4.168511  0
C  C16  1  0.48928308  0.75421865  0.04027804  1  0  0.022933  0  3.632385  0  0  0.00793  0  3.887306  0  0  0.007365  0  3.902108  0  0  0.10398  0.008551  0  3.876255  0
C  C17  1  0.73520869  0.24566142  0.45967931  1  0  0.023114  0  3.63189  0  0  0.007907  0  3.88737  0  0  0.007375  0  3.902216  0  0  0.103911  0.008465  0  3.876198  0
C  C18  1  0.51071555  0.24578211  0.95972183  1  0  0.023095  0  3.632345  0  0  0.008069  0  3.887274  0  0  0.00751  0  3.90207  0  0  0.104056  0.008674  0  3.876226  0
C  C19  1  0.26478973  0.75433892  0.54032217  1  0  0.023114  0  3.631875  0  0  0.007896  0  3.887341  0  0  0.007375  0  3.90219  0  0  0.10388  0.008449  0  3.876178  0
H  H20  1  0.36308246  0.88651507  0.86165658  1  0  0.112758  0  0.918542  0  0  0.123222  0  0.975873  0  0  0.126269  0  0.972171  0  0  0.145359  0.121114  0  0.978115  0
H  H21  1  0.47654264  0.11355154  0.63828109  1  0  0.112941  0  0.919088  0  0  0.122753  0  0.977174  0  0  0.125916  0  0.973293  0  0  0.145177  0.120617  0  0.979499  0
H  H22  1  0.63691597  0.11348527  0.13834490  1  0  0.112764  0  0.918576  0  0  0.123218  0  0.975927  0  0  0.126264  0  0.972227  0  0  0.145374  0.121132  0  0.978135  0
H  H23  1  0.52346035  0.88645183  0.36172361  1  0  0.112994  0  0.919045  0  0  0.122795  0  0.977133  0  0  0.12593  0  0.973288  0  0  0.145185  0.120656  0  0.979456  0
H  H24  1  0.24843118  0.84870493  0.04344240  1  0  0.337076  0  0.870963  0  0  0.318988  0  0.927597  0  0  0.327184  0  0.92104  0  0  0.333887  0.313244  0  0.932244  0
H  H25  1  0.39993924  0.15132699  0.45644522  1  0  0.337013  0  0.872475  0  0  0.318772  0  0.929115  0  0  0.327023  0  0.922531  0  0  0.333646  0.312985  0  0.933816  0
H  H26  1  0.75156724  0.15129541  0.95655908  1  0  0.337043  0  0.871005  0  0  0.31897  0  0.927629  0  0  0.327167  0  0.921072  0  0  0.33387  0.313227  0  0.932276  0
H  H27  1  0.60006023  0.84867238  0.54355625  1  0  0.336972  0  0.872516  0  0  0.31873  0  0.929155  0  0  0.326989  0  0.922565  0  0  0.333628  0.312943  0  0.933856  0
H  H28  1  0.48163621  0.43190007  0.65099157  1  0  0.45105  0  0.845917  0  0  0.418634  0  0.911056  0  0  0.431149  0  0.893112  0  0  0.305083  0.409963  0  0.923662  0
H  H29  1  0.04962141  0.56798428  0.84925724  1  0  0.451266  0  0.845234  0  0  0.418628  0  0.910755  0  0  0.431139  0  0.892815  0  0  0.305128  0.40993  0  0.923424  0
H  H30  1  0.51836402  0.56809779  0.34900830  1  0  0.451061  0  0.845905  0  0  0.418627  0  0.911068  0  0  0.431143  0  0.893124  0  0  0.305098  0.409958  0  0.923671  0
H  H31  1  0.95037771  0.43201441  0.15073941  1  0  0.451305  0  0.845161  0  0  0.418692  0  0.910666  0  0  0.431212  0  0.892705  0  0  0.305141  0.409992  0  0.923337  0
H  H32  1  0.65402531  0.44103156  0.73729836  1  0  0.442435  0  0.83554  0  0  0.410425  0  0.913375  0  0  0.421316  0  0.897536  0  0  0.314031  0.402582  0  0.925106  0
H  H33  1  0.21255185  0.55882022  0.76284321  1  0  0.441542  0  0.837228  0  0  0.409581  0  0.914426  0  0  0.420474  0  0.898607  0  0  0.313621  0.401849  0  0.925939  0
H  H34  1  0.34597908  0.55896851  0.26270231  1  0  0.442466  0  0.835544  0  0  0.410455  0  0.91334  0  0  0.421346  0  0.897502  0  0  0.314054  0.402612  0  0.925071  0
H  H35  1  0.78745122  0.44118025  0.23715586  1  0  0.441488  0  0.837258  0  0  0.409522  0  0.914503  0  0  0.420414  0  0.898685  0  0  0.313572  0.40179  0  0.926016  0
N  N36  1  0.59889674  0.78969501  0.88160533  1  0  -0.496027  0  3.177181  0  0  -0.453495  0  3.465074  0  0  -0.479842  0  3.481299  0  0  -0.393732  -0.44319  0  3.454976  0
N  N37  1  0.80915482  0.21011410  0.61837446  1  0  -0.497056  0  3.181619  0  0  -0.454602  0  3.469088  0  0  -0.480896  0  3.485365  0  0  -0.394412  -0.444346  0  3.459282  0
N  N38  1  0.40110377  0.21030643  0.11839374  1  0  -0.496044  0  3.177147  0  0  -0.453521  0  3.465045  0  0  -0.479869  0  3.481267  0  0  -0.393781  -0.443218  0  3.45494  0
N  N39  1  0.19084894  0.78988775  0.38162862  1  0  -0.497036  0  3.181652  0  0  -0.454574  0  3.469099  0  0  -0.480872  0  3.485366  0  0  -0.394379  -0.444318  0  3.459284  0
N  N40  1  0.36627596  0.81789234  0.00213335  1  0  -0.276747  0  3.380448  0  0  -0.215739  0  3.61831  0  0  -0.229924  0  3.629001  0  0  -0.35584  -0.205866  0  3.609732  0
N  N41  1  0.54852900  0.18205358  0.49779078  1  0  -0.276688  0  3.384313  0  0  -0.215058  0  3.621452  0  0  -0.229438  0  3.632324  0  0  -0.355642  -0.205082  0  3.612854  0
N  N42  1  0.63372289  0.18210580  0.99786731  1  0  -0.276688  0  3.380376  0  0  -0.215705  0  3.618269  0  0  -0.229898  0  3.628959  0  0  -0.355816  -0.205836  0  3.609704  0
N  N43  1  0.45147372  0.81794923  0.50221231  1  0  -0.276703  0  3.384251  0  0  -0.215057  0  3.621371  0  0  -0.229464  0  3.632257  0  0  -0.355648  -0.205085  0  3.612776  0
O  O44  1  0.87915939  0.65335250  0.86134135  1  0  -0.725221  0  2.098011  0  0  -0.660177  0  2.342711  0  0  -0.697487  0  2.327504  0  0  -0.383917  -0.641563  0  2.350223  0
O  O45  1  0.22570433  0.34652470  0.63873524  1  0  -0.724841  0  2.096947  0  0  -0.660653  0  2.341495  0  0  -0.69787  0  2.326337  0  0  -0.383939  -0.642087  0  2.348982  0
O  O46  1  0.12084209  0.34664784  0.13865451  1  0  -0.725108  0  2.098007  0  0  -0.660067  0  2.34269  0  0  -0.69738  0  2.327478  0  0  -0.383875  -0.641476  0  2.350267  0
O  O47  1  0.77430290  0.65347494  0.36126703  1  0  -0.724807  0  2.097116  0  0  -0.660564  0  2.341772  0  0  -0.697784  0  2.326613  0  0  -0.383882  -0.642  0  2.349255  0
O  O48  1  0.04937008  0.91459005  0.80096008  1  0  -0.760959  0  1.956948  0  0  -0.717583  0  2.212631  0  0  -0.748043  0  2.197943  0  0  -0.396987  -0.702579  0  2.22273  0
O  O49  1  0.13495401  0.08517923  0.69906407  1  0  -0.760848  0  1.958216  0  0  -0.717337  0  2.213589  0  0  -0.747698  0  2.198913  0  0  -0.397326  -0.702279  0  2.223643  0
O  O50  1  0.95062697  0.08540754  0.19903898  1  0  -0.760929  0  1.956916  0  0  -0.717556  0  2.212612  0  0  -0.74802  0  2.197924  0  0  -0.396961  -0.702557  0  2.222716  0
O  O51  1  0.86504317  0.91481863  0.30093579  1  0  -0.760827  0  1.958228  0  0  -0.717323  0  2.213626  0  0  -0.747678  0  2.198933  0  0  -0.397329  -0.70227  0  2.223681  0
O  O52  1  0.78899336  0.90310744  0.66943923  1  0  -0.809033  0  2.028177  0  0  -0.757721  0  2.289433  0  0  -0.789473  0  2.273807  0  0  -0.423795  -0.742486  0  2.300466  0
O  O53  1  0.88552122  0.09676130  0.83028537  1  0  -0.809205  0  2.028452  0  0  -0.757952  0  2.289603  0  0  -0.789604  0  2.273919  0  0  -0.423901  -0.742705  0  2.30056  0
O  O54  1  0.21100402  0.09689386  0.33056225  1  0  -0.809032  0  2.028188  0  0  -0.757702  0  2.289439  0  0  -0.789455  0  2.273815  0  0  -0.423787  -0.742469  0  2.300472  0
O  O55  1  0.11447950  0.90323752  0.16971449  1  0  -0.809209  0  2.028459  0  0  -0.757919  0  2.289598  0  0  -0.789574  0  2.273913  0  0  -0.423862  -0.742679  0  2.300557  0
O  O56  1  0.87860584  0.64482038  0.03127633  1  0  -0.685013  0  2.065279  0  0  -0.638203  0  2.322722  0  0  -0.673633  0  2.305762  0  0  -0.394283  -0.62202  0  2.330221  0
O  O57  1  0.23365392  0.35507740  0.46878821  1  0  -0.685951  0  2.065378  0  0  -0.639369  0  2.322381  0  0  -0.674892  0  2.305384  0  0  -0.394969  -0.623169  0  2.329856  0
O  O58  1  0.12138150  0.35517914  0.96871711  1  0  -0.68508  0  2.065185  0  0  -0.63829  0  2.322634  0  0  -0.67372  0  2.305679  0  0  -0.394344  -0.622097  0  2.330134  0
O  O59  1  0.76634401  0.64492500  0.53121648  1  0  -0.685962  0  2.065035  0  0  -0.639312  0  2.322138  0  0  -0.674838  0  2.305146  0  0  -0.394939  -0.623112  0  2.32961  0
O  O60  1  0.24629403  0.67669670  0.16159066  1  0  -0.73431  0  2.081535  0  0  -0.68199  0  2.343529  0  0  -0.719887  0  2.325096  0  0  -0.409355  -0.664221  0  2.351505  0
O  O61  1  0.56944319  0.32322263  0.33849347  1  0  -0.733475  0  2.082053  0  0  -0.680228  0  2.343264  0  0  -0.718172  0  2.324683  0  0  -0.408691  -0.662619  0  2.351238  0
O  O62  1  0.75370489  0.32330157  0.83840760  1  0  -0.734313  0  2.08149  0  0  -0.682019  0  2.343479  0  0  -0.719907  0  2.325051  0  0  -0.409361  -0.66425  0  2.351455  0
O  O63  1  0.43055719  0.67677551  0.66150720  1  0  -0.733467  0  2.082097  0  0  -0.680242  0  2.343297  0  0  -0.718187  0  2.324717  0  0  -0.408728  -0.662632  0  2.351272  0
O  O64  1  0.57780947  0.66610770  0.17657872  1  0  -0.735831  0  2.099705  0  0  -0.680995  0  2.356636  0  0  -0.719262  0  2.339962  0  0  -0.403877  -0.662826  0  2.363675  0
O  O65  1  0.91167217  0.33410800  0.32344855  1  0  -0.734828  0  2.096578  0  0  -0.679561  0  2.353567  0  0  -0.717934  0  2.336916  0  0  -0.403094  -0.661454  0  2.360583  0
O  O66  1  0.42218723  0.33389222  0.82341874  1  0  -0.735857  0  2.099622  0  0  -0.681057  0  2.356549  0  0  -0.719321  0  2.339884  0  0  -0.40391  -0.662877  0  2.363573  0
O  O67  1  0.08832592  0.66588862  0.67655051  1  0  -0.734752  0  2.096601  0  0  -0.679523  0  2.353568  0  0  -0.717894  0  2.336918  0  0  -0.403047  -0.661417  0  2.360583  0
O  O68  1  0.63594648  0.48059962  0.67945260  1  0  -0.909706  0  1.870146  0  0  -0.864424  0  2.089111  0  0  -0.895976  0  2.047398  0  0  -0.665293  -0.851015  0  2.112636  0
O  O69  1  0.15528714  0.51929268  0.82075598  1  0  -0.908445  0  1.871142  0  0  -0.863001  0  2.090555  0  0  -0.894468  0  2.048899  0  0  -0.664705  -0.849645  0  2.113948  0
O  O70  1  0.36405320  0.51940017  0.32054727  1  0  -0.909736  0  1.870167  0  0  -0.864438  0  2.08912  0  0  -0.895991  0  2.047404  0  0  -0.665309  -0.851029  0  2.112644  0
O  O71  1  0.84471060  0.48070629  0.17924148  1  0  -0.908441  0  1.871113  0  0  -0.863011  0  2.090477  0  0  -0.894483  0  2.048818  0  0  -0.664662  -0.849659  0  2.113871  0
S  S72  1  0.96837936  0.99990225  0.74993285  1  0  1.548552  0  5.939371  0  0  1.437305  0  6.478304  0  0  1.48926  0  6.465395  0  0  0.514747  1.398919  0  6.503405  0
S  S73  1  0.03161997  0.00009685  0.25006782  1  0  1.548505  0  5.939457  0  0  1.437236  0  6.478398  0  0  1.489191  0  6.465497  0  0  0.514699  1.398849  0  6.503504  0
Yb  Yb74  1  0.77338281  0.70541300  0.71248831  1  0  2.256533  0  1.662155  0  0  2.103913  0  2.145151  0  0  2.23934  0  1.935292  0  0  1.623891  2.070488  0  2.172218  0
Yb  Yb75  1  0.06788444  0.29443176  0.78747113  1  0  2.255777  0  1.663296  0  0  2.103918  0  2.145461  0  0  2.23871  0  1.936619  0  0  1.624004  2.070406  0  2.172884  0
Yb  Yb76  1  0.22661520  0.29458651  0.28751075  1  0  2.256555  0  1.662058  0  0  2.103916  0  2.145055  0  0  2.239353  0  1.93518  0  0  1.623886  2.070489  0  2.172117  0
Yb  Yb77  1  0.93211475  0.70556706  0.21252874  1  0  2.255807  0  1.663203  0  0  2.103897  0  2.145405  0  0  2.238723  0  1.93652  0  0  1.623988  2.070405  0  2.172783  0
