# generated using pymatgen
data_ZnH14C11(NO2)2
_symmetry_space_group_name_H-M   'P 1'
_cell_length_a   8.62283759
_cell_length_b   8.62286175
_cell_length_c   17.43579890
_cell_angle_alpha   88.83699450
_cell_angle_beta   88.83708768
_cell_angle_gamma   73.04163022
_symmetry_Int_Tables_number   1
_chemical_formula_structural   ZnH14C11(NO2)2
_chemical_formula_sum   'Zn4 H56 C44 N8 O16'
_cell_volume   1239.64575930
_cell_formula_units_Z   4
loop_
 _symmetry_equiv_pos_site_id
 _symmetry_equiv_pos_as_xyz
  1  'x, y, z'
loop_
 _atom_site_type_symbol
 _atom_site_label
 _atom_site_symmetry_multiplicity
 _atom_site_fract_x
 _atom_site_fract_y
 _atom_site_fract_z
 _atom_site_occupancy
 _atom_site_pbe_bader_spin_density
 _atom_site_pbe_cm5_charge
 _atom_site_pbe_ddec_charge
 _atom_site_pbe_ddec_spin_density
 _atom_site_pbe_ddec_sum_bond_order
 _atom_site_pbe_magmom
Zn  Zn0  1  0.56704303  0.97344758  0.07566790  1  0  0.668608  0.820582  0  2.420793  0
Zn  Zn1  1  0.02655380  0.43295731  0.42433293  1  0  0.668598  0.820563  0  2.420863  0
Zn  Zn2  1  0.43295666  0.02655146  0.92433214  1  0  0.668608  0.820602  0  2.420855  0
Zn  Zn3  1  0.97344900  0.56704296  0.57566708  1  0  0.668593  0.820556  0  2.420887  0
H  H4  1  0.29938720  0.60575232  0.96492277  1  0  0.087909  0.091096  0  0.982978  0
H  H5  1  0.39424611  0.70061210  0.53507790  1  0  0.087898  0.091093  0  0.982951  0
H  H6  1  0.70060975  0.39424427  0.03507675  1  0  0.087911  0.091102  0  0.982954  0
H  H7  1  0.60575322  0.29938814  0.46492329  1  0  0.087904  0.091099  0  0.982975  0
H  H8  1  0.14301184  0.51866239  0.94586235  1  0  0.083639  0.074582  0  1.029209  0
H  H9  1  0.48133903  0.85698722  0.55413826  1  0  0.083627  0.074553  0  1.029235  0
H  H10  1  0.85698589  0.48133542  0.05413773  1  0  0.083641  0.074594  0  1.029208  0
H  H11  1  0.51866109  0.14301425  0.44586233  1  0  0.083647  0.074583  0  1.029198  0
H  H12  1  0.22199136  0.77673495  0.18978557  1  0  0.088517  0.088762  0  1.022662  0
H  H13  1  0.22326650  0.77800694  0.31021464  1  0  0.088532  0.088764  0  1.022671  0
H  H14  1  0.77800565  0.22326529  0.81021449  1  0  0.088512  0.088762  0  1.022707  0
H  H15  1  0.77673594  0.22199455  0.68978479  1  0  0.088526  0.088771  0  1.022626  0
H  H16  1  0.06779877  0.68557303  0.17045723  1  0  0.083504  0.079285  0  0.999571  0
H  H17  1  0.31443001  0.93219838  0.32954238  1  0  0.083497  0.079292  0  0.999623  0
H  H18  1  0.93219825  0.31442720  0.82954111  1  0  0.083476  0.079258  0  0.999652  0
H  H19  1  0.68557359  0.06780311  0.67045818  1  0  0.083471  0.079255  0  0.999619  0
H  H20  1  0.01930784  0.93115600  0.09277880  1  0  0.099927  0.085706  0  0.996118  0
H  H21  1  0.06884513  0.98069084  0.40722126  1  0  0.099937  0.085709  0  0.996129  0
H  H22  1  0.98069265  0.06884426  0.90722008  1  0  0.099928  0.085725  0  0.996116  0
H  H23  1  0.93115688  0.01930821  0.59277876  1  0  0.099947  0.085736  0  0.996102  0
H  H24  1  0.41385987  0.58361785  0.10216029  1  0  0.088411  0.091145  0  0.988182  0
H  H25  1  0.41638312  0.58613966  0.39783893  1  0  0.088401  0.091144  0  0.988175  0
H  H26  1  0.58613831  0.41638240  0.89783804  1  0  0.088391  0.091156  0  0.988179  0
H  H27  1  0.58361621  0.41386059  0.60216111  1  0  0.0884  0.09116  0  0.988159  0
H  H28  1  0.33801760  0.47675477  0.17408499  1  0  0.082959  0.073613  0  1.025396  0
H  H29  1  0.52324707  0.66198283  0.32591480  1  0  0.082952  0.073599  0  1.025388  0
H  H30  1  0.66198288  0.52324548  0.82591447  1  0  0.082966  0.073605  0  1.025387  0
H  H31  1  0.47675377  0.33801621  0.67408524  1  0  0.082958  0.073612  0  1.025386  0
H  H32  1  0.12772617  0.44550129  0.08417976  1  0  0.102127  0.087  0  0.970231  0
H  H33  1  0.55450033  0.87227338  0.41581997  1  0  0.102137  0.087016  0  0.970221  0
H  H34  1  0.87227352  0.55449774  0.91582086  1  0  0.102114  0.086947  0  0.970217  0
H  H35  1  0.44550016  0.12772688  0.58418006  1  0  0.102141  0.087026  0  0.970204  0
H  H36  1  0.81076790  0.69427969  0.32389956  1  0  0.315878  0.288687  0  0.981666  0
H  H37  1  0.30571677  0.18923672  0.17610035  1  0  0.31589  0.28871  0  0.981634  0
H  H38  1  0.18923410  0.30571936  0.67610047  1  0  0.315883  0.28869  0  0.981662  0
H  H39  1  0.69428256  0.81076353  0.82389912  1  0  0.3159  0.288698  0  0.981661  0
H  H40  1  0.68467875  0.66792439  0.19443009  1  0  0.144954  0.10844  0  0.974643  0
H  H41  1  0.33207554  0.31532138  0.30556921  1  0  0.144952  0.108477  0  0.974604  0
H  H42  1  0.31532138  0.33207707  0.80556993  1  0  0.144963  0.108458  0  0.974599  0
H  H43  1  0.66792495  0.68467888  0.69442967  1  0  0.144955  0.108466  0  0.974685  0
H  H44  1  0.72001034  0.14401723  0.20384721  1  0  0.122428  0.118784  0  0.999103  0
H  H45  1  0.85597960  0.27999023  0.29615292  1  0  0.122424  0.118788  0  0.999067  0
H  H46  1  0.27999051  0.85598181  0.79615225  1  0  0.122422  0.118789  0  0.999091  0
H  H47  1  0.14401973  0.72001002  0.70384712  1  0  0.122414  0.118763  0  0.999089  0
H  H48  1  0.85840726  0.97218665  0.33579150  1  0  0.123874  0.116587  0  1.035889  0
H  H49  1  0.02781010  0.14159597  0.16420775  1  0  0.123862  0.116566  0  1.035907  0
H  H50  1  0.14159208  0.02781360  0.66420739  1  0  0.123866  0.116593  0  1.035805  0
H  H51  1  0.97218888  0.85840549  0.83579171  1  0  0.123856  0.116556  0  1.0359  0
H  H52  1  0.95130251  0.71694697  0.03077999  1  0  0.087725  0.0896  0  1.014056  0
H  H53  1  0.28305547  0.04869716  0.46922053  1  0  0.087714  0.089601  0  1.014048  0
H  H54  1  0.04869646  0.28305449  0.96921947  1  0  0.087721  0.089589  0  1.014071  0
H  H55  1  0.71694581  0.95130431  0.53078005  1  0  0.087732  0.089614  0  1.014048  0
H  H56  1  0.03562942  0.82099197  0.96097991  1  0  0.083979  0.076191  0  1.036073  0
H  H57  1  0.17900890  0.96437008  0.53901996  1  0  0.08398  0.076207  0  1.036062  0
H  H58  1  0.96437143  0.17900708  0.03901898  1  0  0.083977  0.076176  0  1.036119  0
H  H59  1  0.82099079  0.03562896  0.46098008  1  0  0.083978  0.076191  0  1.036086  0
C  C60  1  0.35031312  0.30234215  0.04166646  1  0  0.221477  0.606491  0  4.095377  0
C  C61  1  0.69765709  0.64968697  0.45833515  1  0  0.221482  0.606478  0  4.095379  0
C  C62  1  0.64968657  0.69765688  0.95833531  1  0  0.221447  0.606393  0  4.095591  0
C  C63  1  0.30234340  0.35031329  0.54166488  1  0  0.221446  0.606411  0  4.095402  0
C  C64  1  0.25698827  0.90067407  0.04936333  1  0  0.217731  0.604655  0  4.096931  0
C  C65  1  0.09932735  0.74301184  0.45063798  1  0  0.217734  0.6047  0  4.096856  0
C  C66  1  0.74301257  0.09932497  0.95063843  1  0  0.21765  0.604539  0  4.09703  0
C  C67  1  0.90067502  0.25698600  0.54936091  1  0  0.217708  0.604606  0  4.096857  0
C  C68  1  0.19042095  0.58100628  0.99003035  1  0  -0.17087  -0.163477  0  3.932239  0
C  C69  1  0.41899380  0.80957816  0.50997028  1  0  -0.170859  -0.16346  0  3.9322  0
C  C70  1  0.80957830  0.41899033  0.00996973  1  0  -0.170892  -0.163569  0  3.932231  0
C  C71  1  0.58100785  0.19042210  0.49003031  1  0  -0.170883  -0.163495  0  3.932211  0
C  C72  1  0.17512538  0.71413562  0.14573074  1  0  -0.169181  -0.158797  0  3.918962  0
C  C73  1  0.28586384  0.82487361  0.35426949  1  0  -0.16916  -0.158803  0  3.91904  0
C  C74  1  0.82487316  0.28586341  0.85426817  1  0  -0.169139  -0.158794  0  3.919062  0
C  C75  1  0.71413664  0.17512664  0.64573054  1  0  -0.169134  -0.158731  0  3.918919  0
C  C76  1  0.12270411  0.82713951  0.07587000  1  0  -0.089796  -0.11278  0  3.855542  0
C  C77  1  0.17286049  0.87729478  0.42413015  1  0  -0.089808  -0.112785  0  3.855531  0
C  C78  1  0.87729522  0.17286074  0.92412946  1  0  -0.089769  -0.112752  0  3.85555  0
C  C79  1  0.82714000  0.12270548  0.57586930  1  0  -0.089789  -0.11281  0  3.855559  0
C  C80  1  0.30314133  0.55652573  0.12358058  1  0  -0.169694  -0.159423  0  3.920732  0
C  C81  1  0.44347498  0.69685796  0.37641975  1  0  -0.169715  -0.159418  0  3.920659  0
C  C82  1  0.69685836  0.44347331  0.87641947  1  0  -0.169701  -0.159432  0  3.920697  0
C  C83  1  0.55652586  0.30314108  0.62358028  1  0  -0.169735  -0.159497  0  3.920665  0
C  C84  1  0.23894287  0.47028162  0.06078515  1  0  -0.090014  -0.111523  0  3.869374  0
C  C85  1  0.52971909  0.76105707  0.43921519  1  0  -0.089979  -0.111519  0  3.869359  0
C  C86  1  0.76105602  0.52971620  0.93921549  1  0  -0.089986  -0.111396  0  3.869254  0
C  C87  1  0.47028140  0.23894318  0.56078484  1  0  -0.089988  -0.11151  0  3.869313  0
C  C88  1  0.71190468  0.77505473  0.21453670  1  0  0.15201  0.151941  0  3.913054  0
C  C89  1  0.22494537  0.28809620  0.28546314  1  0  0.151983  0.15184  0  3.91297  0
C  C90  1  0.28809581  0.22494553  0.78546219  1  0  0.152002  0.151927  0  3.912993  0
C  C91  1  0.77505396  0.71190405  0.71453633  1  0  0.151967  0.151806  0  3.912995  0
C  C92  1  0.73351103  0.01994285  0.22208622  1  0  -0.003937  -0.054433  0  3.999425  0
C  C93  1  0.98005547  0.26648881  0.27791396  1  0  -0.003934  -0.054447  0  3.999395  0
C  C94  1  0.26648723  0.98006103  0.77791265  1  0  -0.003961  -0.054482  0  3.999485  0
C  C95  1  0.01994502  0.73351145  0.72208550  1  0  -0.003961  -0.054462  0  3.999398  0
C  C96  1  0.80108202  0.93690088  0.28720672  1  0  0.005172  -0.050022  0  3.947183  0
C  C97  1  0.06309648  0.19891950  0.21279310  1  0  0.005204  -0.049963  0  3.947077  0
C  C98  1  0.19891962  0.06309938  0.71279444  1  0  0.005193  -0.04999  0  3.947158  0
C  C99  1  0.93690249  0.80108196  0.78720693  1  0  0.005198  -0.049977  0  3.947074  0
C  C100  1  0.06478835  0.74028547  0.01138801  1  0  -0.17242  -0.162501  0  3.920729  0
C  C101  1  0.25971563  0.93521212  0.48861214  1  0  -0.172418  -0.162526  0  3.920707  0
C  C102  1  0.93521098  0.25971478  0.98861146  1  0  -0.17243  -0.162464  0  3.920802  0
C  C103  1  0.74028486  0.06478813  0.51138789  1  0  -0.172441  -0.162524  0  3.920738  0
N  N104  1  0.67853014  0.91728133  0.17725873  1  0  -0.35649  -0.269663  0  3.557109  0
N  N105  1  0.08271682  0.32146924  0.32274049  1  0  -0.35647  -0.269583  0  3.557024  0
N  N106  1  0.32147071  0.08271771  0.82274131  1  0  -0.356467  -0.269634  0  3.557074  0
N  N107  1  0.91728367  0.67853101  0.67725896  1  0  -0.356443  -0.269546  0  3.556979  0
N  N108  1  0.78644944  0.78293745  0.28107843  1  0  -0.372696  -0.19623  0  3.686952  0
N  N109  1  0.21706097  0.21355101  0.21892087  1  0  -0.372715  -0.196274  0  3.686824  0
N  N110  1  0.21355105  0.21706281  0.71892159  1  0  -0.372727  -0.196281  0  3.687005  0
N  N111  1  0.78293800  0.78645045  0.78107859  1  0  -0.372721  -0.196225  0  3.686886  0
O  O112  1  0.35130296  0.92347691  0.10041185  1  0  -0.323092  -0.558357  0  2.349966  0
O  O113  1  0.07652371  0.64869579  0.39958835  1  0  -0.323095  -0.558368  0  2.349859  0
O  O114  1  0.64869593  0.07652091  0.89958649  1  0  -0.323085  -0.558329  0  2.3498  0
O  O115  1  0.92347793  0.35130447  0.60041224  1  0  -0.323096  -0.558343  0  2.349712  0
O  O116  1  0.35234166  0.25512158  0.97319388  1  0  -0.309279  -0.548776  0  2.367304  0
O  O117  1  0.74487634  0.64766053  0.52680808  1  0  -0.309285  -0.548769  0  2.367339  0
O  O118  1  0.64765875  0.74487504  0.02680446  1  0  -0.309267  -0.548741  0  2.367565  0
O  O119  1  0.25512263  0.35234092  0.47319367  1  0  -0.30928  -0.548749  0  2.367411  0
O  O120  1  0.43022568  0.21615180  0.09670537  1  0  -0.319899  -0.565568  0  2.348347  0
O  O121  1  0.78385068  0.56977154  0.40329631  1  0  -0.319881  -0.565523  0  2.348354  0
O  O122  1  0.56977134  0.78384843  0.90329469  1  0  -0.31985  -0.565483  0  2.348264  0
O  O123  1  0.21615024  0.43023114  0.59670541  1  0  -0.319841  -0.565474  0  2.348316  0
O  O124  1  0.26401211  0.93723428  0.97848416  1  0  -0.313455  -0.541621  0  2.357599  0
O  O125  1  0.06276853  0.73598731  0.52151632  1  0  -0.313455  -0.541637  0  2.357658  0
O  O126  1  0.73598723  0.06276597  0.02151358  1  0  -0.313407  -0.541544  0  2.357771  0
O  O127  1  0.93723268  0.26401052  0.47848430  1  0  -0.313453  -0.541583  0  2.357732  0
