# generated using pymatgen
data_CdH15C21(NO3)2
_symmetry_space_group_name_H-M   'P 1'
_cell_length_a   9.12911968
_cell_length_b   12.18808855
_cell_length_c   21.79115421
_cell_angle_alpha   105.61670298
_cell_angle_beta   90.01773861
_cell_angle_gamma   112.02561047
_symmetry_Int_Tables_number   1
_chemical_formula_structural   CdH15C21(NO3)2
_chemical_formula_sum   'Cd4 H60 C84 N8 O24'
_cell_volume   2150.72336010
_cell_formula_units_Z   4
loop_
 _symmetry_equiv_pos_site_id
 _symmetry_equiv_pos_as_xyz
  1  'x, y, z'
loop_
 _atom_site_type_symbol
 _atom_site_label
 _atom_site_symmetry_multiplicity
 _atom_site_fract_x
 _atom_site_fract_y
 _atom_site_fract_z
 _atom_site_occupancy
 _atom_site_pbe_bader_charge
 _atom_site_pbe_bader_spin_density
 _atom_site_pbe_cm5_charge
 _atom_site_pbe_ddec_charge
 _atom_site_pbe_ddec_spin_density
 _atom_site_pbe_ddec_sum_bond_order
 _atom_site_pbe_magmom
Cd  Cd0  1  0.01384649  0.53183875  0.83499195  1  1.262822  0  0.763088  0.869661  0  2.15724  0
Cd  Cd1  1  0.48208471  0.46800696  0.66498030  1  1.263236  0  0.763162  0.870737  0  2.155064  0
Cd  Cd2  1  0.98615260  0.46816173  0.16500730  1  1.262733  0  0.763074  0.869682  0  2.157204  0
Cd  Cd3  1  0.51791548  0.53199352  0.33501895  1  1.263203  0  0.76315  0.870686  0  2.155179  0
H  H4  1  0.70234108  0.39708950  0.76197248  1  0.635436  0  0.287532  0.382802  0  0.957174  0
H  H5  1  0.30549289  0.60266888  0.73804865  1  0.641114  0  0.287617  0.383159  0  0.956689  0
H  H6  1  0.29765674  0.60291282  0.23802656  1  0.63544  0  0.287519  0.382769  0  0.9572  0
H  H7  1  0.69450498  0.39733353  0.26195317  1  0.641164  0  0.287657  0.383239  0  0.956577  0
H  H8  1  0.82587312  0.45817326  0.72085355  1  0.635874  0  0.291485  0.390928  0  0.944525  0
H  H9  1  0.36773187  0.54150319  0.77915764  1  0.632438  0  0.291283  0.390843  0  0.944515  0
H  H10  1  0.17412499  0.54183181  0.27914543  1  0.635827  0  0.291505  0.390934  0  0.944515  0
H  H11  1  0.63226725  0.45849734  0.22084299  1  0.632443  0  0.291243  0.39076  0  0.944641  0
H  H12  1  0.88520006  0.75072489  0.56530304  1  0.052441  0  0.103265  0.118336  0  1.021207  0
H  H13  1  0.13421505  0.24923610  0.93476279  1  0.067247  0  0.103502  0.118418  0  1.020789  0
H  H14  1  0.11480059  0.24927650  0.43469588  1  0.052421  0  0.103277  0.118366  0  1.021186  0
H  H15  1  0.86578990  0.75076732  0.06524147  1  0.066612  0  0.103551  0.118473  0  1.02077  0
H  H16  1  0.38602862  0.91780153  0.63043032  1  0.086026  0  0.102123  0.11249  0  1.019109  0
H  H17  1  0.46757112  0.08213807  0.86947695  1  0.065282  0  0.101907  0.111925  0  1.019051  0
H  H18  1  0.61397501  0.08220363  0.36957096  1  0.086031  0  0.102134  0.112535  0  1.019182  0
H  H19  1  0.53242789  0.91785787  0.13052395  1  0.06537  0  0.101854  0.111791  0  1.019019  0
H  H20  1  0.33274474  0.82621874  0.72184619  1  0.056229  0  0.105959  0.110625  0  0.982316  0
H  H21  1  0.50522169  0.17342791  0.77796474  1  0.062379  0  0.106129  0.11097  0  0.98197  0
H  H22  1  0.66725139  0.17378456  0.27815483  1  0.056188  0  0.105944  0.110658  0  0.982298  0
H  H23  1  0.49478121  0.82657359  0.22203741  1  0.062347  0  0.106171  0.111042  0  0.981986  0
H  H24  1  0.08477765  0.05485544  0.61698408  1  0.133375  0  0.112685  0.13962  0  0.982699  0
H  H25  1  0.02979406  0.94512900  0.88302586  1  0.12262  0  0.112704  0.139736  0  0.982299  0
H  H26  1  0.91522861  0.94514405  0.38301319  1  0.13328  0  0.112666  0.139551  0  0.982733  0
H  H27  1  0.97019795  0.05486608  0.11697674  1  0.122525  0  0.112634  0.139647  0  0.982359  0
H  H28  1  0.06411025  0.83786464  0.42240971  1  0.076717  0  0.107018  0.119499  0  1.005769  0
H  H29  1  0.22642924  0.16216867  0.07760364  1  0.089266  0  0.107215  0.119625  0  1.006488  0
H  H30  1  0.93589415  0.16213112  0.57758611  1  0.076766  0  0.106994  0.119423  0  1.005873  0
H  H31  1  0.77356635  0.83782918  0.92239936  1  0.089255  0  0.107241  0.119587  0  1.006529  0
H  H32  1  0.88412877  0.42477047  0.94905862  1  0.119419  0  0.114366  0.087999  0  1.033266  0
H  H33  1  0.45957044  0.57508738  0.55078307  1  0.135287  0  0.114458  0.087602  0  1.032986  0
H  H34  1  0.11586848  0.57522632  0.05094056  1  0.119291  0  0.114344  0.088012  0  1.03329  0
H  H35  1  0.54042864  0.42491305  0.44921479  1  0.135289  0  0.114459  0.087582  0  1.033016  0
H  H36  1  0.67337579  0.40720618  0.02203721  1  0.078476  0  0.10752  0.112861  0  1.02821  0
H  H37  1  0.26620477  0.59264185  0.47783795  1  0.090549  0  0.107759  0.113149  0  1.02885  0
H  H38  1  0.32662294  0.59279795  0.97796118  1  0.078498  0  0.107524  0.112879  0  1.028339  0
H  H39  1  0.73379555  0.40735670  0.52215872  1  0.090482  0  0.107778  0.113123  0  1.028819  0
H  H40  1  0.49543506  0.60113560  0.92053645  1  0.099083  0  0.109739  0.117638  0  1.017765  0
H  H41  1  0.89449231  0.39929833  0.57962557  1  0.090654  0  0.110312  0.118542  0  1.016762  0
H  H42  1  0.50456353  0.39886387  0.07946036  1  0.09913  0  0.109726  0.117601  0  1.017772  0
H  H43  1  0.10550782  0.60070860  0.42037367  1  0.09062  0  0.110316  0.118548  0  1.01684  0
H  H44  1  0.71926770  0.61547359  0.85479603  1  0.145831  0  0.12664  0.10808  0  0.975077  0
H  H45  1  0.10415304  0.38499180  0.64531291  1  0.149918  0  0.126407  0.107713  0  0.976264  0
H  H46  1  0.28073355  0.38452682  0.14520137  1  0.145759  0  0.126643  0.10812  0  0.975085  0
H  H47  1  0.89584444  0.61501421  0.35468666  1  0.150067  0  0.126353  0.10768  0  0.976264  0
H  H48  1  0.34756697  0.72488776  0.83513107  1  0.111693  0  0.116051  0.087951  0  1.048612  0
H  H49  1  0.62241506  0.27504032  0.66488780  1  0.154483  0  0.11615  0.087944  0  1.048944  0
H  H50  1  0.65243208  0.27510824  0.16487167  1  0.111641  0  0.116049  0.087916  0  1.048576  0
H  H51  1  0.37758177  0.72495565  0.33511401  1  0.15442  0  0.116167  0.087959  0  1.04903  0
H  H52  1  0.55757159  0.92274636  0.89475486  1  0.069102  0  0.112381  0.115744  0  1.002868  0
H  H53  1  0.63465939  0.07735183  0.60532945  1  0.068354  0  0.112389  0.11598  0  1.002473  0
H  H54  1  0.44242723  0.07725140  0.10524537  1  0.069042  0  0.112366  0.115724  0  1.002906  0
H  H55  1  0.36534714  0.92264601  0.39467309  1  0.068514  0  0.112412  0.115989  0  1.002419  0
H  H56  1  0.27941020  0.91463039  0.05597565  1  0.077688  0  0.111724  0.116407  0  1.005821  0
H  H57  1  0.36492257  0.08524781  0.44388158  1  0.11128  0  0.111507  0.116489  0  1.00524  0
H  H58  1  0.72059068  0.08536926  0.94402623  1  0.077508  0  0.111718  0.116403  0  1.005877  0
H  H59  1  0.63509575  0.91475169  0.55611569  1  0.111585  0  0.11155  0.116514  0  1.005225  0
H  H60  1  0.07893837  0.71920208  0.98847659  1  0.083496  0  0.116357  0.084746  0  0.996579  0
H  H61  1  0.35981018  0.28053712  0.51129821  1  0.077979  0  0.116533  0.084031  0  0.996546  0
H  H62  1  0.92105940  0.28079575  0.01152595  1  0.083489  0  0.116339  0.084744  0  0.99661  0
H  H63  1  0.64019554  0.71945691  0.48870058  1  0.077855  0  0.116497  0.083998  0  0.99647  0
C  C64  1  0.05171772  0.68255304  0.75029187  1  1.573188  0  0.195284  0.572389  0  4.24623  0
C  C65  1  0.36833585  0.31721259  0.74965298  1  1.577178  0  0.195567  0.57325  0  4.246839  0
C  C66  1  0.94827933  0.31745211  0.24970942  1  1.572977  0  0.195352  0.572432  0  4.246325  0
C  C67  1  0.63166281  0.68278703  0.25034797  1  1.577036  0  0.195572  0.573099  0  4.247053  0
C  C68  1  0.78665211  0.62664825  0.65092375  1  1.575761  0  0.193856  0.572963  0  4.214523  0
C  C69  1  0.15946526  0.37316747  0.84907162  1  1.586102  0  0.193375  0.572253  0  4.212361  0
C  C70  1  0.21334692  0.37335867  0.34907549  1  1.575599  0  0.193915  0.573029  0  4.21423  0
C  C71  1  0.84053548  0.62683410  0.15093237  1  1.586143  0  0.193506  0.572389  0  4.212321  0
C  C72  1  0.07922186  0.73700943  0.69506659  1  0.040175  0  -0.012781  -0.044199  0  3.936251  0
C  C73  1  0.34125424  0.26275561  0.80485801  1  -0.017479  0  -0.012597  -0.044656  0  3.938009  0
C  C74  1  0.92077581  0.26299476  0.30493364  1  0.040448  0  -0.012774  -0.04425  0  3.936307  0
C  C75  1  0.65875022  0.73724683  0.19514472  1  -0.01752  0  -0.012605  -0.044518  0  3.938243  0
C  C76  1  0.95295172  0.71530870  0.65022694  1  -0.020581  0  -0.011304  -0.021661  0  3.946045  0
C  C77  1  0.23694896  0.28452168  0.84974208  1  0.015719  0  -0.011177  -0.02131  0  3.947073  0
C  C78  1  0.04704794  0.28469730  0.34977217  1  -0.020953  0  -0.011354  -0.021609  0  3.946014  0
C  C79  1  0.76305443  0.71548081  0.15026204  1  0.015307  0  -0.011298  -0.021605  0  3.947372  0
C  C80  1  0.98345722  0.76871484  0.59994082  1  0.042621  0  -0.098145  -0.222034  0  3.991157  0
C  C81  1  0.21427889  0.23118788  0.90006101  1  0.002931  0  -0.098875  -0.222054  0  3.989377  0
C  C82  1  0.01654388  0.23128746  0.40005776  1  0.04298  0  -0.098158  -0.222165  0  3.991162  0
C  C83  1  0.78572405  0.76881371  0.09994344  1  0.003752  0  -0.098908  -0.222134  0  3.989491  0
C  C84  1  0.13902964  0.83984399  0.59293746  1  0.375026  0  0.07821  0.252048  0  4.068598  0
C  C85  1  0.29884925  0.16018200  0.90704876  1  0.379061  0  0.078324  0.251623  0  4.068915  0
C  C86  1  0.86097210  0.16015740  0.40706146  1  0.375384  0  0.078257  0.252162  0  4.068501  0
C  C87  1  0.70114742  0.83981582  0.09295331  1  0.37936  0  0.078274  0.251583  0  4.068829  0
C  C88  1  0.26541606  0.86140776  0.63668260  1  -0.010947  0  -0.099721  -0.188034  0  4.000821  0
C  C89  1  0.40339772  0.13852460  0.86325598  1  0.012728  0  -0.0994  -0.186768  0  4.001421  0
C  C90  1  0.73458132  0.13859367  0.36331770  1  -0.010878  0  -0.09971  -0.188054  0  4.000828  0
C  C91  1  0.59660271  0.86147418  0.13674715  1  0.012745  0  -0.099262  -0.186447  0  4.001136  0
C  C92  1  0.23445385  0.80993666  0.68752993  1  -0.040711  0  -0.08648  -0.084737  0  3.994501  0
C  C93  1  0.42345756  0.18979671  0.81235672  1  -0.01008  0  -0.086993  -0.085555  0  3.9957  0
C  C94  1  0.76554338  0.19006666  0.31247155  1  -0.040764  0  -0.086509  -0.084831  0  3.994464  0
C  C95  1  0.57654645  0.81020484  0.18764681  1  -0.010221  0  -0.087068  -0.085754  0  3.99581  0
C  C96  1  0.08156089  0.93930331  0.52146001  1  0.430459  0  0.071258  0.229772  0  4.074027  0
C  C97  1  0.14229066  0.06074650  0.97854715  1  0.380366  0  0.070734  0.229365  0  4.075386  0
C  C98  1  0.91844602  0.06069528  0.47853759  1  0.43015  0  0.071296  0.229795  0  4.073856  0
C  C99  1  0.85770163  0.93925132  0.02145493  1  0.380116  0  0.070759  0.229317  0  4.075493  0
C  C100  1  0.04558835  0.02945113  0.56602392  1  -0.023138  0  -0.098393  -0.176857  0  3.985723  0
C  C101  1  0.01603181  0.97055716  0.93398546  1  -0.007837  0  -0.097786  -0.175405  0  3.984874  0
C  C102  1  0.95441811  0.97054655  0.43397401  1  -0.022777  0  -0.098375  -0.176755  0  3.985845  0
C  C103  1  0.98395690  0.02943790  0.06601668  1  -0.007887  0  -0.097595  -0.175121  0  3.984649  0
C  C104  1  0.03618228  0.90964900  0.45589994  1  -0.055227  0  -0.099829  -0.181826  0  4.019749  0
C  C105  1  0.12665843  0.09034331  0.04409137  1  -0.01492  0  -0.100538  -0.183423  0  4.019899  0
C  C106  1  0.96382262  0.09034776  0.54409832  1  -0.055149  0  -0.099805  -0.181691  0  4.019591  0
C  C107  1  0.87333386  0.90965451  0.95591071  1  -0.01499  0  -0.10049  -0.183174  0  4.019971  0
C  C108  1  0.79687676  0.46496961  0.94607988  1  0.444896  0  0.044107  0.086533  0  3.962781  0
C  C109  1  0.33209369  0.53500983  0.55382183  1  0.439744  0  0.044373  0.08776  0  3.961991  0
C  C110  1  0.20312170  0.53503179  0.05391949  1  0.445431  0  0.044067  0.086497  0  3.962771  0
C  C111  1  0.66790382  0.46498966  0.44617544  1  0.439747  0  0.044333  0.087726  0  3.962003  0
C  C112  1  0.67695723  0.45432158  0.98587833  1  0.035305  0  -0.07859  -0.158767  0  3.928129  0
C  C113  1  0.22270372  0.54562202  0.51403897  1  0.018173  0  -0.078858  -0.159595  0  3.926846  0
C  C114  1  0.32304151  0.54568257  0.01412051  1  0.035285  0  -0.078517  -0.158695  0  3.928009  0
C  C115  1  0.77729284  0.45437559  0.48595711  1  0.018004  0  -0.078816  -0.159455  0  3.926732  0
C  C116  1  0.56442608  0.50446610  0.97899201  1  -0.004509  0  0.017986  0.106445  0  3.954866  0
C  C117  1  0.06000482  0.49556111  0.52098741  1  -0.028745  0  0.018222  0.1072  0  3.953275  0
C  C118  1  0.43557360  0.49553336  0.02100434  1  -0.044491  0  0.017813  0.106102  0  3.954745  0
C  C119  1  0.93999627  0.50444117  0.47901072  1  0.015905  0  0.018131  0.106996  0  3.95341  0
C  C120  1  0.57973983  0.56270772  0.93042669  1  -0.0167  0  -0.072359  -0.147971  0  3.902531  0
C  C121  1  0.01719257  0.43752586  0.56962245  1  -0.019672  0  -0.073874  -0.150589  0  3.90448  0
C  C122  1  0.42025970  0.43729364  0.06957130  1  -0.017296  0  -0.072364  -0.147908  0  3.902393  0
C  C123  1  0.98280886  0.56247271  0.43037469  1  -0.019036  0  -0.07388  -0.150558  0  3.904516  0
C  C124  1  0.70423478  0.57082096  0.89285847  1  0.474879  0  0.054603  0.099894  0  3.936671  0
C  C125  1  0.13366807  0.42948225  0.60717973  1  0.44968  0  0.055595  0.101456  0  3.939235  0
C  C126  1  0.29576475  0.42918040  0.10713952  1  0.475511  0  0.054592  0.099879  0  3.936702  0
C  C127  1  0.86633130  0.57052097  0.39281899  1  0.449292  0  0.055637  0.101457  0  3.939184  0
C  C128  1  0.33615685  0.77070919  0.88412879  1  0.495082  0  0.045025  0.099145  0  3.945426  0
C  C129  1  0.56525087  0.22924670  0.61586381  1  0.411029  0  0.045059  0.099681  0  3.946299  0
C  C130  1  0.66384000  0.22928679  0.11587349  1  0.495326  0  0.045133  0.099269  0  3.945188  0
C  C131  1  0.43474722  0.77074739  0.38413682  1  0.411442  0  0.044949  0.099537  0  3.946455  0
C  C132  1  0.45421923  0.88222085  0.91827004  1  -0.062124  0  -0.076923  -0.164461  0  3.939084  0
C  C133  1  0.57185920  0.11781029  0.58174835  1  0.068781  0  -0.07744  -0.165778  0  3.939986  0
C  C134  1  0.54577742  0.11777692  0.08173066  1  -0.062104  0  -0.076866  -0.164348  0  3.939028  0
C  C135  1  0.42814640  0.88218568  0.41825346  1  0.068484  0  -0.077395  -0.165626  0  3.939903  0
C  C136  1  0.43886374  0.93991776  0.98150297  1  0.060082  0  0.017168  0.108494  0  3.973708  0
C  C137  1  0.49894320  0.06005848  0.51846509  1  -0.025237  0  0.017125  0.108725  0  3.973811  0
C  C138  1  0.56113162  0.06008181  0.01849660  1  0.025775  0  0.017152  0.108517  0  3.973576  0
C  C139  1  0.50106879  0.93993931  0.48153607  1  -0.065876  0  0.017002  0.108448  0  3.974005  0
C  C140  1  0.30165108  0.87790211  0.00724258  1  0.017078  0  -0.075221  -0.160008  0  3.923118  0
C  C141  1  0.42386172  0.12200502  0.49263650  1  -0.022  0  -0.074103  -0.158659  0  3.921647  0
C  C142  1  0.69834713  0.12209662  0.99275917  1  0.016674  0  -0.075302  -0.160099  0  3.923096  0
C  C143  1  0.57615195  0.87799175  0.50736176  1  -0.022451  0  -0.074143  -0.158585  0  3.921906  0
C  C144  1  0.18770809  0.76696542  0.96951701  1  0.478427  0  0.050828  0.09671  0  3.970453  0
C  C145  1  0.42077044  0.23285586  0.53033068  1  0.489404  0  0.050375  0.096789  0  3.969436  0
C  C146  1  0.81229171  0.23303428  0.03048626  1  0.478737  0  0.050926  0.096768  0  3.970445  0
C  C147  1  0.57923511  0.76714001  0.46966837  1  0.489814  0  0.050407  0.096813  0  3.969588  0
N  N148  1  0.81200082  0.52355214  0.90074731  1  -1.237607  0  -0.329106  -0.240395  0  3.520579  0
N  N149  1  0.28874116  0.47658249  0.59921314  1  -1.227772  0  -0.329416  -0.241042  0  3.523487  0
N  N150  1  0.18800091  0.47644924  0.09925114  1  -1.238051  0  -0.329058  -0.240412  0  3.520568  0
N  N151  1  0.71125774  0.52341979  0.40078498  1  -1.228117  0  -0.329381  -0.240997  0  3.523549  0
N  N152  1  0.20362317  0.71353975  0.90888318  1  -1.223573  0  -0.325576  -0.245819  0  3.508494  0
N  N153  1  0.48989587  0.28630006  0.59102690  1  -1.224691  0  -0.326081  -0.246857  0  3.506502  0
N  N154  1  0.79637663  0.28645994  0.09112008  1  -1.223682  0  -0.325697  -0.245984  0  3.508445  0
N  N155  1  0.51010130  0.71369218  0.40897347  1  -1.225098  0  -0.326  -0.246803  0  3.506589  0
O  O156  1  0.96941755  0.71060759  0.79302792  1  -1.170299  0  -0.333582  -0.55516  0  2.099929  0
O  O157  1  0.25802493  0.28923019  0.70687853  1  -1.171581  0  -0.332887  -0.55468  0  2.100913  0
O  O158  1  0.03057748  0.28939569  0.20697264  1  -1.170146  0  -0.333618  -0.555162  0  2.099883  0
O  O159  1  0.74196523  0.71076121  0.29312402  1  -1.171447  0  -0.33291  -0.554574  0  2.100951  0
O  O160  1  0.11999921  0.60638517  0.75007157  1  -1.172709  0  -0.334547  -0.583713  0  2.288177  0
O  O161  1  0.51297897  0.39328062  0.74989792  1  -1.174101  0  -0.335127  -0.58472  0  2.287931  0
O  O162  1  0.88000051  0.39362094  0.24993077  1  -1.17286  0  -0.334579  -0.583773  0  2.288257  0
O  O163  1  0.48701759  0.60671699  0.25009816  1  -1.174117  0  -0.335092  -0.584641  0  2.288015  0
O  O164  1  0.17410226  0.88292622  0.53974730  1  -1.104654  0  -0.164569  -0.236793  0  2.597073  0
O  O165  1  0.29117303  0.11722562  0.96027788  1  -1.111042  0  -0.16403  -0.236706  0  2.598358  0
O  O166  1  0.82590512  0.11707330  0.46025089  1  -1.104863  0  -0.164602  -0.236826  0  2.596882  0
O  O167  1  0.70882116  0.88276942  0.03972380  1  -1.110862  0  -0.164022  -0.236686  0  2.598478  0
O  O168  1  0.66979717  0.64384954  0.62989628  1  -1.16931  0  -0.340638  -0.565275  0  2.133641  0
O  O169  1  0.02544325  0.35601312  0.87012824  1  -1.172001  0  -0.340772  -0.565405  0  2.130972  0
O  O170  1  0.33020158  0.35616119  0.37010672  1  -1.169153  0  -0.340645  -0.565289  0  2.133513  0
O  O171  1  0.97455515  0.64398378  0.12987371  1  -1.171977  0  -0.340803  -0.565382  0  2.130992  0
O  O172  1  0.76858628  0.53293003  0.67078077  1  -1.180161  0  -0.324277  -0.575009  0  2.273157  0
O  O173  1  0.23515152  0.46680773  0.82915639  1  -1.18733  0  -0.323842  -0.574063  0  2.271807  0
O  O174  1  0.23141240  0.46707399  0.32921439  1  -1.180118  0  -0.324269  -0.575012  0  2.273089  0
O  O175  1  0.76484371  0.53319378  0.17084621  1  -1.18739  0  -0.323851  -0.574053  0  2.271843  0
O  O176  1  0.81082928  0.40601579  0.75016319  1  -1.237345  0  -0.594055  -0.747067  0  2.039448  0
O  O177  1  0.40501320  0.59369539  0.74987459  1  -1.24008  0  -0.594133  -0.747705  0  2.038165  0
O  O178  1  0.18917041  0.59399024  0.24983684  1  -1.237301  0  -0.594079  -0.747063  0  2.039463  0
O  O179  1  0.59498545  0.40630421  0.25012591  1  -1.240161  0  -0.594144  -0.747699  0  2.038214  0
