# generated using pymatgen
data_HoH30C30(SO3)3
_symmetry_space_group_name_H-M   'P 1'
_cell_length_a   11.77789005
_cell_length_b   11.77782667
_cell_length_c   11.77791126
_cell_angle_alpha   79.79508887
_cell_angle_beta   79.79429411
_cell_angle_gamma   79.79467637
_symmetry_Int_Tables_number   1
_chemical_formula_structural   HoH30C30(SO3)3
_chemical_formula_sum   'Ho2 H60 C60 S6 O18'
_cell_volume   1564.49311709
_cell_formula_units_Z   2
loop_
 _symmetry_equiv_pos_site_id
 _symmetry_equiv_pos_as_xyz
  1  'x, y, z'
loop_
 _atom_site_type_symbol
 _atom_site_label
 _atom_site_symmetry_multiplicity
 _atom_site_fract_x
 _atom_site_fract_y
 _atom_site_fract_z
 _atom_site_occupancy
 _atom_site_hle17_bader_spin_density
 _atom_site_hle17_ddec_charge
 _atom_site_hle17_ddec_spin_density
 _atom_site_hle17_ddec_sum_bond_order
 _atom_site_hle17_magmom
 _atom_site_hse06_10hf_bader_spin_density
 _atom_site_hse06_10hf_ddec_charge
 _atom_site_hse06_10hf_ddec_spin_density
 _atom_site_hse06_10hf_ddec_sum_bond_order
 _atom_site_hse06_10hf_magmom
 _atom_site_hse06_bader_spin_density
 _atom_site_hse06_ddec_charge
 _atom_site_hse06_ddec_spin_density
 _atom_site_hse06_ddec_sum_bond_order
 _atom_site_hse06_magmom
 _atom_site_pbe_bader_spin_density
 _atom_site_pbe_cm5_charge
 _atom_site_pbe_ddec_charge
 _atom_site_pbe_ddec_spin_density
 _atom_site_pbe_ddec_sum_bond_order
 _atom_site_pbe_magmom
Ho  Ho0  1  0.17347589  0.17347948  0.17348348  1  0  2.207081  0  1.685215  0  0  2.070021  0  2.152535  0  0  2.12252  0  2.10408  0  0  1.481155  2.028299  0  2.193528  0
Ho  Ho1  1  0.82651859  0.82651644  0.82652033  1  0  2.20705  0  1.685193  0  0  2.070056  0  2.152446  0  0  2.122487  0  2.104092  0  0  1.481165  2.028324  0  2.193464  0
H  H2  1  0.23571400  0.27582286  0.44320957  1  0  0.116473  0  0.975021  0  0  0.123661  0  1.039189  0  0  0.127679  0  1.036949  0  0  0.10535  0.120725  0  1.0409  0
H  H3  1  0.44321469  0.23569781  0.27582064  1  0  0.116333  0  0.975128  0  0  0.123579  0  1.039236  0  0  0.1276  0  1.03699  0  0  0.105291  0.120644  0  1.040947  0
H  H4  1  0.27582399  0.44320638  0.23571084  1  0  0.116515  0  0.974919  0  0  0.123675  0  1.039126  0  0  0.127699  0  1.036877  0  0  0.105323  0.12074  0  1.040837  0
H  H5  1  0.76428871  0.72417568  0.55679318  1  0  0.116438  0  0.975017  0  0  0.123638  0  1.039172  0  0  0.127658  0  1.036929  0  0  0.105327  0.120703  0  1.040883  0
H  H6  1  0.55678497  0.76429811  0.72418226  1  0  0.116331  0  0.975187  0  0  0.123573  0  1.039291  0  0  0.127593  0  1.037049  0  0  0.105313  0.120639  0  1.041001  0
H  H7  1  0.72417527  0.55679216  0.76429082  1  0  0.116451  0  0.97501  0  0  0.123641  0  1.039176  0  0  0.127662  0  1.036931  0  0  0.105323  0.120706  0  1.040887  0
H  H8  1  0.37397484  0.29226012  0.57116476  1  0  0.086654  0  0.964786  0  0  0.097643  0  1.02572  0  0  0.099641  0  1.026457  0  0  0.097386  0.096191  0  1.025306  0
H  H9  1  0.57116117  0.37396987  0.29224616  1  0  0.08676  0  0.964724  0  0  0.097713  0  1.025688  0  0  0.099718  0  1.026427  0  0  0.097395  0.096261  0  1.025276  0
H  H10  1  0.29226001  0.57116107  0.37397476  1  0  0.086718  0  0.964765  0  0  0.097718  0  1.025672  0  0  0.099723  0  1.026411  0  0  0.097411  0.096264  0  1.025261  0
H  H11  1  0.62602515  0.70773929  0.42883916  1  0  0.0867  0  0.964771  0  0  0.0977  0  1.025688  0  0  0.099704  0  1.026424  0  0  0.097387  0.096247  0  1.025278  0
H  H12  1  0.42883922  0.62602693  0.70775306  1  0  0.086721  0  0.964742  0  0  0.097678  0  1.025705  0  0  0.099684  0  1.026444  0  0  0.097376  0.096226  0  1.025292  0
H  H13  1  0.70774158  0.42883922  0.62602448  1  0  0.086703  0  0.964778  0  0  0.097708  0  1.025683  0  0  0.099716  0  1.026422  0  0  0.097401  0.096255  0  1.025271  0
H  H14  1  0.32476815  0.44095127  0.70707694  1  0  0.084865  0  0.976971  0  0  0.095064  0  1.039939  0  0  0.097554  0  1.039517  0  0  0.09491  0.093263  0  1.040321  0
H  H15  1  0.70707774  0.32477015  0.44093498  1  0  0.084873  0  0.976877  0  0  0.095069  0  1.039865  0  0  0.097563  0  1.039436  0  0  0.094913  0.093268  0  1.040246  0
H  H16  1  0.44094699  0.70707750  0.32477254  1  0  0.084864  0  0.976981  0  0  0.095076  0  1.039929  0  0  0.097566  0  1.039506  0  0  0.094905  0.093275  0  1.04031  0
H  H17  1  0.67523317  0.55905076  0.29292288  1  0  0.084909  0  0.976931  0  0  0.095101  0  1.039898  0  0  0.097593  0  1.039475  0  0  0.094917  0.0933  0  1.040281  0
H  H18  1  0.29292131  0.67522403  0.55906323  1  0  0.084879  0  0.976872  0  0  0.095109  0  1.039812  0  0  0.097604  0  1.039383  0  0  0.094907  0.093308  0  1.040193  0
H  H19  1  0.55905287  0.29292279  0.67522700  1  0  0.084865  0  0.976993  0  0  0.095067  0  1.039957  0  0  0.097558  0  1.039533  0  0  0.094887  0.093265  0  1.04034  0
H  H20  1  0.13968247  0.57773866  0.70810475  1  0  0.087698  0  0.979288  0  0  0.097909  0  1.044182  0  0  0.100724  0  1.043291  0  0  0.098479  0.095805  0  1.045001  0
H  H21  1  0.70810584  0.13968824  0.57772203  1  0  0.08776  0  0.979322  0  0  0.097921  0  1.044251  0  0  0.100745  0  1.043345  0  0  0.098516  0.095817  0  1.045067  0
H  H22  1  0.57773354  0.70810717  0.13968459  1  0  0.08771  0  0.979242  0  0  0.097921  0  1.044147  0  0  0.100736  0  1.043253  0  0  0.098486  0.095816  0  1.044967  0
H  H23  1  0.86032053  0.42226948  0.29189625  1  0  0.087788  0  0.979245  0  0  0.098023  0  1.04411  0  0  0.100796  0  1.043266  0  0  0.098523  0.095919  0  1.044929  0
H  H24  1  0.29190119  0.86031030  0.42227911  1  0  0.087814  0  0.979271  0  0  0.097961  0  1.044231  0  0  0.100793  0  1.043316  0  0  0.098518  0.095858  0  1.045046  0
H  H25  1  0.42226632  0.29189312  0.86031325  1  0  0.087692  0  0.979281  0  0  0.097911  0  1.044168  0  0  0.100725  0  1.043276  0  0  0.098486  0.095807  0  1.044986  0
H  H26  1  0.06375923  0.37831649  0.87012955  1  0  0.158087  0  0.939745  0  0  0.173896  0  1.000496  0  0  0.175713  0  1.000737  0  0  0.108106  0.17251  0  1.000468  0
H  H27  1  0.87012983  0.06375566  0.37831854  1  0  0.158051  0  0.939757  0  0  0.173859  0  1.000516  0  0  0.175675  0  1.000756  0  0  0.108098  0.172473  0  1.000488  0
H  H28  1  0.37831419  0.87012755  0.06375849  1  0  0.158073  0  0.939757  0  0  0.17388  0  1.000515  0  0  0.175697  0  1.000753  0  0  0.108099  0.172494  0  1.000488  0
H  H29  1  0.93624024  0.62168641  0.12986535  1  0  0.158073  0  0.939796  0  0  0.173922  0  1.000493  0  0  0.175739  0  1.000734  0  0  0.108119  0.172537  0  1.000465  0
H  H30  1  0.12987281  0.93623765  0.62168174  1  0  0.15809  0  0.939674  0  0  0.173884  0  1.000442  0  0  0.1757  0  1.000683  0  0  0.1081  0.172499  0  1.000414  0
H  H31  1  0.62168402  0.12987798  0.93623957  1  0  0.158062  0  0.93968  0  0  0.173864  0  1.000443  0  0  0.175681  0  1.000682  0  0  0.108083  0.172478  0  1.000416  0
H  H32  1  0.91909839  0.45795967  0.86414028  1  0  0.169232  0  0.947665  0  0  0.182029  0  1.01349  0  0  0.184158  0  1.013712  0  0  0.108349  0.180403  0  1.01349  0
H  H33  1  0.86414230  0.91909635  0.45796278  1  0  0.169258  0  0.947621  0  0  0.182068  0  1.013438  0  0  0.184197  0  1.01366  0  0  0.108345  0.180445  0  1.013435  0
H  H34  1  0.45796526  0.86413810  0.91909492  1  0  0.169232  0  0.947617  0  0  0.182026  0  1.013476  0  0  0.184156  0  1.013699  0  0  0.108354  0.180402  0  1.013475  0
H  H35  1  0.08090048  0.54204149  0.13585419  1  0  0.169275  0  0.947651  0  0  0.182066  0  1.013481  0  0  0.184195  0  1.013703  0  0  0.108338  0.18044  0  1.013483  0
H  H36  1  0.13585935  0.08089783  0.54203583  1  0  0.16924  0  0.947662  0  0  0.182028  0  1.013511  0  0  0.184157  0  1.013734  0  0  0.108338  0.180403  0  1.01351  0
H  H37  1  0.54203633  0.13586219  0.08090516  1  0  0.169266  0  0.94761  0  0  0.182067  0  1.013439  0  0  0.184198  0  1.013659  0  0  0.108367  0.180442  0  1.013437  0
H  H38  1  0.94428660  0.29988512  0.87263745  1  0  0.144166  0  0.938013  0  0  0.164652  0  0.99043  0  0  0.166775  0  0.989554  0  0  0.104685  0.163064  0  0.991161  0
H  H39  1  0.87263912  0.94428067  0.29988970  1  0  0.144107  0  0.938047  0  0  0.164614  0  0.990461  0  0  0.166734  0  0.989587  0  0  0.104698  0.163027  0  0.991192  0
H  H40  1  0.29988576  0.87263619  0.94428204  1  0  0.144113  0  0.938017  0  0  0.164614  0  0.990424  0  0  0.166734  0  0.989551  0  0  0.104689  0.163026  0  0.991157  0
H  H41  1  0.05571227  0.70011604  0.12735872  1  0  0.144167  0  0.938053  0  0  0.164626  0  0.990508  0  0  0.166746  0  0.989636  0  0  0.104675  0.163039  0  0.99124  0
H  H42  1  0.12736325  0.05571438  0.70010863  1  0  0.144144  0  0.9381  0  0  0.164595  0  0.99056  0  0  0.16671  0  0.989694  0  0  0.10468  0.163007  0  0.991291  0
H  H43  1  0.70011298  0.12736584  0.05571909  1  0  0.144114  0  0.937999  0  0  0.164618  0  0.990395  0  0  0.166739  0  0.98952  0  0  0.104694  0.163031  0  0.991127  0
H  H44  1  0.78102280  0.28134248  0.02854961  1  0  0.143658  0  0.937324  0  0  0.165555  0  0.987498  0  0  0.167705  0  0.986789  0  0  0.105529  0.163983  0  0.988061  0
H  H45  1  0.02855880  0.78102280  0.28133791  1  0  0.143657  0  0.937288  0  0  0.165599  0  0.987423  0  0  0.167752  0  0.986709  0  0  0.105534  0.164027  0  0.987987  0
H  H46  1  0.28133283  0.02855292  0.78102904  1  0  0.143601  0  0.937283  0  0  0.165515  0  0.987446  0  0  0.167668  0  0.986734  0  0  0.105504  0.163942  0  0.98801  0
H  H47  1  0.21897520  0.71865868  0.97144331  1  0  0.143606  0  0.937338  0  0  0.165552  0  0.987456  0  0  0.167702  0  0.986747  0  0  0.105528  0.163979  0  0.98802  0
H  H48  1  0.97144564  0.21897575  0.71865689  1  0  0.143691  0  0.937249  0  0  0.165609  0  0.98739  0  0  0.16776  0  0.98668  0  0  0.105549  0.164036  0  0.987952  0
H  H49  1  0.71866810  0.97145172  0.21897378  1  0  0.143623  0  0.937266  0  0  0.165522  0  0.987443  0  0  0.167674  0  0.986731  0  0  0.105485  0.163947  0  0.988009  0
H  H50  1  0.74707439  0.43080616  0.05777776  1  0  0.155386  0  0.976521  0  0  0.168578  0  1.041362  0  0  0.170164  0  1.042308  0  0  0.1029  0.167325  0  1.040852  0
H  H51  1  0.05778258  0.74707381  0.43080055  1  0  0.15537  0  0.976606  0  0  0.168547  0  1.04146  0  0  0.170125  0  1.042414  0  0  0.102869  0.167295  0  1.040951  0
H  H52  1  0.43079409  0.05778105  0.74707844  1  0  0.155318  0  0.976737  0  0  0.168499  0  1.041571  0  0  0.170082  0  1.042526  0  0  0.102867  0.167246  0  1.04106  0
H  H53  1  0.25292435  0.56919587  0.94221743  1  0  0.155363  0  0.976593  0  0  0.168542  0  1.041434  0  0  0.170131  0  1.04238  0  0  0.102882  0.167288  0  1.040925  0
H  H54  1  0.94222239  0.25292124  0.56919137  1  0  0.155467  0  0.976495  0  0  0.168564  0  1.04142  0  0  0.170157  0  1.042365  0  0  0.102905  0.16731  0  1.040911  0
H  H55  1  0.56920292  0.94222098  0.25292639  1  0  0.155322  0  0.976663  0  0  0.168454  0  1.041547  0  0  0.170052  0  1.042487  0  0  0.102832  0.167202  0  1.041038  0
H  H56  1  0.77503994  0.31220306  0.17413262  1  0  0.148994  0  0.93465  0  0  0.168495  0  0.989566  0  0  0.170025  0  0.989566  0  0  0.107316  0.167339  0  0.98965  0
H  H57  1  0.17414351  0.77504389  0.31219936  1  0  0.148944  0  0.934753  0  0  0.168435  0  0.989675  0  0  0.169962  0  0.98968  0  0  0.107286  0.16728  0  0.98976  0
H  H58  1  0.31219415  0.17413624  0.77504985  1  0  0.148964  0  0.934633  0  0  0.168427  0  0.989605  0  0  0.169955  0  0.989609  0  0  0.107296  0.167271  0  0.989689  0
H  H59  1  0.22495595  0.68780072  0.82586022  1  0  0.148931  0  0.934645  0  0  0.168365  0  0.989651  0  0  0.169891  0  0.989661  0  0  0.107268  0.16721  0  0.989736  0
H  H60  1  0.82585908  0.22495553  0.68779561  1  0  0.148908  0  0.934737  0  0  0.16842  0  0.989631  0  0  0.16995  0  0.989636  0  0  0.107287  0.167264  0  0.989715  0
H  H61  1  0.68780757  0.82586317  0.22495206  1  0  0.148914  0  0.934618  0  0  0.168409  0  0.989542  0  0  0.169939  0  0.989544  0  0  0.107292  0.167255  0  0.989626  0
C  C62  1  0.05307238  0.32434922  0.34375864  1  0  0.658581  0  3.95267  0  0  0.610717  0  4.254681  0  0  0.644363  0  4.244259  0  0  0.197427  0.587992  0  4.260596  0
C  C63  1  0.34376548  0.05305423  0.32435190  1  0  0.65916  0  3.952438  0  0  0.611205  0  4.25451  0  0  0.644851  0  4.244088  0  0  0.197581  0.588481  0  4.260432  0
C  C64  1  0.32434403  0.34376003  0.05306791  1  0  0.658955  0  3.952219  0  0  0.611042  0  4.254277  0  0  0.644689  0  4.243855  0  0  0.197673  0.588318  0  4.260194  0
C  C65  1  0.94693279  0.67565020  0.65623672  1  0  0.658925  0  3.952227  0  0  0.611026  0  4.254312  0  0  0.64467  0  4.243886  0  0  0.197578  0.588302  0  4.260229  0
C  C66  1  0.65623590  0.94694170  0.67565494  1  0  0.659471  0  3.952023  0  0  0.611464  0  4.254198  0  0  0.645114  0  4.24376  0  0  0.197704  0.588739  0  4.260121  0
C  C67  1  0.67564940  0.65624288  0.94693485  1  0  0.658744  0  3.952644  0  0  0.61091  0  4.254577  0  0  0.644554  0  4.244152  0  0  0.197517  0.588186  0  4.260493  0
C  C68  1  0.02621876  0.41400288  0.42510699  1  0  -0.124714  0  3.681034  0  0  -0.112791  0  3.917296  0  0  -0.116444  0  3.934171  0  0  -0.010452  -0.11069  0  3.906162  0
C  C69  1  0.42510441  0.02621360  0.41400891  1  0  -0.124856  0  3.681133  0  0  -0.112766  0  3.917316  0  0  -0.116422  0  3.934199  0  0  -0.010597  -0.110668  0  3.906185  0
C  C70  1  0.41400944  0.42510122  0.02621825  1  0  -0.124771  0  3.680919  0  0  -0.112785  0  3.917172  0  0  -0.116437  0  3.934049  0  0  -0.010554  -0.110686  0  3.906038  0
C  C71  1  0.97378129  0.58599043  0.57489291  1  0  -0.124686  0  3.680971  0  0  -0.112769  0  3.917288  0  0  -0.116423  0  3.934165  0  0  -0.01048  -0.110669  0  3.906158  0
C  C72  1  0.57489783  0.97378233  0.58599607  1  0  -0.12498  0  3.680951  0  0  -0.112959  0  3.917236  0  0  -0.116614  0  3.934109  0  0  -0.010554  -0.110859  0  3.906105  0
C  C73  1  0.58599413  0.57489732  0.97378095  1  0  -0.124754  0  3.681021  0  0  -0.112778  0  3.917238  0  0  -0.116429  0  3.934112  0  0  -0.010497  -0.110679  0  3.906105  0
C  C74  1  0.10655485  0.42022368  0.49859383  1  0  0.040739  0  3.770154  0  0  0.049087  0  4.001393  0  0  0.049239  0  4.024997  0  0  -0.006478  0.048994  0  3.985495  0
C  C75  1  0.49859683  0.10654951  0.42021898  1  0  0.040786  0  3.769761  0  0  0.048976  0  4.001209  0  0  0.049129  0  4.024811  0  0  -0.006441  0.048887  0  3.985309  0
C  C76  1  0.42022104  0.49859437  0.10655399  1  0  0.040707  0  3.770051  0  0  0.048986  0  4.001358  0  0  0.049137  0  4.024962  0  0  -0.006476  0.048896  0  3.985457  0
C  C77  1  0.89344661  0.57977748  0.50140443  1  0  0.040642  0  3.770066  0  0  0.04897  0  4.00134  0  0  0.04912  0  4.024947  0  0  -0.006503  0.048873  0  3.985451  0
C  C78  1  0.50140541  0.89344641  0.57978176  1  0  0.040779  0  3.769989  0  0  0.049072  0  4.001319  0  0  0.049225  0  4.024921  0  0  -0.00645  0.048982  0  3.98542  0
C  C79  1  0.57977571  0.50140941  0.89344633  1  0  0.040691  0  3.770093  0  0  0.048977  0  4.001388  0  0  0.04913  0  4.024989  0  0  -0.006502  0.048887  0  3.985488  0
C  C80  1  0.21432734  0.34230117  0.50061280  1  0  -0.109161  0  3.703988  0  0  -0.127392  0  3.952496  0  0  -0.129957  0  3.972564  0  0  -0.089697  -0.125614  0  3.93898  0
C  C81  1  0.50061269  0.21431619  0.34229357  1  0  -0.10896  0  3.704026  0  0  -0.127237  0  3.952603  0  0  -0.129802  0  3.97267  0  0  -0.08968  -0.125461  0  3.939086  0
C  C82  1  0.34230170  0.50061209  0.21432771  1  0  -0.109139  0  3.703938  0  0  -0.127343  0  3.95247  0  0  -0.12991  0  3.97254  0  0  -0.089668  -0.125564  0  3.938953  0
C  C83  1  0.78567300  0.65770173  0.49938790  1  0  -0.109013  0  3.703854  0  0  -0.127235  0  3.952343  0  0  -0.129802  0  3.972412  0  0  -0.089634  -0.125457  0  3.938829  0
C  C84  1  0.49939076  0.78568322  0.65770634  1  0  -0.108969  0  3.704076  0  0  -0.12726  0  3.952629  0  0  -0.129829  0  3.972702  0  0  -0.089697  -0.125484  0  3.939113  0
C  C85  1  0.65769803  0.49938907  0.78567425  1  0  -0.109085  0  3.703976  0  0  -0.127306  0  3.952503  0  0  -0.129875  0  3.972575  0  0  -0.089665  -0.125531  0  3.938987  0
C  C86  1  0.29091937  0.35068915  0.57321953  1  0  -0.081667  0  3.790307  0  0  -0.093995  0  4.03974  0  0  -0.095954  0  4.061261  0  0  -0.097094  -0.092602  0  4.025025  0
C  C87  1  0.57321078  0.29091454  0.35068364  1  0  -0.08184  0  3.790383  0  0  -0.094114  0  4.039805  0  0  -0.096085  0  4.061336  0  0  -0.097087  -0.092721  0  4.025091  0
C  C88  1  0.35068578  0.57322270  0.29091691  1  0  -0.081794  0  3.790384  0  0  -0.094123  0  4.039802  0  0  -0.096093  0  4.061333  0  0  -0.097129  -0.092731  0  4.02509  0
C  C89  1  0.70908182  0.64931375  0.42678186  1  0  -0.081775  0  3.790378  0  0  -0.094123  0  4.039807  0  0  -0.096088  0  4.061334  0  0  -0.097098  -0.09273  0  4.025094  0
C  C90  1  0.42678947  0.70908313  0.64931884  1  0  -0.081774  0  3.790116  0  0  -0.094059  0  4.039544  0  0  -0.09603  0  4.061076  0  0  -0.097063  -0.092666  0  4.024833  0
C  C91  1  0.64931244  0.42678282  0.70908115  1  0  -0.08171  0  3.790364  0  0  -0.094045  0  4.039768  0  0  -0.096019  0  4.061304  0  0  -0.097087  -0.092653  0  4.025056  0
C  C92  1  0.26360586  0.43604641  0.64933306  1  0  -0.071099  0  3.789966  0  0  -0.084033  0  4.036242  0  0  -0.084539  0  4.055499  0  0  -0.09601  -0.083563  0  4.023044  0
C  C93  1  0.64932905  0.26360230  0.43604145  1  0  -0.071154  0  3.789929  0  0  -0.084084  0  4.036178  0  0  -0.08459  0  4.055437  0  0  -0.096009  -0.083613  0  4.022981  0
C  C94  1  0.43604633  0.64933271  0.26360781  1  0  -0.071096  0  3.789889  0  0  -0.084042  0  4.036179  0  0  -0.084544  0  4.055428  0  0  -0.095986  -0.083571  0  4.022983  0
C  C95  1  0.73639500  0.56395300  0.35067156  1  0  -0.071131  0  3.789838  0  0  -0.084049  0  4.036119  0  0  -0.084554  0  4.055359  0  0  -0.095978  -0.083579  0  4.022922  0
C  C96  1  0.35066736  0.73639799  0.56396125  1  0  -0.07123  0  3.789782  0  0  -0.084181  0  4.036037  0  0  -0.084686  0  4.055292  0  0  -0.096029  -0.083709  0  4.022841  0
C  C97  1  0.56395115  0.35067195  0.73638968  1  0  -0.071158  0  3.790074  0  0  -0.084101  0  4.03636  0  0  -0.084607  0  4.055615  0  0  -0.095978  -0.083631  0  4.023163  0
C  C98  1  0.16070533  0.51205819  0.65004318  1  0  -0.126234  0  3.771034  0  0  -0.142614  0  4.019178  0  0  -0.145338  0  4.039389  0  0  -0.096571  -0.140732  0  4.005579  0
C  C99  1  0.65004637  0.16070508  0.51204950  1  0  -0.126221  0  3.771209  0  0  -0.142544  0  4.019344  0  0  -0.145276  0  4.039556  0  0  -0.096617  -0.140663  0  4.005747  0
C  C100  1  0.51205037  0.65004777  0.16070235  1  0  -0.12621  0  3.770891  0  0  -0.142577  0  4.019025  0  0  -0.145302  0  4.039237  0  0  -0.096593  -0.140695  0  4.005426  0
C  C101  1  0.83930284  0.48794994  0.34995436  1  0  -0.126352  0  3.770894  0  0  -0.142751  0  4.019041  0  0  -0.145444  0  4.039272  0  0  -0.096643  -0.140868  0  4.005439  0
C  C102  1  0.34995932  0.83929084  0.48795233  1  0  -0.126183  0  3.771138  0  0  -0.142512  0  4.019281  0  0  -0.14525  0  4.039487  0  0  -0.096573  -0.140631  0  4.005684  0
C  C103  1  0.48794552  0.34995601  0.83929389  1  0  -0.126173  0  3.770989  0  0  -0.142546  0  4.019112  0  0  -0.145269  0  4.039327  0  0  -0.096592  -0.140665  0  4.005513  0
C  C104  1  0.07920018  0.50789138  0.57503376  1  0  0.036103  0  3.788733  0  0  0.043339  0  4.020014  0  0  0.043406  0  4.043919  0  0  -0.0094  0.043314  0  4.003911  0
C  C105  1  0.57504362  0.07919803  0.50788939  1  0  0.036164  0  3.788449  0  0  0.043416  0  4.019731  0  0  0.043483  0  4.043635  0  0  -0.009334  0.043391  0  4.003631  0
C  C106  1  0.50789034  0.57503521  0.07919930  1  0  0.036154  0  3.788539  0  0  0.043367  0  4.019837  0  0  0.043433  0  4.043739  0  0  -0.009379  0.043342  0  4.003737  0
C  C107  1  0.92080679  0.49211327  0.42496460  1  0  0.036227  0  3.788501  0  0  0.043459  0  4.019776  0  0  0.043527  0  4.043668  0  0  -0.009402  0.043436  0  4.003675  0
C  C108  1  0.42496208  0.92079789  0.49211159  1  0  0.036136  0  3.788788  0  0  0.043352  0  4.020023  0  0  0.043419  0  4.043927  0  0  -0.009347  0.043326  0  4.003924  0
C  C109  1  0.49210926  0.42496682  0.92079998  1  0  0.036177  0  3.788581  0  0  0.043401  0  4.019848  0  0  0.043467  0  4.043749  0  0  -0.009344  0.043376  0  4.003747  0
C  C110  1  0.97031962  0.37552624  0.89818824  1  0  -0.441204  0  3.560614  0  0  -0.513155  0  3.80919  0  0  -0.517442  0  3.814737  0  0  -0.228451  -0.509971  0  3.805561  0
C  C111  1  0.89818511  0.97031593  0.37553059  1  0  -0.441095  0  3.560484  0  0  -0.513093  0  3.809097  0  0  -0.517376  0  3.814645  0  0  -0.228457  -0.509912  0  3.80547  0
C  C112  1  0.37552833  0.89818421  0.97031787  1  0  -0.44109  0  3.560529  0  0  -0.513065  0  3.809097  0  0  -0.51735  0  3.814648  0  0  -0.228427  -0.509883  0  3.805472  0
C  C113  1  0.02967852  0.62447405  0.10181245  1  0  -0.441226  0  3.560574  0  0  -0.513211  0  3.809171  0  0  -0.517498  0  3.814722  0  0  -0.228459  -0.51003  0  3.805545  0
C  C114  1  0.10181135  0.02967826  0.62446978  1  0  -0.441186  0  3.560518  0  0  -0.51309  0  3.809095  0  0  -0.517377  0  3.814647  0  0  -0.228452  -0.509909  0  3.805469  0
C  C115  1  0.62447213  0.10181782  0.02968295  1  0  -0.441094  0  3.560528  0  0  -0.51306  0  3.809114  0  0  -0.517346  0  3.81466  0  0  -0.228394  -0.509879  0  3.805489  0
C  C116  1  0.79628454  0.34396002  0.08075733  1  0  -0.425462  0  3.55726  0  0  -0.494708  0  3.798593  0  0  -0.498591  0  3.803823  0  0  -0.228593  -0.49181  0  3.795174  0
C  C117  1  0.08076729  0.79628363  0.34395624  1  0  -0.425378  0  3.557396  0  0  -0.494644  0  3.798759  0  0  -0.498525  0  3.804008  0  0  -0.228525  -0.491747  0  3.795343  0
C  C118  1  0.34395169  0.08076084  0.79629337  1  0  -0.425278  0  3.557357  0  0  -0.494491  0  3.798721  0  0  -0.498368  0  3.803934  0  0  -0.228526  -0.491592  0  3.795301  0
C  C119  1  0.20371101  0.65604027  0.91923533  1  0  -0.425318  0  3.557339  0  0  -0.494529  0  3.798687  0  0  -0.498411  0  3.803905  0  0  -0.228531  -0.491631  0  3.795269  0
C  C120  1  0.91923695  0.20371055  0.65603852  1  0  -0.425502  0  3.557359  0  0  -0.494674  0  3.798707  0  0  -0.498563  0  3.803919  0  0  -0.228579  -0.491775  0  3.795287  0
C  C121  1  0.65604877  0.91924119  0.20371424  1  0  -0.425262  0  3.557259  0  0  -0.494433  0  3.798606  0  0  -0.498334  0  3.803832  0  0  -0.228451  -0.491534  0  3.795187  0
S  S122  1  0.94773732  0.35847906  0.05424469  1  0  0.75415  0  3.600322  0  0  0.729946  0  4.049895  0  0  0.746415  0  4.04548  0  0  0.318684  0.718218  0  4.052486  0
S  S123  1  0.05424753  0.94773816  0.35847495  1  0  0.754031  0  3.600044  0  0  0.72986  0  4.049615  0  0  0.746328  0  4.045203  0  0  0.318643  0.718134  0  4.05221  0
S  S124  1  0.35847190  0.05424405  0.94774735  1  0  0.754124  0  3.600141  0  0  0.7299  0  4.049717  0  0  0.746367  0  4.045307  0  0  0.318671  0.718174  0  4.052309  0
S  S125  1  0.05225511  0.64152472  0.94574960  1  0  0.754092  0  3.600171  0  0  0.729899  0  4.049739  0  0  0.746367  0  4.045324  0  0  0.318657  0.718174  0  4.052327  0
S  S126  1  0.94575226  0.05225690  0.64152129  1  0  0.754151  0  3.600378  0  0  0.729941  0  4.04991  0  0  0.746412  0  4.045495  0  0  0.318685  0.718215  0  4.0525  0
S  S127  1  0.64152498  0.94575886  0.05226415  1  0  0.75409  0  3.600471  0  0  0.729865  0  4.050038  0  0  0.746329  0  4.045626  0  0  0.318632  0.718138  0  4.052631  0
O  O128  1  0.12286087  0.34871439  0.24885915  1  0  -0.732746  0  2.05748  0  0  -0.682779  0  2.310822  0  0  -0.709728  0  2.303234  0  0  -0.400605  -0.663304  0  2.315267  0
O  O129  1  0.24886564  0.12284502  0.34869976  1  0  -0.732875  0  2.057504  0  0  -0.682956  0  2.311032  0  0  -0.709907  0  2.303444  0  0  -0.400599  -0.663484  0  2.315484  0
O  O130  1  0.34870694  0.24885764  0.12285736  1  0  -0.7329  0  2.057308  0  0  -0.682846  0  2.310571  0  0  -0.709801  0  2.302984  0  0  -0.400681  -0.663375  0  2.31502  0
O  O131  1  0.87714126  0.65129375  0.75113605  1  0  -0.732813  0  2.057351  0  0  -0.682867  0  2.310762  0  0  -0.709807  0  2.303174  0  0  -0.400672  -0.663391  0  2.315211  0
O  O132  1  0.75113428  0.87714916  0.65130001  1  0  -0.733012  0  2.057253  0  0  -0.68306  0  2.310779  0  0  -0.71  0  2.303185  0  0  -0.400702  -0.663586  0  2.315234  0
O  O133  1  0.65128887  0.75114090  0.87714151  1  0  -0.732694  0  2.057219  0  0  -0.68277  0  2.310566  0  0  -0.709713  0  2.302985  0  0  -0.400613  -0.663296  0  2.315013  0
O  O134  1  0.00812904  0.23175549  0.36924448  1  0  -0.657388  0  1.903941  0  0  -0.613437  0  2.13381  0  0  -0.636362  0  2.125436  0  0  -0.328909  -0.596873  0  2.138854  0
O  O135  1  0.36925020  0.00809086  0.23176598  1  0  -0.657755  0  1.903705  0  0  -0.6138  0  2.133639  0  0  -0.636728  0  2.12527  0  0  -0.329022  -0.597233  0  2.138684  0
O  O136  1  0.23175385  0.36924804  0.00811901  1  0  -0.65753  0  1.903778  0  0  -0.613637  0  2.133764  0  0  -0.636564  0  2.125393  0  0  -0.328997  -0.597072  0  2.138808  0
O  O137  1  0.99188144  0.76824306  0.63075009  1  0  -0.657585  0  1.90378  0  0  -0.613624  0  2.133677  0  0  -0.636545  0  2.125299  0  0  -0.328976  -0.597058  0  2.138721  0
O  O138  1  0.63074997  0.99190157  0.76824084  1  0  -0.657788  0  1.903706  0  0  -0.613829  0  2.133694  0  0  -0.636756  0  2.125319  0  0  -0.329042  -0.597261  0  2.138739  0
O  O139  1  0.76823435  0.63076098  0.99188955  1  0  -0.657492  0  1.903986  0  0  -0.613604  0  2.133938  0  0  -0.636526  0  2.125562  0  0  -0.32895  -0.597037  0  2.13898  0
O  O140  1  0.00828498  0.23508777  0.09290139  1  0  -0.750908  0  1.993618  0  0  -0.695732  0  2.270521  0  0  -0.716766  0  2.259046  0  0  -0.450591  -0.680126  0  2.277757  0
O  O141  1  0.09289954  0.00829074  0.23508219  1  0  -0.750802  0  1.993429  0  0  -0.69565  0  2.270368  0  0  -0.716679  0  2.258887  0  0  -0.450559  -0.680045  0  2.277607  0
O  O142  1  0.23508134  0.09290024  0.00829602  1  0  -0.750939  0  1.993601  0  0  -0.695715  0  2.270465  0  0  -0.716752  0  2.258996  0  0  -0.450599  -0.680109  0  2.277701  0
O  O143  1  0.99170905  0.76491688  0.90709587  1  0  -0.750841  0  1.993582  0  0  -0.69565  0  2.270464  0  0  -0.716672  0  2.258989  0  0  -0.450536  -0.680043  0  2.2777  0
O  O144  1  0.90709986  0.99170694  0.76491365  1  0  -0.750888  0  1.993544  0  0  -0.695718  0  2.270458  0  0  -0.716735  0  2.258978  0  0  -0.450574  -0.68011  0  2.277696  0
O  O145  1  0.76491235  0.90710092  0.99171040  1  0  -0.750946  0  1.993686  0  0  -0.695767  0  2.270596  0  0  -0.716783  0  2.259117  0  0  -0.450605  -0.68016  0  2.277836  0
