# generated using pymatgen
data_AlH5C14Cl2O5F
_symmetry_space_group_name_H-M   'P 1'
_cell_length_a   6.60654526
_cell_length_b   11.15480961
_cell_length_c   17.73517000
_cell_angle_alpha   85.03473662
_cell_angle_beta   79.76880277
_cell_angle_gamma   71.85071040
_symmetry_Int_Tables_number   1
_chemical_formula_structural   AlH5C14Cl2O5F
_chemical_formula_sum   'Al2 H10 C28 Cl4 O10 F2'
_cell_volume   1221.53391946
_cell_formula_units_Z   2
loop_
 _symmetry_equiv_pos_site_id
 _symmetry_equiv_pos_as_xyz
  1  'x, y, z'
loop_
 _atom_site_type_symbol
 _atom_site_label
 _atom_site_symmetry_multiplicity
 _atom_site_fract_x
 _atom_site_fract_y
 _atom_site_fract_z
 _atom_site_occupancy
 _atom_site_pbe_bader_charge
 _atom_site_pbe_bader_spin_density
 _atom_site_pbe_cm5_charge
 _atom_site_pbe_ddec_charge
 _atom_site_pbe_ddec_spin_density
 _atom_site_pbe_ddec_sum_bond_order
 _atom_site_pbe_magmom
Al  Al0  1  0.50202368  0.49933914  0.50079494  1  2.502428  0  0.390237  1.643626  0  2.569735  0
Al  Al1  1  0.00418235  0.49562141  0.50123247  1  2.501262  0  0.391773  1.638668  0  2.572841  0
H  H2  1  0.31106673  0.34925702  0.55079908  1  0.628101  0  0.335641  0.41452  0  0.891851  0
H  H3  1  0.70268169  0.64961480  0.45935220  1  0.595205  0  0.343465  0.419802  0  0.8795  0
H  H4  1  0.64679064  0.54772609  0.27156290  1  0.093451  0  0.107545  0.116036  0  1.009984  0
H  H5  1  0.72132534  0.55212819  0.12802070  1  0.12042  0  0.107455  0.117409  0  1.002956  0
H  H6  1  0.06276593  0.45494359  0.26722567  1  0.151875  0  0.118584  0.148421  0  0.983653  0
H  H7  1  0.92936773  0.55466439  0.73443466  1  0.137108  0  0.117913  0.146776  0  0.989155  0
H  H8  1  0.34918098  0.45810537  0.72964501  1  0.095943  0  0.11075  0.121433  0  0.995514  0
H  H9  1  0.26635322  0.46176842  0.87312778  1  0.117661  0  0.10788  0.117233  0  1.002369  0
H  H10  1  0.20149613  0.22943277  0.38928050  1  0.103454  0  0.114066  0.138405  0  1.010736  0
H  H11  1  0.42495617  0.75974909  0.39797833  1  0.104013  0  0.113781  0.130353  0  1.029379  0
C  C12  1  0.86203175  0.27277426  0.49234801  1  1.584352  0  0.271988  0.659123  0  4.0973  0
C  C13  1  0.69496749  0.50005990  0.63860894  1  1.540465  0  0.263673  0.632059  0  4.105352  0
C  C14  1  0.13914951  0.72343723  0.50693619  1  1.622533  0  0.272382  0.663808  0  4.092658  0
C  C15  1  0.30702240  0.49877128  0.36302162  1  1.565663  0  0.264547  0.631486  0  4.098155  0
C  C16  1  0.35157830  0.50117768  0.27785149  1  -0.00911  0  -0.01592  -0.023471  0  3.999503  0
C  C17  1  0.53674293  0.52864846  0.23855458  1  0.039353  0  -0.086197  -0.108142  0  3.989839  0
C  C18  1  0.57753069  0.53165111  0.15906605  1  -0.125404  0  -0.074364  -0.094173  0  3.930612  0
C  C19  1  0.43428041  0.50688838  0.11635999  1  0.126475  0  -0.000878  0.039173  0  4.113776  0
C  C20  1  0.25010728  0.47954030  0.15787593  1  0.344345  0  0.106146  0.246802  0  4.024446  0
C  C21  1  0.20647266  0.47644611  0.23697595  1  0.094484  0  -0.092435  -0.224644  0  3.992906  0
C  C22  1  0.47347760  0.50864342  0.03559323  1  0.207849  0  -0.034155  -0.076055  0  4.11118  0
C  C23  1  0.50980853  0.50958516  0.96569267  1  -0.420217  0  -0.032902  -0.071856  0  4.110738  0
C  C24  1  0.55146570  0.50896363  0.88496741  1  0.113833  0  8.2e-05  0.039987  0  4.114762  0
C  C25  1  0.73644892  0.53555334  0.84359549  1  0.373092  0  0.107193  0.246778  0  4.024454  0
C  C26  1  0.78480767  0.53396791  0.76457649  1  0.099495  0  -0.090738  -0.221123  0  3.97873  0
C  C27  1  0.64358478  0.50516795  0.72366786  1  -0.02197  0  -0.012437  -0.015374  0  3.979438  0
C  C28  1  0.45658057  0.47962135  0.76281798  1  -0.012449  0  -0.084273  -0.106173  0  3.985924  0
C  C29  1  0.41117333  0.48120593  0.84220147  1  0.003161  0  -0.074286  -0.096638  0  3.935158  0
C  C30  1  0.93194758  0.13133286  0.49399769  1  0.154338  0  -0.00747  -0.123432  0  3.921495  0
C  C31  1  0.12305403  0.06396236  0.44530499  1  0.029006  0  0.002192  0.077357  0  3.973752  0
C  C32  1  0.81349797  0.06682178  0.54460346  1  0.117924  0  0.015793  0.066721  0  4.030478  0
C  C33  1  0.24855067  0.12675117  0.39303252  1  0.092065  0  -0.089246  -0.179059  0  3.920112  0
C  C34  1  0.43419015  0.05980423  0.34706998  1  -0.011507  0  0.010959  0.093973  0  4.059944  0
C  C35  1  0.06579950  0.86486082  0.50207264  1  0.101056  0  -0.008735  -0.125319  0  3.919142  0
C  C36  1  0.88140686  0.93241451  0.54905932  1  -0.023796  0  0.015843  0.066249  0  4.045577  0
C  C37  1  0.18957986  0.92871511  0.44889876  1  -0.016049  0  0.002145  0.080997  0  3.972294  0
C  C38  1  0.37627161  0.86231178  0.39888406  1  0.086215  0  -0.094435  -0.191692  0  3.942809  0
C  C39  1  0.49874133  0.92539291  0.34996213  1  0.073645  0  0.010305  0.093662  0  4.062825  0
Cl  Cl40  1  0.73869854  0.85551797  0.61574708  1  -0.162782  0  0.019271  -0.029204  0  1.56803  0
Cl  Cl41  1  0.59022881  0.14686472  0.60723417  1  -0.165479  0  0.027976  -0.033935  0  1.587363  0
Cl  Cl42  1  0.58516077  0.13989984  0.28634832  1  -0.177386  0  0.002676  -0.054241  0  1.503497  0
Cl  Cl43  1  0.72939975  0.83978380  0.29301019  1  -0.187804  0  0.001573  -0.05596  0  1.490582  0
O  O44  1  0.67629987  0.32982819  0.47593380  1  -1.25707  0  -0.227634  -0.576861  0  2.346159  0
O  O45  1  0.87145537  0.51911446  0.60650798  1  -1.259641  0  -0.238421  -0.590602  0  2.355438  0
O  O46  1  0.01096668  0.66776769  0.49196368  1  -1.256066  0  -0.227184  -0.590795  0  2.376461  0
O  O47  1  0.43820346  0.52795135  0.39759257  1  -1.267497  0  -0.239375  -0.599408  0  2.367055  0
O  O48  1  0.32705131  0.67025883  0.52302853  1  -1.253036  0  -0.228539  -0.573745  0  2.319185  0
O  O49  1  0.13904957  0.47007294  0.39561064  1  -1.265078  0  -0.237461  -0.585518  0  2.340954  0
O  O50  1  0.99503492  0.32437263  0.50838197  1  -1.254869  0  -0.225387  -0.578149  0  2.336863  0
O  O51  1  0.56024420  0.47462963  0.60410982  1  -1.266704  0  -0.240293  -0.60758  0  2.386058  0
O  O52  1  0.27042422  0.43726643  0.53351375  1  -1.432868  0  -0.450366  -0.987391  0  2.215296  0
O  O53  1  0.73735207  0.55887663  0.46816065  1  -1.398965  0  -0.45102  -0.987662  0  2.197359  0
F  F54  1  0.11042685  0.45516855  0.11782036  1  -0.635999  0  -0.09449  -0.14053  0  1.350908  0
F  F55  1  0.87285532  0.56325015  0.88371223  1  -0.638523  0  -0.095194  -0.142123  0  1.348523  0
