# generated using pymatgen
data_CoH16(C4N)4
_symmetry_space_group_name_H-M   'P 1'
_cell_length_a   7.12521111
_cell_length_b   18.56023537
_cell_length_c   18.56012012
_cell_angle_alpha   90.00005065
_cell_angle_beta   90.00006751
_cell_angle_gamma   90.00012048
_symmetry_Int_Tables_number   1
_chemical_formula_structural   CoH16(C4N)4
_chemical_formula_sum   'Co4 H64 C64 N16'
_cell_volume   2454.49413389
_cell_formula_units_Z   4
loop_
 _symmetry_equiv_pos_site_id
 _symmetry_equiv_pos_as_xyz
  1  'x, y, z'
loop_
 _atom_site_type_symbol
 _atom_site_label
 _atom_site_symmetry_multiplicity
 _atom_site_fract_x
 _atom_site_fract_y
 _atom_site_fract_z
 _atom_site_occupancy
 _atom_site_pbe_bader_charge
 _atom_site_pbe_bader_spin_density
 _atom_site_pbe_cm5_charge
 _atom_site_pbe_ddec_charge
 _atom_site_pbe_ddec_spin_density
 _atom_site_pbe_ddec_sum_bond_order
 _atom_site_pbe_magmom
Co  Co0  1  0.75000063  0.25000070  0.74999974  1  1.123208  2.474979  0.725268  0.640016  2.721289  2.762767  2.407
Co  Co1  1  0.24999920  0.74999986  0.25000093  1  1.123209  2.474977  0.725258  0.640037  2.721287  2.762751  2.407
Co  Co2  1  0.74999842  0.74999899  0.25000050  1  1.123654  2.474975  0.725243  0.639977  2.721301  2.762701  2.407
Co  Co3  1  0.25000282  0.24999996  0.75000070  1  1.12319  2.474976  0.72531  0.640135  2.721284  2.762629  2.407
H  H4  1  0.93599259  0.39241219  0.67594914  1  0.07788  0.001879  0.091796  0.126844  0.000793  1.041849  0.001
H  H5  1  0.81101120  0.47079530  0.64849566  1  0.02497  0.000486  0.093274  0.133988  0.000104  1.005607  0.0
H  H6  1  0.79972737  0.43962547  0.73933126  1  0.061304  0.001609  0.097381  0.14334  0.000491  0.984166  0.001
H  H7  1  0.22115913  0.48414022  0.57860697  1  0.044945  0.000116  0.099173  0.10163  -3e-06  1.005056  0.0
H  H8  1  0.93598783  0.10759260  0.82405043  1  0.077515  0.001881  0.091796  0.126858  0.000793  1.041918  0.001
H  H9  1  0.81100891  0.02920777  0.85150439  1  0.02504  0.000486  0.093319  0.134079  0.000104  1.005578  0.0
H  H10  1  0.79971797  0.06037813  0.76066878  1  0.061328  0.001609  0.097408  0.143373  0.000491  0.984201  0.001
H  H11  1  0.22116260  0.01586021  0.92139388  1  0.044999  0.000116  0.099193  0.101674  -3e-06  1.005053  0.0
H  H12  1  0.43598989  0.82405294  0.39241064  1  0.077508  0.001881  0.091775  0.126802  0.000793  1.041876  0.001
H  H13  1  0.31101273  0.85150624  0.47079481  1  0.024944  0.000486  0.093289  0.134008  0.000104  1.005584  0.0
H  H14  1  0.29972435  0.76067171  0.43962418  1  0.061401  0.001609  0.097431  0.143401  0.000491  0.984127  0.001
H  H15  1  0.72115096  0.92140423  0.48413214  1  0.045158  0.000116  0.099099  0.101554  -3e-06  1.005153  0.0
H  H16  1  0.43599187  0.67594855  0.10759022  1  0.077489  0.001881  0.091776  0.126821  0.000793  1.041896  0.001
H  H17  1  0.31101433  0.64849569  0.02920599  1  0.024994  0.000486  0.093298  0.13404  0.000104  1.005575  0.0
H  H18  1  0.29972513  0.73932967  0.06037716  1  0.061368  0.001609  0.09741  0.143388  0.000491  0.984134  0.001
H  H19  1  0.72115214  0.57859803  0.01586885  1  0.04511  0.000116  0.099103  0.101585  -3e-06  1.005092  0.0
H  H20  1  0.56401045  0.60758959  0.17594807  1  0.077876  0.001879  0.091774  0.126833  0.000793  1.041851  0.001
H  H21  1  0.68898895  0.52920592  0.14849620  1  0.024992  0.000486  0.093296  0.134029  0.000104  1.005591  0.0
H  H22  1  0.70027726  0.56037745  0.23932914  1  0.061365  0.001608  0.097416  0.143393  0.000491  0.984177  0.001
H  H23  1  0.27885359  0.51586645  0.07859838  1  0.045107  0.000116  0.099107  0.101564  -3e-06  1.005059  0.0
H  H24  1  0.56401144  0.89240986  0.32405015  1  0.077873  0.001879  0.091784  0.126849  0.000793  1.041903  0.001
H  H25  1  0.68899045  0.97079362  0.35150262  1  0.025033  0.000486  0.093317  0.134062  0.000104  1.00557  0.0
H  H26  1  0.70027971  0.93962157  0.26066807  1  0.061313  0.001609  0.097398  0.143353  0.000491  0.984191  0.001
H  H27  1  0.27885397  0.98413222  0.42139971  1  0.045073  0.000116  0.099098  0.10154  -3e-06  1.005085  0.0
H  H28  1  0.06401255  0.17594754  0.89241080  1  0.077891  0.001879  0.091776  0.126821  0.000793  1.041893  0.001
H  H29  1  0.18899135  0.14849431  0.97079447  1  0.024962  0.000486  0.093275  0.134014  0.000104  1.005607  0.0
H  H30  1  0.20027683  0.23932828  0.93962500  1  0.061367  0.001609  0.097414  0.143398  0.000491  0.984138  0.001
H  H31  1  0.77884037  0.07860590  0.98414094  1  0.044979  0.000116  0.0992  0.101663  -3e-06  1.00501  0.0
H  H32  1  0.06401252  0.32405276  0.60758998  1  0.077532  0.001881  0.091783  0.126852  0.000793  1.041845  0.001
H  H33  1  0.18899685  0.35150663  0.52920583  1  0.024971  0.000486  0.093315  0.134045  0.000104  1.005538  0.0
H  H34  1  0.20028052  0.26067213  0.56037584  1  0.061396  0.001609  0.097437  0.143435  0.000491  0.984106  0.001
H  H35  1  0.77883497  0.42139337  0.51586071  1  0.045036  0.000116  0.099187  0.101648  -3e-06  1.005011  0.0
H  H36  1  0.06401005  0.60758675  0.32405045  1  0.077913  0.001879  0.091774  0.126822  0.000793  1.041858  0.001
H  H37  1  0.18899144  0.52920419  0.35150393  1  0.024948  0.000486  0.093284  0.134002  0.000104  1.00561  0.0
H  H38  1  0.20027667  0.56037402  0.26066994  1  0.061323  0.001609  0.097398  0.143364  0.000491  0.984146  0.001
H  H39  1  0.77883509  0.51585765  0.42139315  1  0.045017  0.000116  0.099182  0.101682  -3e-06  1.004999  0.0
H  H40  1  0.06400779  0.89241066  0.17594916  1  0.077858  0.001879  0.091792  0.126854  0.000793  1.041847  0.001
H  H41  1  0.18899092  0.97079333  0.14849628  1  0.025013  0.000486  0.09331  0.134056  0.000104  1.00558  0.0
H  H42  1  0.20027625  0.93962405  0.23932973  1  0.061335  0.001609  0.097406  0.143379  0.000491  0.984177  0.001
H  H43  1  0.77883864  0.98413981  0.07860679  1  0.044978  0.000116  0.099191  0.101643  -3e-06  1.005023  0.0
H  H44  1  0.56401415  0.17594816  0.60758895  1  0.077924  0.001879  0.091791  0.126847  0.000793  1.041842  0.001
H  H45  1  0.68899131  0.14849540  0.52920423  1  0.024956  0.000486  0.093281  0.133997  0.000104  1.005588  0.0
H  H46  1  0.70027969  0.23933047  0.56037541  1  0.061335  0.001609  0.097399  0.143366  0.000491  0.984136  0.001
H  H47  1  0.27885167  0.07859794  0.51586691  1  0.045081  0.000116  0.099106  0.101519  -3e-06  1.005087  0.0
H  H48  1  0.56401217  0.32405201  0.89241045  1  0.077529  0.001881  0.091784  0.126849  0.000793  1.041842  0.001
H  H49  1  0.68899252  0.35150488  0.97079468  1  0.024974  0.000486  0.093283  0.134015  0.000104  1.005573  0.0
H  H50  1  0.70027891  0.26067035  0.93962404  1  0.061365  0.001609  0.097412  0.143391  0.000491  0.984127  0.001
H  H51  1  0.27884488  0.42140146  0.98413020  1  0.04515  0.000116  0.099125  0.101611  -3e-06  1.005081  0.0
H  H52  1  0.43598938  0.39240990  0.82405044  1  0.077869  0.001879  0.091783  0.126847  0.000793  1.041903  0.001
H  H53  1  0.31100948  0.47079302  0.85150285  1  0.025032  0.000486  0.093311  0.134057  0.000104  1.005597  0.0
H  H54  1  0.29972117  0.43962204  0.76066883  1  0.061314  0.001609  0.097391  0.143341  0.000491  0.984224  0.001
H  H55  1  0.72114624  0.48413303  0.92140067  1  0.045088  0.000116  0.099101  0.101541  -3e-06  1.005083  0.0
H  H56  1  0.43598979  0.10759071  0.67594944  1  0.077499  0.001881  0.091801  0.126859  0.000793  1.041889  0.001
H  H57  1  0.31100798  0.02920694  0.64849535  1  0.025018  0.000486  0.093308  0.134073  0.000104  1.005564  0.0
H  H58  1  0.29971871  0.06037738  0.73933044  1  0.061342  0.001609  0.097405  0.14338  0.000491  0.984173  0.001
H  H59  1  0.72114867  0.01587050  0.57859880  1  0.045116  0.000116  0.099099  0.101568  -3e-06  1.005097  0.0
H  H60  1  0.93598728  0.82405194  0.10759202  1  0.077536  0.001881  0.091795  0.126842  0.000793  1.041845  0.001
H  H61  1  0.81100708  0.85150517  0.02920673  1  0.025019  0.000486  0.093302  0.134049  0.000104  1.005573  0.0
H  H62  1  0.79971739  0.76067013  0.06037728  1  0.061359  0.001609  0.097424  0.143402  0.000491  0.984141  0.001
H  H63  1  0.22116086  0.92139412  0.01585973  1  0.044976  0.000116  0.099192  0.101638  -3e-06  1.005016  0.0
H  H64  1  0.93598731  0.67594673  0.39241069  1  0.077542  0.001881  0.091776  0.126834  0.000793  1.041884  0.001
H  H65  1  0.81100720  0.64849339  0.47079484  1  0.024944  0.000486  0.093291  0.133998  0.000104  1.005571  0.0
H  H66  1  0.79972071  0.73932735  0.43962428  1  0.061406  0.001609  0.097432  0.143414  0.000491  0.984144  0.001
H  H67  1  0.22116065  0.57860450  0.48413941  1  0.044983  0.000116  0.09917  0.101631  -3e-06  1.005119  0.0
C  C68  1  0.80459166  0.42263320  0.68260264  1  -0.073226  0.002126  -0.23557  -0.424615  0.001239  3.967884  0.001
C  C69  1  0.63572634  0.37884166  0.66421908  1  0.449398  0.030152  0.089909  0.209416  0.017427  4.006359  0.022
C  C70  1  0.34281584  0.49039341  0.54344398  1  0.036805  0.002383  -0.096664  -0.140794  0.00125  4.012122  0.001
C  C71  1  0.80458672  0.07736932  0.81739741  1  -0.073201  0.002126  -0.235634  -0.424836  0.001239  3.968027  0.001
C  C72  1  0.63572310  0.12116019  0.83578251  1  0.44914  0.030155  0.089888  0.209643  0.017428  4.006265  0.022
C  C73  1  0.34281938  0.00960497  0.95655639  1  -0.08832  0.002429  -0.096752  -0.140953  0.00125  4.012097  0.001
C  C74  1  0.30458749  0.81740051  0.42263186  1  -0.073203  0.002126  -0.23561  -0.424695  0.001239  3.967851  0.001
C  C75  1  0.13572511  0.83578434  0.37884062  1  0.449133  0.030151  0.089906  0.209541  0.017426  4.006201  0.022
C  C76  1  0.84281062  0.95656332  0.49039130  1  0.036561  0.002383  -0.096642  -0.140697  0.00125  4.012298  0.001
C  C77  1  0.30458801  0.68260142  0.07736894  1  -0.073221  0.002126  -0.235594  -0.424759  0.001239  3.967998  0.001
C  C78  1  0.13572707  0.66421690  0.12115902  1  0.44913  0.030153  0.089934  0.209601  0.017426  4.006245  0.022
C  C79  1  0.84280878  0.54343850  0.00960759  1  0.0016  0.002402  -0.096674  -0.140755  0.00125  4.012152  0.001
C  C80  1  0.69541280  0.57736804  0.18260160  1  -0.073216  0.002126  -0.235609  -0.42477  0.001239  3.967885  0.001
C  C81  1  0.86427526  0.62116012  0.16421547  1  0.449452  0.03015  0.089861  0.209522  0.017426  4.006159  0.022
C  C82  1  0.15718415  0.50960785  0.04343694  1  -0.088401  0.002429  -0.096636  -0.140753  0.00125  4.012348  0.001
C  C83  1  0.69541253  0.92263097  0.31739722  1  -0.073218  0.002126  -0.235629  -0.424778  0.001239  3.968032  0.001
C  C84  1  0.86427340  0.87884011  0.33578290  1  0.449446  0.030151  0.089943  0.209584  0.017426  4.006353  0.022
C  C85  1  0.15718887  0.99039288  0.45656379  1  -0.088384  0.00243  -0.096648  -0.140762  0.00125  4.012135  0.001
C  C86  1  0.19541223  0.18260162  0.92263262  1  -0.073234  0.002126  -0.235574  -0.42471  0.001239  3.967881  0.001
C  C87  1  0.36427589  0.16421774  0.87884145  1  0.449407  0.030154  0.089926  0.20956  0.017428  4.006273  0.022
C  C88  1  0.65718074  0.04344412  0.99039516  1  -0.088287  0.002429  -0.096768  -0.140931  0.00125  4.012014  0.001
C  C89  1  0.19541488  0.31739987  0.57736822  1  -0.073203  0.002126  -0.235657  -0.424863  0.001239  3.967799  0.001
C  C90  1  0.36427736  0.33578227  0.62116054  1  0.449433  0.030152  0.089916  0.209636  0.017427  4.006172  0.022
C  C91  1  0.65717551  0.45655397  0.50960481  1  0.036808  0.002383  -0.096702  -0.140801  0.00125  4.011903  0.001
C  C92  1  0.19541098  0.57736628  0.31739803  1  -0.073002  0.002126  -0.235567  -0.424657  0.001239  3.967895  0.001
C  C93  1  0.36427209  0.62115837  0.33578267  1  0.449167  0.030154  0.089886  0.20948  0.017427  4.006361  0.022
C  C94  1  0.65717417  0.50960231  0.45655346  1  -0.088143  0.002429  -0.096702  -0.140949  0.00125  4.01195  0.001
C  C95  1  0.19541030  0.92263178  0.18260272  1  -0.073229  0.002126  -0.235647  -0.42481  0.001239  3.96791  0.001
C  C96  1  0.36427392  0.87884037  0.16421816  1  0.449361  0.030154  0.089926  0.209595  0.017427  4.006311  0.022
C  C97  1  0.65718045  0.99039452  0.04344481  1  0.036847  0.002383  -0.096705  -0.140821  0.00125  4.011939  0.001
C  C98  1  0.69541655  0.18260167  0.57736719  1  -0.073197  0.002126  -0.235573  -0.42469  0.001239  3.967943  0.001
C  C99  1  0.86427752  0.16421730  0.62115843  1  0.449404  0.03015  0.089866  0.209546  0.017426  4.006365  0.022
C  C100  1  0.15719061  0.04343939  0.50960721  1  0.036654  0.002383  -0.096632  -0.140559  0.00125  4.012227  0.001
C  C101  1  0.69541462  0.31739915  0.92263172  1  -0.073204  0.002126  -0.235584  -0.424759  0.001239  3.967912  0.001
C  C102  1  0.86427557  0.33578366  0.87884056  1  0.449115  0.030155  0.089897  0.209609  0.017427  4.00625  0.022
C  C103  1  0.15718964  0.45656098  0.99039146  1  0.036611  0.002383  -0.096665  -0.140803  0.00125  4.012222  0.001
C  C104  1  0.30458843  0.42263144  0.81739691  1  -0.073219  0.002126  -0.235627  -0.424777  0.001239  3.968061  0.001
C  C105  1  0.13572457  0.37883991  0.83578251  1  0.449475  0.030154  0.089902  0.209532  0.017428  4.006218  0.022
C  C106  1  0.84281568  0.49039110  0.95656265  1  -0.053399  0.002411  -0.096599  -0.140716  0.00125  4.012257  0.001
C  C107  1  0.30458870  0.07736906  0.68260237  1  -0.073217  0.002126  -0.235644  -0.424849  0.001239  3.967975  0.001
C  C108  1  0.13572643  0.12115991  0.66421723  1  0.449139  0.030153  0.089915  0.209602  0.017427  4.006247  0.022
C  C109  1  0.84281517  0.00960876  0.54343580  1  -0.088406  0.00243  -0.096636  -0.140734  0.00125  4.012248  0.001
C  C110  1  0.80458339  0.81739840  0.07736912  1  -0.073214  0.002126  -0.235617  -0.42478  0.001239  3.96798  0.001
C  C111  1  0.63572254  0.83578228  0.12115921  1  0.449399  0.030153  0.089885  0.209563  0.017427  4.006296  0.022
C  C112  1  0.34282050  0.95655590  0.00960550  1  0.036818  0.002382  -0.096679  -0.140781  0.00125  4.012064  0.001
C  C113  1  0.80458495  0.68260016  0.42263245  1  -0.073207  0.002126  -0.235614  -0.424757  0.001239  3.967904  0.001
C  C114  1  0.63572247  0.66421507  0.37884120  1  0.449127  0.030155  0.089899  0.20959  0.017428  4.006212  0.022
C  C115  1  0.34281450  0.54344282  0.49039316  1  -0.088016  0.002429  -0.096714  -0.14089  0.00125  4.012173  0.001
C  C116  1  0.49999979  0.39000846  0.60999418  1  -0.075465  0.017107  -0.040121  -0.181579  0.008921  4.039036  0.009
C  C117  1  0.49999704  0.44584501  0.55415621  1  -0.005448  0.003554  -0.012103  0.101956  0.001825  4.052804  0.002
C  C118  1  0.50000226  0.10999382  0.89000841  1  -0.075188  0.017103  -0.040151  -0.181704  0.00892  4.039163  0.009
C  C119  1  0.50000079  0.05415619  0.94584477  1  -0.005412  0.003554  -0.012052  0.102064  0.001825  4.052566  0.002
C  C120  1  0.00000017  0.89000882  0.39000811  1  -0.075274  0.017104  -0.040207  -0.181711  0.00892  4.039331  0.009
C  C121  1  0.00000041  0.94584434  0.44584344  1  -0.005366  0.003555  -0.012007  0.10196  0.001826  4.05277  0.002
C  C122  1  0.00000321  0.60999070  0.10999201  1  -0.075337  0.017104  -0.040119  -0.181575  0.00892  4.039065  0.009
C  C123  1  0.00000157  0.55415463  0.05415614  1  -0.005354  0.003555  -0.01204  0.101925  0.001826  4.052877  0.002
C  C124  1  0.49999864  0.60998941  0.39000594  1  -0.075314  0.017105  -0.040086  -0.181543  0.00892  4.039096  0.009
C  C125  1  0.49999577  0.55415232  0.44584338  1  -0.005845  0.003554  -0.012088  0.102069  0.001825  4.052863  0.002
C  C126  1  0.49999897  0.89000729  0.10999387  1  -0.075466  0.017104  -0.040152  -0.181699  0.008919  4.039058  0.009
C  C127  1  0.49999763  0.94584384  0.05415643  1  -0.005428  0.003554  -0.01207  0.102053  0.001825  4.052473  0.002
C  C128  1  0.00000262  0.10999456  0.60999017  1  -0.075255  0.017104  -0.04013  -0.181607  0.008919  4.039177  0.009
C  C129  1  0.00000519  0.05415742  0.55415646  1  -0.005387  0.003555  -0.01209  0.101748  0.001826  4.052855  0.002
C  C130  1  0.99999802  0.39000933  0.89000757  1  -0.075262  0.017103  -0.040113  -0.181603  0.008919  4.03914  0.009
C  C131  1  0.99999826  0.44584431  0.94584237  1  -0.005381  0.003555  -0.012097  0.101934  0.001826  4.052853  0.002
N  N132  1  0.58377410  0.32142482  0.70461263  1  -0.793807  0.082112  -0.294447  -0.269985  0.043004  3.611853  0.052
N  N133  1  0.58376965  0.17857807  0.79538946  1  -0.805853  0.082187  -0.294474  -0.270079  0.043004  3.611901  0.052
N  N134  1  0.08377137  0.79538987  0.32142448  1  -0.793751  0.082112  -0.294471  -0.270039  0.043003  3.611917  0.052
N  N135  1  0.08377231  0.70461025  0.17857622  1  -0.793753  0.082111  -0.294485  -0.270093  0.043004  3.611978  0.052
N  N136  1  0.91622902  0.67857645  0.20460964  1  -0.805829  0.082186  -0.294444  -0.269989  0.043002  3.611939  0.052
N  N137  1  0.91622814  0.82142274  0.29539036  1  -0.805843  0.082187  -0.294439  -0.269974  0.043003  3.611945  0.052
N  N138  1  0.41622805  0.20461216  0.82142429  1  -0.793822  0.082113  -0.294483  -0.270065  0.043004  3.611989  0.052
N  N139  1  0.41622949  0.29539004  0.67857827  1  -0.805847  0.082189  -0.29454  -0.270147  0.043006  3.611868  0.052
N  N140  1  0.41622573  0.67857629  0.29538911  1  -0.793781  0.082112  -0.294474  -0.270076  0.043005  3.612022  0.052
N  N141  1  0.41622457  0.82142303  0.20461228  1  -0.793792  0.08211  -0.294459  -0.27007  0.043004  3.611941  0.052
N  N142  1  0.91622986  0.20461069  0.67857619  1  -0.805843  0.082187  -0.294456  -0.270036  0.043003  3.611952  0.052
N  N143  1  0.91623032  0.29538870  0.82142390  1  -0.805543  0.082184  -0.294457  -0.270053  0.043003  3.6119  0.052
N  N144  1  0.08377221  0.32142250  0.79538995  1  -0.794103  0.082115  -0.294494  -0.270064  0.043004  3.611946  0.052
N  N145  1  0.08377169  0.17857674  0.70461030  1  -0.793772  0.082109  -0.294469  -0.270068  0.043003  3.612003  0.052
N  N146  1  0.58376757  0.79538948  0.17857799  1  -0.806274  0.082201  -0.294486  -0.27004  0.043004  3.61184  0.052
N  N147  1  0.58376894  0.70460944  0.32142455  1  -0.805779  0.082188  -0.294463  -0.270044  0.043002  3.611997  0.052
