# generated using pymatgen
data_CdH26C34(NO5)2
_symmetry_space_group_name_H-M   'P 1'
_cell_length_a   7.73103577
_cell_length_b   10.06992906
_cell_length_c   18.34864619
_cell_angle_alpha   88.02964806
_cell_angle_beta   80.93413972
_cell_angle_gamma   88.96614609
_symmetry_Int_Tables_number   1
_chemical_formula_structural   CdH26C34(NO5)2
_chemical_formula_sum   'Cd2 H52 C68 N4 O20'
_cell_volume   1409.66622201
_cell_formula_units_Z   2
loop_
 _symmetry_equiv_pos_site_id
 _symmetry_equiv_pos_as_xyz
  1  'x, y, z'
loop_
 _atom_site_type_symbol
 _atom_site_label
 _atom_site_symmetry_multiplicity
 _atom_site_fract_x
 _atom_site_fract_y
 _atom_site_fract_z
 _atom_site_occupancy
 _atom_site_hle17_bader_spin_density
 _atom_site_hle17_ddec_charge
 _atom_site_hle17_ddec_spin_density
 _atom_site_hle17_ddec_sum_bond_order
 _atom_site_hle17_magmom
 _atom_site_hse06_10hf_bader_spin_density
 _atom_site_hse06_10hf_ddec_charge
 _atom_site_hse06_10hf_ddec_spin_density
 _atom_site_hse06_10hf_ddec_sum_bond_order
 _atom_site_hse06_10hf_magmom
 _atom_site_hse06_bader_spin_density
 _atom_site_hse06_ddec_charge
 _atom_site_hse06_ddec_spin_density
 _atom_site_hse06_ddec_sum_bond_order
 _atom_site_hse06_magmom
 _atom_site_pbe_bader_spin_density
 _atom_site_pbe_cm5_charge
 _atom_site_pbe_ddec_charge
 _atom_site_pbe_ddec_spin_density
 _atom_site_pbe_ddec_sum_bond_order
 _atom_site_pbe_magmom
Cd  Cd0  1  0.70437299  0.49290606  0.61074129  1  0  1.188456  0  1.616692  0  0  1.007623  0  2.056102  0  0  1.065711  0  1.999548  0  0  0.76092  0.965903  0  2.094903  0
Cd  Cd1  1  0.29563529  0.50709173  0.38925511  1  0  1.188449  0  1.616718  0  0  1.007659  0  2.056116  0  0  1.065744  0  1.999564  0  0  0.760934  0.965941  0  2.094913  0
H  H2  1  0.72245850  0.91147037  0.98611389  1  0  0.396595  0  0.899637  0  0  0.365768  0  0.978156  0  0  0.379032  0  0.959457  0  0  0.299875  0.356484  0  0.988121  0
H  H3  1  0.27754090  0.08852136  0.01388598  1  0  0.396581  0  0.89963  0  0  0.365735  0  0.978196  0  0  0.379  0  0.959502  0  0  0.299836  0.356451  0  0.988158  0
H  H4  1  0.18376504  0.88701804  0.98569425  1  0  0.395096  0  0.904504  0  0  0.364004  0  0.982363  0  0  0.377219  0  0.963762  0  0  0.299773  0.354803  0  0.992996  0
H  H5  1  0.81623682  0.11297869  0.01430590  1  0  0.395083  0  0.904559  0  0  0.363978  0  0.982413  0  0  0.377193  0  0.963814  0  0  0.29976  0.354777  0  0.993064  0
H  H6  1  0.32270040  0.46692238  0.64413754  1  0  0.396418  0  0.897451  0  0  0.362516  0  0.977483  0  0  0.373408  0  0.961421  0  0  0.291082  0.354803  0  0.98887  0
H  H7  1  0.67730385  0.53307934  0.35586071  1  0  0.396443  0  0.897545  0  0  0.36254  0  0.977479  0  0  0.373434  0  0.961415  0  0  0.291077  0.354825  0  0.98887  0
H  H8  1  0.38525927  0.39200420  0.56770862  1  0  0.437754  0  0.865051  0  0  0.406017  0  0.928979  0  0  0.417947  0  0.911647  0  0  0.287804  0.397578  0  0.941234  0
H  H9  1  0.61474255  0.60799352  0.43229151  1  0  0.437845  0  0.864923  0  0  0.406086  0  0.928894  0  0  0.418018  0  0.911559  0  0  0.28781  0.397646  0  0.94115  0
H  H10  1  0.05720410  0.52567900  0.64760742  1  0  0.389177  0  0.92024  0  0  0.352873  0  0.997617  0  0  0.364135  0  0.981109  0  0  0.285665  0.3449  0  1.009324  0
H  H11  1  0.94279886  0.47432370  0.35239254  1  0  0.389175  0  0.920215  0  0  0.352877  0  0.997601  0  0  0.364138  0  0.981094  0  0  0.285665  0.344904  0  1.009306  0
H  H12  1  0.05602654  0.60103944  0.56805123  1  0  0.4368  0  0.86623  0  0  0.404927  0  0.930195  0  0  0.416836  0  0.912955  0  0  0.286952  0.39652  0  0.942363  0
H  H13  1  0.94398311  0.39895737  0.43194618  1  0  0.436815  0  0.866196  0  0  0.404956  0  0.930149  0  0  0.416864  0  0.912911  0  0  0.286967  0.39655  0  0.942317  0
H  H14  1  0.93432368  0.18648414  0.41879958  1  0  0.099322  0  0.978242  0  0  0.107406  0  1.047276  0  0  0.110958  0  1.04483  0  0  0.104087  0.104554  0  1.049613  0
H  H15  1  0.06567956  0.81351061  0.58120051  1  0  0.099232  0  0.978306  0  0  0.107341  0  1.047329  0  0  0.11089  0  1.044889  0  0  0.104029  0.104489  0  1.049664  0
H  H16  1  0.63020591  0.82247548  0.41997451  1  0  0.100689  0  0.974858  0  0  0.109304  0  1.042859  0  0  0.112737  0  1.040624  0  0  0.105361  0.106528  0  1.04509  0
H  H17  1  0.36978510  0.17753106  0.58002568  1  0  0.100799  0  0.974911  0  0  0.109365  0  1.042958  0  0  0.112798  0  1.040727  0  0  0.105379  0.106588  0  1.045192  0
H  H18  1  0.74321697  0.81921315  0.80534029  1  0  0.087998  0  0.969332  0  0  0.095468  0  1.038662  0  0  0.097969  0  1.03771  0  0  0.099769  0.093451  0  1.039819  0
H  H19  1  0.25677191  0.18078145  0.19466247  1  0  0.088069  0  0.969186  0  0  0.095519  0  1.038511  0  0  0.098015  0  1.037573  0  0  0.099812  0.093507  0  1.039668  0
H  H20  1  0.79789572  0.82911474  0.66889335  1  0  0.114523  0  0.983258  0  0  0.120953  0  1.048284  0  0  0.124625  0  1.04669  0  0  0.10254  0.118251  0  1.04967  0
H  H21  1  0.20210742  0.17088398  0.33110830  1  0  0.114512  0  0.983244  0  0  0.120947  0  1.048273  0  0  0.124619  0  1.046678  0  0  0.102522  0.118248  0  1.049651  0
H  H22  1  0.08239532  0.19269642  0.67192751  1  0  0.099936  0  0.937764  0  0  0.110704  0  0.99771  0  0  0.113543  0  0.99625  0  0  0.104435  0.108568  0  0.999046  0
H  H23  1  0.91760631  0.80730427  0.32806931  1  0  0.099941  0  0.937817  0  0  0.110716  0  0.997749  0  0  0.113563  0  0.996264  0  0  0.104458  0.108581  0  0.999082  0
H  H24  1  0.02521072  0.18183741  0.80879771  1  0  0.084863  0  0.993525  0  0  0.090853  0  1.065463  0  0  0.093226  0  1.065252  0  0  0.096859  0.08901  0  1.066182  0
H  H25  1  0.97478714  0.81815927  0.19120055  1  0  0.084922  0  0.993472  0  0  0.09089  0  1.065432  0  0  0.093285  0  1.065175  0  0  0.096878  0.089035  0  1.066155  0
H  H26  1  0.21006317  0.78936168  0.80671046  1  0  0.083937  0  0.991727  0  0  0.090638  0  1.063279  0  0  0.093005  0  1.063084  0  0  0.096071  0.088747  0  1.064111  0
H  H27  1  0.78993604  0.21063800  0.19329255  1  0  0.083937  0  0.991662  0  0  0.090612  0  1.063263  0  0  0.09298  0  1.063059  0  0  0.096053  0.088722  0  1.064094  0
H  H28  1  0.27889809  0.78706140  0.67052190  1  0  0.099247  0  0.940121  0  0  0.109385  0  1.000902  0  0  0.112341  0  0.999251  0  0  0.103699  0.107183  0  1.002343  0
H  H29  1  0.72109995  0.21293430  0.32948126  1  0  0.099227  0  0.940214  0  0  0.10941  0  1.000946  0  0  0.112366  0  0.999296  0  0  0.10371  0.107208  0  1.002386  0
H  H30  1  0.56195145  0.15211797  0.67011180  1  0  0.114789  0  0.98337  0  0  0.121673  0  1.047684  0  0  0.125369  0  1.046047  0  0  0.102898  0.11896  0  1.04908  0
H  H31  1  0.43804253  0.84787668  0.32988569  1  0  0.114775  0  0.983407  0  0  0.121668  0  1.047716  0  0  0.125363  0  1.04608  0  0  0.102893  0.118956  0  1.049111  0
H  H32  1  0.48893782  0.15427056  0.80668767  1  0  0.085306  0  0.975027  0  0  0.093163  0  1.044741  0  0  0.095861  0  1.043686  0  0  0.098658  0.090951  0  1.046139  0
H  H33  1  0.51105854  0.84573206  0.19331112  1  0  0.085351  0  0.975049  0  0  0.093154  0  1.044809  0  0  0.095852  0  1.043754  0  0  0.098659  0.090944  0  1.046206  0
H  H34  1  0.75976007  0.29706476  0.74625545  1  0  0.089936  0  0.972784  0  0  0.099319  0  1.035017  0  0  0.101443  0  1.033696  0  0  0.116931  0.097594  0  1.036342  0
H  H35  1  0.24023370  0.70293684  0.25374300  1  0  0.089969  0  0.972817  0  0  0.099328  0  1.035051  0  0  0.101449  0  1.033734  0  0  0.116933  0.0976  0  1.036375  0
H  H36  1  0.70849282  0.27702192  0.88422197  1  0  0.112489  0  0.965426  0  0  0.119826  0  1.029615  0  0  0.123267  0  1.028463  0  0  0.104968  0.117296  0  1.030765  0
H  H37  1  0.29150490  0.72297774  0.11577460  1  0  0.112459  0  0.965402  0  0  0.11984  0  1.029551  0  0  0.12328  0  1.028403  0  0  0.104977  0.117308  0  1.030702  0
H  H38  1  0.47047112  0.67008433  0.88483128  1  0  0.108573  0  0.955626  0  0  0.117975  0  1.017205  0  0  0.121145  0  1.016112  0  0  0.10645  0.115537  0  1.018514  0
H  H39  1  0.52953952  0.32992144  0.11516589  1  0  0.108558  0  0.955678  0  0  0.117963  0  1.017239  0  0  0.121142  0  1.01614  0  0  0.106444  0.115527  0  1.018547  0
H  H40  1  0.53820898  0.67359351  0.74800379  1  0  0.091374  0  0.970983  0  0  0.1005  0  1.033875  0  0  0.102707  0  1.032467  0  0  0.117183  0.0987  0  1.03527  0
H  H41  1  0.46180830  0.32641033  0.25199349  1  0  0.091206  0  0.971126  0  0  0.100465  0  1.03388  0  0  0.102674  0  1.032471  0  0  0.117184  0.09866  0  1.03529  0
H  H42  1  0.60038461  0.36621660  0.00027703  1  0  0.098608  0  0.943464  0  0  0.112156  0  0.999479  0  0  0.114981  0  0.998214  0  0  0.107207  0.110153  0  1.00036  0
H  H43  1  0.39961972  0.63378015  0.99971804  1  0  0.098614  0  0.943421  0  0  0.112161  0  0.999438  0  0  0.114984  0  0.998174  0  0  0.107218  0.11016  0  1.000317  0
H  H44  1  0.29714879  0.31918360  0.74486963  1  0  0.076067  0  0.956297  0  0  0.085563  0  1.022266  0  0  0.087263  0  1.021374  0  0  0.113747  0.084242  0  1.02317  0
H  H45  1  0.70284881  0.68082401  0.25513279  1  0  0.076037  0  0.956349  0  0  0.085489  0  1.022373  0  0  0.087188  0  1.021483  0  0  0.113695  0.084168  0  1.023278  0
H  H46  1  0.24122364  0.29418171  0.88204513  1  0  0.114095  0  0.959147  0  0  0.12092  0  1.025199  0  0  0.124429  0  1.023785  0  0  0.106135  0.118408  0  1.026393  0
H  H47  1  0.75877136  0.70582389  0.11795588  1  0  0.114166  0  0.959032  0  0  0.120955  0  1.025124  0  0  0.124468  0  1.023698  0  0  0.106143  0.118444  0  1.026317  0
H  H48  1  0.92959175  0.65662022  0.88403638  1  0  0.108727  0  0.955431  0  0  0.117357  0  1.019251  0  0  0.1206  0  1.018042  0  0  0.106835  0.115024  0  1.020345  0
H  H49  1  0.07039802  0.34338432  0.11596394  1  0  0.10873  0  0.955467  0  0  0.117365  0  1.01927  0  0  0.120611  0  1.018056  0  0  0.10681  0.115033  0  1.020366  0
H  H50  1  0.99356607  0.66196948  0.74776861  1  0  0.074895  0  0.956583  0  0  0.084507  0  1.022586  0  0  0.086037  0  1.021985  0  0  0.113118  0.083306  0  1.023276  0
H  H51  1  0.00642632  0.33803410  0.25223044  1  0  0.074943  0  0.956449  0  0  0.084527  0  1.022472  0  0  0.086058  0  1.021868  0  0  0.11311  0.083325  0  1.023168  0
H  H52  1  0.10464542  0.36802856  0.99851663  1  0  0.099604  0  0.940165  0  0  0.112868  0  0.996137  0  0  0.115656  0  0.99495  0  0  0.107219  0.110949  0  0.996863  0
H  H53  1  0.89535106  0.63197407  0.00148651  1  0  0.099603  0  0.940132  0  0  0.112883  0  0.996086  0  0  0.11567  0  0.994902  0  0  0.107236  0.110965  0  0.996817  0
C  C54  1  0.84956849  0.25124363  0.55683191  1  0  0.646666  0  3.89646  0  0  0.594252  0  4.187774  0  0  0.628798  0  4.181354  0  0  0.204404  0.571017  0  4.190927  0
C  C55  1  0.15044004  0.74874919  0.44316730  1  0  0.646622  0  3.896724  0  0  0.594326  0  4.187866  0  0  0.628875  0  4.181442  0  0  0.204425  0.571091  0  4.191021  0
C  C56  1  0.60020729  0.74150890  0.55833207  1  0  0.645882  0  3.895871  0  0  0.593736  0  4.186814  0  0  0.628234  0  4.18038  0  0  0.204779  0.570507  0  4.189976  0
C  C57  1  0.39979564  0.25849479  0.44166842  1  0  0.645904  0  3.896073  0  0  0.593774  0  4.187014  0  0  0.628273  0  4.180579  0  0  0.20482  0.570545  0  4.190174  0
C  C58  1  0.93214386  0.12122504  0.53075837  1  0  -0.07549  0  3.678089  0  0  -0.059746  0  3.917062  0  0  -0.06593  0  3.937562  0  0  -0.006851  -0.055764  0  3.903135  0
C  C59  1  0.06786079  0.87876575  0.46924061  1  0  -0.075809  0  3.678404  0  0  -0.060086  0  3.917329  0  0  -0.066282  0  3.93784  0  0  -0.006972  -0.056104  0  3.903399  0
C  C60  1  0.96536853  0.10388457  0.45449825  1  0  -0.101681  0  3.697899  0  0  -0.135293  0  3.952842  0  0  -0.137491  0  3.974085  0  0  -0.078392  -0.133577  0  3.938553  0
C  C61  1  0.03463604  0.89610920  0.54550122  1  0  -0.101379  0  3.697797  0  0  -0.135006  0  3.952732  0  0  -0.1372  0  3.973977  0  0  -0.078274  -0.133291  0  3.938444  0
C  C62  1  0.46732146  0.97686732  0.57842935  1  0  0.05123  0  3.700073  0  0  0.057523  0  3.937556  0  0  0.058328  0  3.960093  0  0  0.007626  0.056986  0  3.92229  0
C  C63  1  0.53266323  0.02313319  0.42157196  1  0  0.051374  0  3.699915  0  0  0.057663  0  3.937446  0  0  0.058467  0  3.959984  0  0  0.007645  0.057127  0  3.922179  0
C  C64  1  0.54096050  0.87491271  0.53133519  1  0  -0.075993  0  3.683487  0  0  -0.061311  0  3.923791  0  0  -0.067479  0  3.944278  0  0  -0.008057  -0.057278  0  3.909782  0
C  C65  1  0.45903208  0.12508789  0.46866664  1  0  -0.075961  0  3.683551  0  0  -0.061269  0  3.923848  0  0  -0.067436  0  3.944336  0  0  -0.008069  -0.057239  0  3.909841  0
C  C66  1  0.57057237  0.90114462  0.45508127  1  0  -0.100634  0  3.696113  0  0  -0.134444  0  3.950966  0  0  -0.136508  0  3.972239  0  0  -0.078499  -0.132865  0  3.936626  0
C  C67  1  0.42941353  0.09885889  0.54491989  1  0  -0.100682  0  3.696245  0  0  -0.134481  0  3.951152  0  0  -0.136548  0  3.972424  0  0  -0.078472  -0.132902  0  3.936815  0
C  C68  1  0.96831864  0.01392759  0.57839000  1  0  0.052152  0  3.699376  0  0  0.057337  0  3.937148  0  0  0.058236  0  3.959644  0  0  0.006687  0.056767  0  3.921896  0
C  C69  1  0.03168076  0.98606514  0.42161095  1  0  0.052449  0  3.699482  0  0  0.057666  0  3.937176  0  0  0.05857  0  3.959673  0  0  0.006825  0.057103  0  3.921929  0
C  C70  1  0.83767035  0.00287129  0.89699186  1  0  0.661884  0  3.79956  0  0  0.609612  0  4.099531  0  0  0.644522  0  4.089626  0  0  0.234814  0.585952  0  4.10562  0
C  C71  1  0.16232902  0.99712541  0.10301337  1  0  0.661604  0  3.799876  0  0  0.609488  0  4.099618  0  0  0.644397  0  4.089713  0  0  0.234736  0.585828  0  4.105709  0
C  C72  1  0.87898756  0.00098172  0.81593360  1  0  -0.105687  0  3.810178  0  0  -0.084426  0  4.048085  0  0  -0.095779  0  4.073631  0  0  -0.029031  -0.076931  0  4.030687  0
C  C73  1  0.12101300  0.99901598  0.18406826  1  0  -0.105607  0  3.810486  0  0  -0.084334  0  4.048253  0  0  -0.095689  0  4.073802  0  0  -0.029002  -0.076838  0  4.030853  0
C  C74  1  0.81954334  0.89985871  0.77601278  1  0  -0.05249  0  3.739405  0  0  -0.078065  0  3.992118  0  0  -0.076243  0  4.01289  0  0  -0.083734  -0.078967  0  3.978156  0
C  C75  1  0.18044687  0.10013689  0.22399204  1  0  -0.052482  0  3.739414  0  0  -0.078037  0  3.992137  0  0  -0.076214  0  4.012903  0  0  -0.083694  -0.078945  0  3.978179  0
C  C76  1  0.85140321  0.90549471  0.69926474  1  0  -0.115815  0  3.690128  0  0  -0.134165  0  3.93868  0  0  -0.139057  0  3.958764  0  0  -0.087032  -0.130918  0  3.925308  0
C  C77  1  0.14859352  0.09450196  0.30073959  1  0  -0.115838  0  3.690277  0  0  -0.134206  0  3.938837  0  0  -0.139097  0  3.958919  0  0  -0.087049  -0.130952  0  3.925476  0
C  C78  1  0.94131147  0.01282916  0.66039316  1  0  0.089016  0  3.717677  0  0  0.103577  0  3.948529  0  0  0.10594  0  3.969912  0  0  0.011677  0.102015  0  3.933961  0
C  C79  1  0.05869054  0.98716458  0.33960867  1  0  0.089022  0  3.717801  0  0  0.103597  0  3.948628  0  0  0.105958  0  3.970012  0  0  0.011724  0.102009  0  3.934098  0
C  C80  1  0.00721578  0.11106802  0.70085325  1  0  -0.084242  0  3.711228  0  0  -0.105772  0  3.964872  0  0  -0.108488  0  3.98341  0  0  -0.079889  -0.103887  0  3.952297  0
C  C81  1  0.99278738  0.88892872  0.29914681  1  0  -0.084237  0  3.71133  0  0  -0.105786  0  3.964968  0  0  -0.1085  0  3.983516  0  0  -0.07991  -0.103891  0  3.952393  0
C  C82  1  0.97580025  0.10534884  0.77738798  1  0  -0.067542  0  3.752745  0  0  -0.092961  0  4.005559  0  0  -0.09199  0  4.026865  0  0  -0.085721  -0.093458  0  3.991383  0
C  C83  1  0.02419913  0.89464289  0.22261136  1  0  -0.067647  0  3.752662  0  0  -0.093071  0  4.005487  0  0  -0.0921  0  4.026778  0  0  -0.085809  -0.093554  0  3.991321  0
C  C84  1  0.30139369  0.97723817  0.89643028  1  0  0.660188  0  3.801547  0  0  0.609898  0  4.098901  0  0  0.644608  0  4.089165  0  0  0.234782  0.586342  0  4.104928  0
C  C85  1  0.69861713  0.02276461  0.10356966  1  0  0.660423  0  3.801067  0  0  0.610074  0  4.098471  0  0  0.644773  0  4.08874  0  0  0.234863  0.586531  0  4.104482  0
C  C86  1  0.34611123  0.97169607  0.81553592  1  0  -0.103795  0  3.811322  0  0  -0.081791  0  4.046855  0  0  -0.09287  0  4.072383  0  0  -0.029212  -0.074477  0  4.029481  0
C  C87  1  0.65388527  0.02830457  0.18446508  1  0  -0.103873  0  3.811425  0  0  -0.081808  0  4.046897  0  0  -0.092882  0  4.072423  0  0  -0.029216  -0.074498  0  4.02952  0
C  C88  1  0.28837165  0.86791779  0.77645411  1  0  -0.065804  0  3.74654  0  0  -0.09249  0  4.000303  0  0  -0.091654  0  4.021699  0  0  -0.085695  -0.092939  0  3.986141  0
C  C89  1  0.71162741  0.13208388  0.22354615  1  0  -0.065742  0  3.746496  0  0  -0.092439  0  4.000291  0  0  -0.091597  0  4.021678  0  0  -0.085696  -0.092888  0  3.986133  0
C  C90  1  0.32698759  0.86711896  0.70000663  1  0  -0.084482  0  3.710343  0  0  -0.105082  0  3.964881  0  0  -0.107771  0  3.983353  0  0  -0.080878  -0.103212  0  3.952355  0
C  C91  1  0.67301158  0.13287873  0.29999260  1  0  -0.084489  0  3.710524  0  0  -0.105112  0  3.965114  0  0  -0.107803  0  3.983588  0  0  -0.080871  -0.103243  0  3.952589  0
C  C92  1  0.42635283  0.96921679  0.66033583  1  0  0.088732  0  3.71615  0  0  0.101461  0  3.948907  0  0  0.103818  0  3.970225  0  0  0.011187  0.099908  0  3.934351  0
C  C93  1  0.57364228  0.03078383  0.33966254  1  0  0.088702  0  3.716152  0  0  0.101355  0  3.949034  0  0  0.103711  0  3.97035  0  0  0.011206  0.099801  0  3.934483  0
C  C94  1  0.48174078  0.07363503  0.69979757  1  0  -0.116453  0  3.695267  0  0  -0.13436  0  3.944155  0  0  -0.139129  0  3.964304  0  0  -0.08795  -0.131172  0  3.930703  0
C  C95  1  0.51825446  0.92636261  0.30020195  1  0  -0.116453  0  3.695414  0  0  -0.134327  0  3.944282  0  0  -0.139102  0  3.964448  0  0  -0.087958  -0.131139  0  3.930829  0
C  C96  1  0.44264053  0.07469401  0.77629143  1  0  -0.054308  0  3.747749  0  0  -0.081338  0  3.999931  0  0  -0.080007  0  4.021019  0  0  -0.0844  -0.081926  0  3.985795  0
C  C97  1  0.55735597  0.92530564  0.22370850  1  0  -0.054377  0  3.747986  0  0  -0.081378  0  4.000147  0  0  -0.080048  0  4.021236  0  0  -0.084419  -0.081967  0  3.98601  0
C  C98  1  0.69667908  0.37702673  0.77960501  1  0  0.124638  0  3.711764  0  0  0.09466  0  3.962469  0  0  0.102025  0  3.9815  0  0  0.044507  0.089951  0  3.949803  0
C  C99  1  0.30331736  0.62297391  0.22039436  1  0  0.124604  0  3.711839  0  0  0.094655  0  3.962562  0  0  0.102021  0  3.981594  0  0  0.044519  0.089949  0  3.949894  0
C  C100  1  0.66618835  0.36625951  0.85622589  1  0  -0.165407  0  3.688494  0  0  -0.181831  0  3.936811  0  0  -0.190305  0  3.957508  0  0  -0.083058  -0.176273  0  3.923197  0
C  C101  1  0.33380941  0.63374114  0.14377339  1  0  -0.16538  0  3.688425  0  0  -0.181837  0  3.936745  0  0  -0.190312  0  3.957439  0  0  -0.083065  -0.176279  0  3.923134  0
C  C102  1  0.58206143  0.47097698  0.89717178  1  0  0.131104  0  3.819143  0  0  0.144867  0  4.050894  0  0  0.150241  0  4.073676  0  0  0.0063  0.141386  0  4.035069  0
C  C103  1  0.41794014  0.52902670  0.10282717  1  0  0.131053  0  3.819023  0  0  0.144813  0  4.050793  0  0  0.150184  0  4.073572  0  0  0.006298  0.141334  0  4.034965  0
C  C104  1  0.53562133  0.58449486  0.85721100  1  0  -0.163956  0  3.69463  0  0  -0.180485  0  3.94191  0  0  -0.188557  0  3.96328  0  0  -0.082914  -0.1752  0  3.927881  0
C  C105  1  0.46439201  0.41550994  0.14278763  1  0  -0.16379  0  3.694473  0  0  -0.180319  0  3.941766  0  0  -0.188401  0  3.96315  0  0  -0.082794  -0.175036  0  3.927736  0
C  C106  1  0.57248954  0.58759834  0.78072991  1  0  0.116968  0  3.719263  0  0  0.086448  0  3.972228  0  0  0.093323  0  3.991596  0  0  0.040787  0.082073  0  3.959331  0
C  C107  1  0.42752630  0.41240847  0.21926686  1  0  0.117066  0  3.719091  0  0  0.086439  0  3.972107  0  0  0.093311  0  3.99148  0  0  0.040682  0.082064  0  3.959208  0
C  C108  1  0.54655386  0.45647403  0.97720147  1  0  -0.095717  0  3.713687  0  0  -0.115562  0  3.96253  0  0  -0.118402  0  3.982675  0  0  -0.07778  -0.113437  0  3.94843  0
C  C109  1  0.45344522  0.54352564  0.02279718  1  0  -0.095704  0  3.713588  0  0  -0.115554  0  3.962448  0  0  -0.11839  0  3.982591  0  0  -0.077803  -0.11343  0  3.948347  0
C  C110  1  0.21506280  0.39128776  0.77795122  1  0  0.125612  0  3.73425  0  0  0.097423  0  3.985998  0  0  0.1037  0  4.005273  0  0  0.042554  0.093451  0  3.97298  0
C  C111  1  0.78493346  0.60871984  0.22205021  1  0  0.125622  0  3.734134  0  0  0.097492  0  3.985815  0  0  0.103766  0  4.005095  0  0  0.042619  0.093521  0  3.972793  0
C  C112  1  0.18432952  0.37828038  0.85461954  1  0  -0.165718  0  3.684893  0  0  -0.182598  0  3.933411  0  0  -0.190639  0  3.954417  0  0  -0.08174  -0.177177  0  3.919275  0
C  C113  1  0.81567071  0.62172626  0.14538217  1  0  -0.165791  0  3.684723  0  0  -0.182628  0  3.933213  0  0  -0.19067  0  3.954222  0  0  -0.081756  -0.177207  0  3.919076  0
C  C114  1  0.08006329  0.47347339  0.89622694  1  0  0.138145  0  3.792478  0  0  0.151234  0  4.025509  0  0  0.156449  0  4.048195  0  0  0.007882  0.147874  0  4.009793  0
C  C115  1  0.91993693  0.52653326  0.10377422  1  0  0.138178  0  3.792547  0  0  0.151218  0  4.025629  0  0  0.156433  0  4.048317  0  0  0.007853  0.147859  0  4.009916  0
C  C116  1  0.01209748  0.57877022  0.85631185  1  0  -0.162712  0  3.689615  0  0  -0.179486  0  3.936147  0  0  -0.187253  0  3.95782  0  0  -0.082007  -0.174277  0  3.92161  0
C  C117  1  0.98789748  0.42123637  0.14368860  1  0  -0.162783  0  3.689685  0  0  -0.179542  0  3.936207  0  0  -0.187309  0  3.957874  0  0  -0.08197  -0.174337  0  3.921677  0
C  C118  1  0.04815935  0.58284690  0.77972883  1  0  0.12018  0  3.738467  0  0  0.092415  0  3.990692  0  0  0.09829  0  4.010341  0  0  0.040638  0.088718  0  3.977408  0
C  C119  1  0.95183175  0.41715766  0.22027194  1  0  0.120227  0  3.738286  0  0  0.092494  0  3.990475  0  0  0.098371  0  4.010119  0  0  0.040676  0.088795  0  3.977195  0
C  C120  1  0.04698243  0.45767012  0.97648595  1  0  -0.092923  0  3.698293  0  0  -0.112015  0  3.947383  0  0  -0.11487  0  3.967664  0  0  -0.076133  -0.10991  0  3.93319  0
C  C121  1  0.95301657  0.54233452  0.02351588  1  0  -0.092786  0  3.698287  0  0  -0.11189  0  3.947386  0  0  -0.114748  0  3.967675  0  0  -0.076071  -0.109788  0  3.933195  0
N  N122  1  0.65083235  0.48557909  0.74209104  1  0  -0.334406  0  3.229256  0  0  -0.258081  0  3.491681  0  0  -0.278911  0  3.511773  0  0  -0.326376  -0.243975  0  3.477533  0
N  N123  1  0.34917313  0.51442463  0.25790654  1  0  -0.334478  0  3.229085  0  0  -0.258164  0  3.491563  0  0  -0.278993  0  3.511652  0  0  -0.326415  -0.244057  0  3.477415  0
N  N124  1  0.14808305  0.49121840  0.74003810  1  0  -0.352083  0  3.144756  0  0  -0.285098  0  3.387666  0  0  -0.300966  0  3.404165  0  0  -0.315833  -0.274501  0  3.376453  0
N  N125  1  0.85190818  0.50878318  0.25996380  1  0  -0.352148  0  3.144715  0  0  -0.285178  0  3.3876  0  0  -0.301047  0  3.404099  0  0  -0.315871  -0.274578  0  3.376384  0
O  O126  1  0.83431414  0.34640156  0.50993519  1  0  -0.650779  0  1.995358  0  0  -0.580377  0  2.222436  0  0  -0.609489  0  2.211215  0  0  -0.321511  -0.560054  0  2.229365  0
O  O127  1  0.16569301  0.65359324  0.49006408  1  0  -0.650741  0  1.995508  0  0  -0.580355  0  2.222524  0  0  -0.609467  0  2.211301  0  0  -0.321527  -0.560033  0  2.229453  0
O  O128  1  0.79226127  0.26431315  0.62496567  1  0  -0.63083  0  2.044462  0  0  -0.564369  0  2.283691  0  0  -0.593228  0  2.276857  0  0  -0.310027  -0.543687  0  2.287514  0
O  O129  1  0.20774205  0.73567862  0.37503338  1  0  -0.630718  0  2.04454  0  0  -0.56439  0  2.283799  0  0  -0.593248  0  2.27696  0  0  -0.309999  -0.543707  0  2.287623  0
O  O130  1  0.65491345  0.65198495  0.51171560  1  0  -0.653366  0  2.002509  0  0  -0.582106  0  2.230737  0  0  -0.611577  0  2.219546  0  0  -0.322684  -0.561514  0  2.237616  0
O  O131  1  0.34508299  0.34801669  0.48828484  1  0  -0.653357  0  2.002591  0  0  -0.582108  0  2.230795  0  0  -0.611576  0  2.219601  0  0  -0.32271  -0.561516  0  2.237672  0
O  O132  1  0.59938106  0.71978550  0.62685102  1  0  -0.629455  0  2.045163  0  0  -0.563581  0  2.282893  0  0  -0.592077  0  2.276101  0  0  -0.309806  -0.543148  0  2.286705  0
O  O133  1  0.40061802  0.28021617  0.37314978  1  0  -0.629464  0  2.045275  0  0  -0.563642  0  2.283059  0  0  -0.592137  0  2.276266  0  0  -0.309832  -0.543207  0  2.286871  0
O  O134  1  0.87539833  0.10054882  0.93196342  1  0  -0.578889  0  1.986385  0  0  -0.52706  0  2.201718  0  0  -0.548968  0  2.190288  0  0  -0.293942  -0.511975  0  2.208669  0
O  O135  1  0.12459302  0.89945177  0.06804122  1  0  -0.578834  0  1.986415  0  0  -0.527059  0  2.201672  0  0  -0.548971  0  2.190242  0  0  -0.293924  -0.511975  0  2.208618  0
O  O136  1  0.75627579  0.89698950  0.92989328  1  0  -0.546884  0  2.07944  0  0  -0.495239  0  2.29371  0  0  -0.516549  0  2.274613  0  0  -0.329609  -0.480495  0  2.304203  0
O  O137  1  0.24373138  0.10300529  0.07010653  1  0  -0.546812  0  2.07942  0  0  -0.495223  0  2.293634  0  0  -0.516536  0  2.274548  0  0  -0.329598  -0.48048  0  2.304128  0
O  O138  1  0.22119027  0.87106790  0.92976919  1  0  -0.549836  0  2.085912  0  0  -0.498776  0  2.302141  0  0  -0.520187  0  2.283547  0  0  -0.330328  -0.483855  0  2.31279  0
O  O139  1  0.77881921  0.12893586  0.07023083  1  0  -0.549942  0  2.085787  0  0  -0.49883  0  2.301985  0  0  -0.520258  0  2.283439  0  0  -0.330375  -0.483904  0  2.312622  0
O  O140  1  0.33551865  0.07662163  0.93077010  1  0  -0.57647  0  1.976794  0  0  -0.526968  0  2.190818  0  0  -0.548724  0  2.178922  0  0  -0.294275  -0.512004  0  2.197973  0
O  O141  1  0.66448419  0.92338306  0.06922819  1  0  -0.576595  0  1.976544  0  0  -0.527082  0  2.190588  0  0  -0.548843  0  2.178711  0  0  -0.294326  -0.512125  0  2.197741  0
O  O142  1  0.41786726  0.41422719  0.61675170  1  0  -0.839789  0  1.879402  0  0  -0.780792  0  2.089701  0  0  -0.802141  0  2.053722  0  0  -0.588873  -0.76526  0  2.114959  0
O  O143  1  0.58213703  0.58577453  0.38324763  1  0  -0.839898  0  1.879454  0  0  -0.780882  0  2.089672  0  0  -0.802232  0  2.053689  0  0  -0.588863  -0.765355  0  2.114946  0
O  O144  1  0.98298006  0.57405031  0.61631592  1  0  -0.844265  0  1.891413  0  0  -0.783244  0  2.100546  0  0  -0.804912  0  2.06385  0  0  -0.592691  -0.767439  0  2.126167  0
O  O145  1  0.01702424  0.42594942  0.38368182  1  0  -0.844264  0  1.891401  0  0  -0.783256  0  2.100483  0  0  -0.804931  0  2.063802  0  0  -0.592712  -0.767451  0  2.126102  0
