# generated using pymatgen
data_H5PbC8NO5
_symmetry_space_group_name_H-M   'P 1'
_cell_length_a   7.37372678
_cell_length_b   10.64396788
_cell_length_c   11.29067074
_cell_angle_alpha   89.99960784
_cell_angle_beta   90.00059853
_cell_angle_gamma   98.22672504
_symmetry_Int_Tables_number   1
_chemical_formula_structural   H5PbC8NO5
_chemical_formula_sum   'H20 Pb4 C32 N4 O20'
_cell_volume   877.03741375
_cell_formula_units_Z   4
loop_
 _symmetry_equiv_pos_site_id
 _symmetry_equiv_pos_as_xyz
  1  'x, y, z'
loop_
 _atom_site_type_symbol
 _atom_site_label
 _atom_site_symmetry_multiplicity
 _atom_site_fract_x
 _atom_site_fract_y
 _atom_site_fract_z
 _atom_site_occupancy
 _atom_site_hle17_bader_spin_density
 _atom_site_hle17_ddec_charge
 _atom_site_hle17_ddec_spin_density
 _atom_site_hle17_ddec_sum_bond_order
 _atom_site_hle17_magmom
 _atom_site_hse06_10hf_bader_spin_density
 _atom_site_hse06_10hf_ddec_charge
 _atom_site_hse06_10hf_ddec_spin_density
 _atom_site_hse06_10hf_ddec_sum_bond_order
 _atom_site_hse06_10hf_magmom
 _atom_site_hse06_bader_spin_density
 _atom_site_hse06_ddec_charge
 _atom_site_hse06_ddec_spin_density
 _atom_site_hse06_ddec_sum_bond_order
 _atom_site_hse06_magmom
 _atom_site_pbe_bader_spin_density
 _atom_site_pbe_cm5_charge
 _atom_site_pbe_ddec_charge
 _atom_site_pbe_ddec_spin_density
 _atom_site_pbe_ddec_sum_bond_order
 _atom_site_pbe_magmom
H  H0  1  0.63388688  0.44056409  0.05493720  1  0  0.131486  0  0.955815  0  0  0.135462  0  1.026537  0  0  0.140088  0  1.02127  0  0  0.132049  0.132069  0  1.03033  0
H  H1  1  0.86612287  0.55944137  0.55494332  1  0  0.13145  0  0.955883  0  0  0.13542  0  1.026593  0  0  0.140044  0  1.021328  0  0  0.132049  0.132033  0  1.030388  0
H  H2  1  0.36611429  0.55944140  0.94505484  1  0  0.131526  0  0.955895  0  0  0.135443  0  1.026676  0  0  0.140068  0  1.021408  0  0  0.13208  0.132051  0  1.03047  0
H  H3  1  0.13388978  0.44056040  0.44506112  1  0  0.131436  0  0.955802  0  0  0.135373  0  1.026546  0  0  0.140002  0  1.021275  0  0  0.132003  0.131978  0  1.030339  0
H  H4  1  0.77452958  0.16726519  0.28619854  1  0  0.124372  0  0.935  0  0  0.13042  0  1.00177  0  0  0.134955  0  0.996748  0  0  0.131105  0.127023  0  1.005605  0
H  H5  1  0.72546738  0.83273225  0.78620454  1  0  0.124393  0  0.934833  0  0  0.130417  0  1.001614  0  0  0.134957  0  0.99659  0  0  0.131098  0.127016  0  1.005464  0
H  H6  1  0.22546702  0.83273080  0.71378996  1  0  0.124355  0  0.935069  0  0  0.130398  0  1.001846  0  0  0.134935  0  0.996827  0  0  0.131093  0.127001  0  1.005688  0
H  H7  1  0.27453620  0.16726472  0.21379901  1  0  0.124406  0  0.935014  0  0  0.130453  0  1.001767  0  0  0.134988  0  0.996748  0  0  0.131125  0.127064  0  1.005587  0
H  H8  1  0.05100654  0.01611708  0.13244132  1  0  0.117258  0  0.962207  0  0  0.123373  0  1.029383  0  0  0.127032  0  1.027252  0  0  0.110953  0.120759  0  1.031026  0
H  H9  1  0.44898294  0.98389115  0.63245049  1  0  0.117102  0  0.962135  0  0  0.123258  0  1.029297  0  0  0.126911  0  1.02718  0  0  0.110975  0.12065  0  1.030939  0
H  H10  1  0.94896427  0.98389962  0.86755426  1  0  0.117161  0  0.962269  0  0  0.123325  0  1.029434  0  0  0.126982  0  1.027308  0  0  0.110993  0.120711  0  1.03108  0
H  H11  1  0.55102298  0.01610394  0.36755306  1  0  0.117036  0  0.962099  0  0  0.123215  0  1.02925  0  0  0.126866  0  1.027138  0  0  0.110948  0.120604  0  1.03089  0
H  H12  1  0.60188800  0.50985218  0.43067184  1  0  0.108347  0  0.947188  0  0  0.117332  0  1.013641  0  0  0.121135  0  1.009256  0  0  0.112009  0.114534  0  1.016859  0
H  H13  1  0.89810692  0.49013685  0.93067864  1  0  0.108358  0  0.947117  0  0  0.117273  0  1.013654  0  0  0.121076  0  1.00927  0  0  0.111949  0.114477  0  1.016866  0
H  H14  1  0.39812261  0.49013915  0.56932285  1  0  0.108315  0  0.94709  0  0  0.117299  0  1.013548  0  0  0.121102  0  1.009165  0  0  0.11199  0.114504  0  1.016765  0
H  H15  1  0.10188759  0.50985533  0.06932845  1  0  0.108361  0  0.947195  0  0  0.117357  0  1.013632  0  0  0.121158  0  1.009247  0  0  0.112005  0.114557  0  1.016845  0
H  H16  1  0.70342773  0.29458488  0.46444681  1  0  0.131115  0  0.929075  0  0  0.140212  0  0.984052  0  0  0.143699  0  0.982895  0  0  0.117174  0.137631  0  0.985191  0
H  H17  1  0.79656343  0.70540299  0.96445059  1  0  0.131147  0  0.929063  0  0  0.140296  0  0.983994  0  0  0.143784  0  0.982832  0  0  0.117177  0.13769  0  0.985156  0
H  H18  1  0.29657936  0.70540927  0.53554346  1  0  0.131226  0  0.928853  0  0  0.140339  0  0.9838  0  0  0.143831  0  0.982631  0  0  0.117189  0.137703  0  0.985002  0
H  H19  1  0.20342429  0.29458915  0.03555030  1  0  0.131187  0  0.92895  0  0  0.140282  0  0.983916  0  0  0.143769  0  0.982756  0  0  0.117182  0.137665  0  0.985092  0
Pb  Pb20  1  0.37349163  0.83745399  0.11992493  1  0  1.373283  0  1.380895  0  0  1.195559  0  1.779301  0  0  1.258367  0  1.734144  0  0  0.643892  1.149915  0  1.810987  0
Pb  Pb21  1  0.12650359  0.16254296  0.61993029  1  0  1.373259  0  1.380988  0  0  1.195543  0  1.779424  0  0  1.258342  0  1.734261  0  0  0.643878  1.149894  0  1.8111  0
Pb  Pb22  1  0.62650689  0.16254485  0.88007331  1  0  1.373312  0  1.38087  0  0  1.195613  0  1.779287  0  0  1.258419  0  1.734128  0  0  0.64391  1.14997  0  1.810968  0
Pb  Pb23  1  0.87348450  0.83745108  0.38007681  1  0  1.37327  0  1.380907  0  0  1.195554  0  1.779336  0  0  1.258361  0  1.734171  0  0  0.643884  1.149903  0  1.811036  0
C  C24  1  0.65101117  0.41560807  0.14710547  1  0  0.00581  0  3.561525  0  0  -0.057957  0  3.812889  0  0  -0.049842  0  3.824585  0  0  0.043544  -0.062505  0  3.80477  0
C  C25  1  0.84899669  0.58439401  0.64710599  1  0  0.00589  0  3.561741  0  0  -0.05778  0  3.813107  0  0  -0.049658  0  3.82479  0  0  0.043571  -0.062336  0  3.805009  0
C  C26  1  0.34898710  0.58439645  0.85289986  1  0  0.005864  0  3.561562  0  0  -0.057862  0  3.812888  0  0  -0.049739  0  3.824563  0  0  0.04355  -0.06241  0  3.804773  0
C  C27  1  0.15101522  0.41560396  0.35289225  1  0  0.005798  0  3.561738  0  0  -0.057799  0  3.812994  0  0  -0.049684  0  3.824684  0  0  0.043624  -0.062345  0  3.804879  0
C  C28  1  0.76773376  0.94962959  0.07751035  1  0  0.681459  0  3.92646  0  0  0.63352  0  4.213281  0  0  0.670106  0  4.204607  0  0  0.209361  0.608759  0  4.217745  0
C  C29  1  0.73226831  0.05038328  0.57751363  1  0  0.681456  0  3.926239  0  0  0.633473  0  4.213141  0  0  0.670038  0  4.204504  0  0  0.209389  0.608725  0  4.217579  0
C  C30  1  0.23225840  0.05038533  0.92248258  1  0  0.681116  0  3.926579  0  0  0.633208  0  4.213378  0  0  0.669769  0  4.204752  0  0  0.209287  0.608452  0  4.217824  0
C  C31  1  0.26773527  0.94961370  0.42248726  1  0  0.681404  0  3.926421  0  0  0.633432  0  4.213332  0  0  0.669996  0  4.204698  0  0  0.209381  0.608668  0  4.21779  0
C  C32  1  0.61149684  0.49094676  0.24155297  1  0  -0.085583  0  3.773342  0  0  -0.057737  0  4.012522  0  0  -0.06875  0  4.035684  0  0  -0.009071  -0.051078  0  3.997277  0
C  C33  1  0.88850310  0.50905569  0.74154186  1  0  -0.085528  0  3.773317  0  0  -0.057669  0  4.012454  0  0  -0.068683  0  4.035613  0  0  -0.009015  -0.05102  0  3.997227  0
C  C34  1  0.38850150  0.50905113  0.75844881  1  0  -0.085549  0  3.773413  0  0  -0.057688  0  4.012533  0  0  -0.068698  0  4.03569  0  0  -0.009023  -0.051033  0  3.997295  0
C  C35  1  0.11150121  0.49094508  0.25845637  1  0  -0.085564  0  3.773328  0  0  -0.057773  0  4.012545  0  0  -0.06879  0  4.035714  0  0  -0.009124  -0.051127  0  3.997312  0
C  C36  1  0.54672957  0.61618728  0.21652105  1  0  0.634032  0  3.956643  0  0  0.582871  0  4.246943  0  0  0.616565  0  4.244167  0  0  0.20518  0.560105  0  4.247779  0
C  C37  1  0.95328457  0.38381349  0.71652804  1  0  0.634083  0  3.956149  0  0  0.582908  0  4.246481  0  0  0.6166  0  4.243702  0  0  0.205262  0.560142  0  4.24732  0
C  C38  1  0.45327284  0.38381063  0.78347631  1  0  0.634094  0  3.956591  0  0  0.582922  0  4.2469  0  0  0.616614  0  4.244123  0  0  0.205267  0.560154  0  4.247738  0
C  C39  1  0.04672111  0.61618729  0.28347551  1  0  0.633954  0  3.956508  0  0  0.582793  0  4.246831  0  0  0.616487  0  4.244055  0  0  0.205232  0.560034  0  4.24766  0
C  C40  1  0.72677999  0.25899565  0.27975647  1  0  0.020167  0  3.560069  0  0  -0.036344  0  3.815862  0  0  -0.028524  0  3.826319  0  0  0.041549  -0.041411  0  3.809304  0
C  C41  1  0.77322564  0.74099808  0.77976252  1  0  0.020182  0  3.560087  0  0  -0.036179  0  3.815863  0  0  -0.028367  0  3.826325  0  0  0.041536  -0.04125  0  3.809305  0
C  C42  1  0.27322124  0.74100320  0.72024177  1  0  0.020238  0  3.560192  0  0  -0.036296  0  3.816008  0  0  -0.028484  0  3.826468  0  0  0.041537  -0.041364  0  3.809444  0
C  C43  1  0.22678281  0.25899607  0.22024192  1  0  0.019934  0  3.560306  0  0  -0.03656  0  3.816137  0  0  -0.028739  0  3.826591  0  0  0.041443  -0.041635  0  3.80958  0
C  C44  1  0.96459010  0.99384642  0.05476112  1  0  -0.15795  0  3.652371  0  0  -0.176185  0  3.906787  0  0  -0.181427  0  3.920669  0  0  -0.074153  -0.172544  0  3.897165  0
C  C45  1  0.53539614  0.00616364  0.55474564  1  0  -0.15775  0  3.653103  0  0  -0.176012  0  3.907553  0  0  -0.181241  0  3.921445  0  0  -0.074216  -0.172377  0  3.897925  0
C  C46  1  0.03538145  0.00617408  0.94524067  1  0  -0.157764  0  3.652167  0  0  -0.176068  0  3.906563  0  0  -0.181298  0  3.920456  0  0  -0.07424  -0.172422  0  3.896926  0
C  C47  1  0.46460824  0.99383049  0.44526057  1  0  -0.157716  0  3.653071  0  0  -0.176005  0  3.907532  0  0  -0.181232  0  3.921428  0  0  -0.074183  -0.172379  0  3.897946  0
C  C48  1  0.63109755  0.44930125  0.35753566  1  0  -0.035978  0  3.684151  0  0  -0.077012  0  3.950427  0  0  -0.070347  0  3.963774  0  0  -0.071787  -0.081249  0  3.941689  0
C  C49  1  0.86889875  0.55069389  0.85753742  1  0  -0.036137  0  3.683548  0  0  -0.077114  0  3.949853  0  0  -0.070448  0  3.9632  0  0  -0.071825  -0.08133  0  3.941068  0
C  C50  1  0.36890646  0.55069099  0.64247055  1  0  -0.036078  0  3.684091  0  0  -0.077103  0  3.95034  0  0  -0.070457  0  3.963728  0  0  -0.071862  -0.081312  0  3.941525  0
C  C51  1  0.13110076  0.44930306  0.14246436  1  0  -0.036091  0  3.683786  0  0  -0.077138  0  3.950082  0  0  -0.070467  0  3.963428  0  0  -0.071829  -0.081353  0  3.941301  0
C  C52  1  0.68698223  0.33114965  0.37577431  1  0  -0.061038  0  3.7092  0  0  -0.075634  0  3.9765  0  0  -0.079646  0  3.992816  0  0  -0.069157  -0.073455  0  3.966067  0
C  C53  1  0.81301076  0.66885485  0.87577136  1  0  -0.061058  0  3.709374  0  0  -0.075756  0  3.976646  0  0  -0.07977  0  3.992969  0  0  -0.069117  -0.073561  0  3.966213  0
C  C54  1  0.31302092  0.66885206  0.62422482  1  0  -0.06112  0  3.70893  0  0  -0.07574  0  3.976256  0  0  -0.079751  0  3.992575  0  0  -0.069139  -0.073519  0  3.965834  0
C  C55  1  0.18698658  0.33114493  0.12422865  1  0  -0.061008  0  3.709126  0  0  -0.075586  0  3.976397  0  0  -0.0796  0  3.992716  0  0  -0.069104  -0.073383  0  3.965967  0
N  N56  1  0.71115008  0.30244803  0.16673730  1  0  0.243468  0  3.782954  0  0  0.337003  0  3.988921  0  0  0.336699  0  4.012204  0  0  -0.107638  0.336433  0  3.973043  0
N  N57  1  0.78885905  0.69755205  0.66674020  1  0  0.243527  0  3.782676  0  0  0.336822  0  3.988859  0  0  0.336521  0  4.012137  0  0  -0.107691  0.336254  0  3.972985  0
N  N58  1  0.28885504  0.69754990  0.83325828  1  0  0.243486  0  3.783177  0  0  0.337049  0  3.989049  0  0  0.336749  0  4.01233  0  0  -0.107601  0.336476  0  3.973174  0
N  N59  1  0.21115403  0.30244497  0.33326246  1  0  0.243685  0  3.782943  0  0  0.337095  0  3.988957  0  0  0.336794  0  4.01224  0  0  -0.107615  0.336526  0  3.973076  0
O  O60  1  0.65820435  0.92420237  0.98984470  1  0  -0.676827  0  1.965708  0  0  -0.604042  0  2.196545  0  0  -0.636235  0  2.190098  0  0  -0.294163  -0.581111  0  2.200005  0
O  O61  1  0.84178934  0.07580338  0.48983888  1  0  -0.676924  0  1.965806  0  0  -0.604097  0  2.196608  0  0  -0.636289  0  2.190188  0  0  -0.294211  -0.581165  0  2.200052  0
O  O62  1  0.34178225  0.07580493  0.01015620  1  0  -0.676712  0  1.965792  0  0  -0.60391  0  2.196537  0  0  -0.636103  0  2.19012  0  0  -0.294082  -0.580982  0  2.199985  0
O  O63  1  0.15821078  0.92418978  0.51015936  1  0  -0.676858  0  1.965809  0  0  -0.604042  0  2.196597  0  0  -0.636234  0  2.19018  0  0  -0.294157  -0.581104  0  2.20005  0
O  O64  1  0.51247892  0.63975258  0.10813137  1  0  -0.64085  0  1.981387  0  0  -0.571495  0  2.217588  0  0  -0.602289  0  2.211533  0  0  -0.295251  -0.549779  0  2.220915  0
O  O65  1  0.98753372  0.36025639  0.60813167  1  0  -0.640833  0  1.981036  0  0  -0.571518  0  2.217332  0  0  -0.60231  0  2.211277  0  0  -0.295258  -0.549802  0  2.220655  0
O  O66  1  0.48752675  0.36024820  0.89186776  1  0  -0.640962  0  1.98132  0  0  -0.571613  0  2.217541  0  0  -0.602405  0  2.211484  0  0  -0.2953  -0.549899  0  2.220868  0
O  O67  1  0.01247486  0.63974535  0.39187189  1  0  -0.64085  0  1.981055  0  0  -0.571556  0  2.217357  0  0  -0.60235  0  2.211302  0  0  -0.295347  -0.549842  0  2.220681  0
O  O68  1  0.76246064  0.23555023  0.07797326  1  0  -0.558957  0  1.803986  0  0  -0.520354  0  2.025583  0  0  -0.550407  0  2.029969  0  0  -0.225505  -0.49892  0  2.022091  0
O  O69  1  0.73754927  0.76445415  0.57798246  1  0  -0.559055  0  1.804124  0  0  -0.52034  0  2.025711  0  0  -0.550389  0  2.030088  0  0  -0.225464  -0.498903  0  2.02222  0
O  O70  1  0.23754423  0.76445339  0.92201257  1  0  -0.559091  0  1.804213  0  0  -0.520453  0  2.025709  0  0  -0.550505  0  2.030091  0  0  -0.225526  -0.499021  0  2.022224  0
O  O71  1  0.26247189  0.23554956  0.42202110  1  0  -0.55898  0  1.804028  0  0  -0.520336  0  2.025633  0  0  -0.550387  0  2.030016  0  0  -0.225471  -0.498898  0  2.022134  0
O  O72  1  0.71387985  0.93790774  0.18507866  1  0  -0.691486  0  1.987396  0  0  -0.618208  0  2.225442  0  0  -0.651601  0  2.21821  0  0  -0.293346  -0.594694  0  2.229614  0
O  O73  1  0.78612048  0.06210830  0.68508223  1  0  -0.691454  0  1.987541  0  0  -0.618166  0  2.225628  0  0  -0.651549  0  2.218406  0  0  -0.293282  -0.594657  0  2.229794  0
O  O74  1  0.28610360  0.06210429  0.81491249  1  0  -0.691314  0  1.987616  0  0  -0.618026  0  2.225589  0  0  -0.651408  0  2.218377  0  0  -0.293288  -0.594518  0  2.229756  0
O  O75  1  0.21389137  0.93789630  0.31491689  1  0  -0.691417  0  1.987563  0  0  -0.618112  0  2.225591  0  0  -0.651495  0  2.21837  0  0  -0.293323  -0.594598  0  2.229761  0
O  O76  1  0.52720851  0.68986456  0.30224018  1  0  -0.662115  0  1.924411  0  0  -0.600797  0  2.151275  0  0  -0.629588  0  2.146301  0  0  -0.306734  -0.580493  0  2.154034  0
O  O77  1  0.97281078  0.31013481  0.80224426  1  0  -0.662123  0  1.92425  0  0  -0.600811  0  2.151137  0  0  -0.629601  0  2.146168  0  0  -0.306813  -0.580508  0  2.153894  0
O  O78  1  0.47279389  0.31013335  0.69776072  1  0  -0.66209  0  1.924491  0  0  -0.600769  0  2.151342  0  0  -0.629559  0  2.146378  0  0  -0.306781  -0.580466  0  2.1541  0
O  O79  1  0.02719341  0.68985837  0.19776195  1  0  -0.661997  0  1.924596  0  0  -0.600671  0  2.151448  0  0  -0.629462  0  2.146481  0  0  -0.306726  -0.58037  0  2.154201  0
