# generated using pymatgen
data_CuH11C11SN3
_symmetry_space_group_name_H-M   'P 1'
_cell_length_a   5.79520681
_cell_length_b   10.54335064
_cell_length_c   18.39279347
_cell_angle_alpha   89.99926997
_cell_angle_beta   89.99970222
_cell_angle_gamma   99.84643406
_symmetry_Int_Tables_number   1
_chemical_formula_structural   CuH11C11SN3
_chemical_formula_sum   'Cu4 H44 C44 S4 N12'
_cell_volume   1107.26196192
_cell_formula_units_Z   4
loop_
 _symmetry_equiv_pos_site_id
 _symmetry_equiv_pos_as_xyz
  1  'x, y, z'
loop_
 _atom_site_type_symbol
 _atom_site_label
 _atom_site_symmetry_multiplicity
 _atom_site_fract_x
 _atom_site_fract_y
 _atom_site_fract_z
 _atom_site_occupancy
 _atom_site_hle17_bader_spin_density
 _atom_site_hle17_ddec_charge
 _atom_site_hle17_ddec_spin_density
 _atom_site_hle17_ddec_sum_bond_order
 _atom_site_hle17_magmom
 _atom_site_hse06_10hf_bader_spin_density
 _atom_site_hse06_10hf_ddec_charge
 _atom_site_hse06_10hf_ddec_spin_density
 _atom_site_hse06_10hf_ddec_sum_bond_order
 _atom_site_hse06_10hf_magmom
 _atom_site_hse06_bader_spin_density
 _atom_site_hse06_ddec_charge
 _atom_site_hse06_ddec_spin_density
 _atom_site_hse06_ddec_sum_bond_order
 _atom_site_hse06_magmom
 _atom_site_pbe_bader_charge
 _atom_site_pbe_bader_spin_density
 _atom_site_pbe_cm5_charge
 _atom_site_pbe_ddec_charge
 _atom_site_pbe_ddec_spin_density
 _atom_site_pbe_ddec_sum_bond_order
 _atom_site_pbe_magmom
Cu  Cu0  1  0.90492304  0.53079365  0.56068862  1  0  0.38361  0  2.233593  0  0  0.300296  0  2.744693  0  0  0.297503  0  2.69897  0  0.616708  0  0.467637  0.30466  0  2.774328  0
Cu  Cu1  1  0.09511912  0.96919741  0.06068518  1  0  0.383598  0  2.23353  0  0  0.30032  0  2.744588  0  0  0.297535  0  2.698869  0  0.616492  0  0.46763  0.304687  0  2.774226  0
Cu  Cu2  1  0.09513250  0.46919888  0.43931391  1  0  0.383692  0  2.233547  0  0  0.300428  0  2.744617  0  0  0.297647  0  2.698908  0  0.61646  0  0.467702  0.304791  0  2.774249  0
Cu  Cu3  1  0.90494701  0.03079030  0.93930865  1  0  0.383506  0  2.233678  0  0  0.300179  0  2.744771  0  0  0.297397  0  2.699047  0  0.616414  0  0.467579  0.304546  0  2.77441  0
H  H4  1  0.32201625  0.35189518  0.58040776  1  0  0.106854  0  0.979319  0  0  0.114789  0  1.047454  0  0  0.117189  0  1.04615  0  0.097973  0  0.100352  0.113159  0  1.04838  0
H  H5  1  0.67801583  0.14810870  0.08038529  1  0  0.106805  0  0.979281  0  0  0.114747  0  1.047403  0  0  0.11716  0  1.046082  0  0.098485  0  0.100354  0.113117  0  1.048331  0
H  H6  1  0.67800974  0.64810216  0.41962033  1  0  0.106808  0  0.97917  0  0  0.114677  0  1.04738  0  0  0.117091  0  1.046055  0  0.098293  0  0.100304  0.113045  0  1.048311  0
H  H7  1  0.32203206  0.85189249  0.91958843  1  0  0.106811  0  0.979288  0  0  0.114785  0  1.047428  0  0  0.11718  0  1.04613  0  0.098022  0  0.100362  0.113157  0  1.048351  0
H  H8  1  0.54470683  0.20022217  0.64229123  1  0  0.0886  0  0.95094  0  0  0.101079  0  1.008948  0  0  0.103627  0  1.008729  0  0.059419  0  0.095851  0.099446  0  1.008749  0
H  H9  1  0.45529661  0.29977386  0.14226550  1  0  0.088455  0  0.951044  0  0  0.10097  0  1.009022  0  0  0.103516  0  1.008803  0  0.059405  0  0.095761  0.09932  0  1.00884  0
H  H10  1  0.45528029  0.79977228  0.35774446  1  0  0.088319  0  0.951085  0  0  0.100828  0  1.009108  0  0  0.103373  0  1.008893  0  0.058889  0  0.09572  0.099198  0  1.008902  0
H  H11  1  0.54471722  0.70021770  0.85770712  1  0  0.088623  0  0.95102  0  0  0.101126  0  1.009  0  0  0.103673  0  1.008781  0  0.059327  0  0.095892  0.099492  0  1.008802  0
H  H12  1  0.45367661  0.13200984  0.77056919  1  0  0.079077  0  0.972123  0  0  0.092196  0  1.032284  0  0  0.0941  0  1.032187  0  0.055753  0  0.09347  0.090721  0  1.032969  0
H  H13  1  0.54629363  0.36798183  0.27054292  1  0  0.079082  0  0.972097  0  0  0.092229  0  1.032214  0  0  0.094128  0  1.032118  0  0.055652  0  0.093551  0.090755  0  1.032898  0
H  H14  1  0.54626422  0.86798557  0.22946433  1  0  0.079058  0  0.971997  0  0  0.092246  0  1.032063  0  0  0.094155  0  1.03196  0  0.055263  0  0.093503  0.09077  0  1.032749  0
H  H15  1  0.45367872  0.63200396  0.72943243  1  0  0.078992  0  0.972095  0  0  0.092113  0  1.032263  0  0  0.094018  0  1.032163  0  0.055711  0  0.093434  0.090638  0  1.032949  0
H  H16  1  0.14966807  0.21609999  0.84104190  1  0  0.09745  0  0.999382  0  0  0.099925  0  1.078455  0  0  0.10387  0  1.075453  0  0.122728  0  0.092931  0.097103  0  1.080544  0
H  H17  1  0.85030327  0.28390267  0.34101943  1  0  0.097228  0  0.999378  0  0  0.099733  0  1.07847  0  0  0.103677  0  1.075466  0  0.12303  0  0.092794  0.09691  0  1.080565  0
H  H18  1  0.85027208  0.78390986  0.15898455  1  0  0.09732  0  0.999157  0  0  0.099759  0  1.078272  0  0  0.103704  0  1.075265  0  0.123204  0  0.09279  0.096938  0  1.080364  0
H  H19  1  0.14966600  0.71608985  0.65895863  1  0  0.097438  0  0.99927  0  0  0.099933  0  1.078338  0  0  0.103878  0  1.075334  0  0.122599  0  0.092927  0.097112  0  1.080429  0
H  H20  1  0.69492698  0.52310886  0.71732279  1  0  0.087663  0  0.947826  0  0  0.099252  0  1.010176  0  0  0.101686  0  1.006487  0  0.124697  0  0.134311  0.097339  0  1.013281  0
H  H21  1  0.30506928  0.97688992  0.21732316  1  0  0.087676  0  0.947775  0  0  0.099248  0  1.010147  0  0  0.101687  0  1.006452  0  0.124879  0  0.134311  0.097334  0  1.013253  0
H  H22  1  0.30505571  0.47689906  0.28267267  1  0  0.087676  0  0.947737  0  0  0.099246  0  1.010117  0  0  0.101686  0  1.006422  0  0.124854  0  0.134315  0.097331  0  1.013222  0
H  H23  1  0.69493862  0.02311031  0.78267448  1  0  0.087647  0  0.947779  0  0  0.099236  0  1.010141  0  0  0.101672  0  1.006452  0  0.124782  0  0.134307  0.097321  0  1.013245  0
H  H24  1  0.74839275  0.29594793  0.86506272  1  0  0.077847  0  0.950133  0  0  0.09258  0  1.016984  0  0  0.092694  0  1.017183  0  0.105001  0  0.106161  0.092545  0  1.016664  0
H  H25  1  0.25158980  0.20405451  0.36505711  1  0  0.077882  0  0.950095  0  0  0.092453  0  1.017149  0  0  0.092572  0  1.017354  0  0.105045  0  0.106098  0.092415  0  1.016825  0
H  H26  1  0.25156780  0.70406096  0.13493926  1  0  0.077805  0  0.950118  0  0  0.092464  0  1.01706  0  0  0.092578  0  1.017266  0  0.104944  0  0.106127  0.09243  0  1.01674  0
H  H27  1  0.74838614  0.79594282  0.63493781  1  0  0.077878  0  0.950045  0  0  0.092553  0  1.016954  0  0  0.092668  0  1.017156  0  0.105584  0  0.106124  0.092516  0  1.016633  0
H  H28  1  0.63241366  0.43609516  0.84359236  1  0  0.072633  0  0.912088  0  0  0.09265  0  0.968259  0  0  0.093084  0  0.968457  0  0.048594  0  0.110809  0.092182  0  0.968363  0
H  H29  1  0.36757428  0.06391123  0.34358511  1  0  0.072773  0  0.911877  0  0  0.092737  0  0.968107  0  0  0.093199  0  0.968282  0  0.048686  0  0.110839  0.092268  0  0.96821  0
H  H30  1  0.36754696  0.56391951  0.15641343  1  0  0.07274  0  0.912111  0  0  0.092743  0  0.968267  0  0  0.093209  0  0.968428  0  0.048753  0  0.110863  0.092275  0  0.968371  0
H  H31  1  0.63241644  0.93609478  0.65640818  1  0  0.072622  0  0.912106  0  0  0.092628  0  0.96827  0  0  0.093081  0  0.968446  0  0.048639  0  0.110789  0.09216  0  0.968373  0
H  H32  1  0.01231577  0.57424161  0.87760894  1  0  0.067475  0  0.954444  0  0  0.085599  0  1.015818  0  0  0.085663  0  1.0181  0  0.049495  0  0.086229  0.085401  0  1.014424  0
H  H33  1  0.98767342  0.92575702  0.37759517  1  0  0.067443  0  0.954295  0  0  0.085572  0  1.015683  0  0  0.085635  0  1.017963  0  0.049136  0  0.086128  0.085371  0  1.014292  0
H  H34  1  0.98766541  0.42576150  0.12240338  1  0  0.067375  0  0.954424  0  0  0.085526  0  1.015752  0  0  0.085588  0  1.018035  0  0.049231  0  0.086173  0.085326  0  1.014361  0
H  H35  1  0.01232285  0.07423358  0.62238779  1  0  0.067598  0  0.954362  0  0  0.08568  0  1.015766  0  0  0.085738  0  1.018042  0  0.049577  0  0.086281  0.085482  0  1.014369  0
H  H36  1  0.14165230  0.43622877  0.89074724  1  0  0.063875  0  0.943351  0  0  0.080887  0  1.008955  0  0  0.081353  0  1.009752  0  0.008541  0  0.087027  0.080419  0  1.008739  0
H  H37  1  0.85831979  0.06377049  0.39073782  1  0  0.063888  0  0.943439  0  0  0.08093  0  1.008989  0  0  0.081396  0  1.009783  0  0.008349  0  0.087039  0.080458  0  1.008778  0
H  H38  1  0.85830008  0.56377049  0.10926182  1  0  0.063974  0  0.943332  0  0  0.080962  0  1.008914  0  0  0.081429  0  1.009707  0  0.008395  0  0.087025  0.080492  0  1.008698  0
H  H39  1  0.14165375  0.93621915  0.60925112  1  0  0.063886  0  0.943331  0  0  0.080883  0  1.008957  0  0  0.081349  0  1.009751  0  0.008442  0  0.087014  0.080414  0  1.008742  0
H  H40  1  0.74507133  0.51141296  0.98289800  1  0  0.055374  0  0.937445  0  0  0.073328  0  1.000767  0  0  0.074187  0  1.000957  0  0.026592  0  0.080992  0.072675  0  1.000693  0
H  H41  1  0.25490747  0.98856897  0.48288478  1  0  0.055097  0  0.937364  0  0  0.073138  0  1.000644  0  0  0.074033  0  1.000798  0  0.02662  0  0.080959  0.072482  0  1.000575  0
H  H42  1  0.25490003  0.48858630  0.01711268  1  0  0.05513  0  0.937487  0  0  0.073137  0  1.000775  0  0  0.074026  0  1.000933  0  0.026853  0  0.080957  0.072485  0  1.000709  0
H  H43  1  0.74508694  0.01141008  0.51709872  1  0  0.055213  0  0.937442  0  0  0.073194  0  1.000729  0  0  0.074064  0  1.000905  0  0.0267  0  0.080953  0.072539  0  1.000655  0
H  H44  1  0.85257059  0.36495204  0.99205213  1  0  0.063748  0  0.942503  0  0  0.085404  0  0.999969  0  0  0.084834  0  1.002501  0  0.053898  0  0.083603  0.085709  0  0.99836  0
H  H45  1  0.14743112  0.13504226  0.49204163  1  0  0.063732  0  0.942502  0  0  0.085365  0  1.000038  0  0  0.084791  0  1.002579  0  0.053775  0  0.083637  0.085677  0  0.998422  0
H  H46  1  0.14740287  0.63505396  0.00795638  1  0  0.06372  0  0.942506  0  0  0.085334  0  1.000037  0  0  0.084755  0  1.00258  0  0.053812  0  0.083596  0.085646  0  0.998427  0
H  H47  1  0.85257146  0.86494642  0.50794677  1  0  0.063765  0  0.942562  0  0  0.08541  0  0.999992  0  0  0.08483  0  1.002546  0  0.053838  0  0.083608  0.085719  0  0.998373  0
C  C48  1  0.10907506  0.36789682  0.67581686  1  0  0.138216  0  3.823398  0  0  0.139021  0  4.065293  0  0  0.141118  0  4.089313  0  0.4041  0  0.082579  0.137882  0  4.048933  0
C  C49  1  0.89094761  0.13210912  0.17580527  1  0  0.13833  0  3.823545  0  0  0.139228  0  4.065373  0  0  0.14133  0  4.089393  0  0.404065  0  0.082516  0.138088  0  4.049015  0
C  C50  1  0.89093868  0.63211111  0.32419654  1  0  0.138044  0  3.823517  0  0  0.138917  0  4.065386  0  0  0.141017  0  4.089408  0  0.403745  0  0.08249  0.137778  0  4.049025  0
C  C51  1  0.10907380  0.86789014  0.82418367  1  0  0.13808  0  3.823743  0  0  0.138944  0  4.065557  0  0  0.141052  0  4.089575  0  0.403928  0  0.08248  0.137803  0  4.049197  0
C  C52  1  0.28350216  0.32152813  0.63630846  1  0  -0.13597  0  3.734897  0  0  -0.154209  0  3.985001  0  0  -0.156559  0  4.005459  0  -0.097315  0  -0.09366  -0.152932  0  3.971179  0
C  C53  1  0.71651311  0.17847205  0.13629034  1  0  -0.136044  0  3.734634  0  0  -0.154323  0  3.984775  0  0  -0.156683  0  4.005231  0  -0.098675  0  -0.093685  -0.153046  0  3.970948  0
C  C54  1  0.71650799  0.67846825  0.36371582  1  0  -0.135824  0  3.734311  0  0  -0.154017  0  3.984447  0  0  -0.156375  0  4.004899  0  -0.098388  0  -0.093491  -0.152741  0  3.970626  0
C  C55  1  0.28351317  0.82152625  0.86368936  1  0  -0.135831  0  3.735075  0  0  -0.154136  0  3.985126  0  0  -0.156486  0  4.005589  0  -0.097333  0  -0.093656  -0.152859  0  3.971302  0
C  C56  1  0.40616201  0.23675961  0.67161902  1  0  -0.085256  0  3.799785  0  0  -0.103521  0  4.061516  0  0  -0.105709  0  4.083368  0  -0.010238  0  -0.103057  -0.101513  0  4.046617  0
C  C57  1  0.59384383  0.26324172  0.17159492  1  0  -0.085143  0  3.799623  0  0  -0.103424  0  4.061331  0  0  -0.105614  0  4.083187  0  -0.009364  0  -0.102975  -0.101403  0  4.046438  0
C  C58  1  0.59383148  0.76323868  0.32841178  1  0  -0.085134  0  3.799703  0  0  -0.103442  0  4.061461  0  0  -0.105633  0  4.083323  0  -0.009096  0  -0.103075  -0.101435  0  4.046564  0
C  C59  1  0.40616662  0.73675562  0.82838260  1  0  -0.085497  0  3.800068  0  0  -0.103791  0  4.061814  0  0  -0.105977  0  4.083661  0  -0.01038  0  -0.103192  -0.101782  0  4.046914  0
C  C60  1  0.35652445  0.19896535  0.74426650  1  0  -0.072122  0  3.78455  0  0  -0.092951  0  4.046747  0  0  -0.094783  0  4.069728  0  -0.001772  0  -0.102754  -0.092364  0  4.032237  0
C  C61  1  0.64346086  0.30102761  0.24424784  1  0  -0.071943  0  3.784355  0  0  -0.092772  0  4.046525  0  0  -0.094597  0  4.069492  0  -0.003145  0  -0.10269  -0.092184  0  4.032009  0
C  C62  1  0.64344631  0.80103199  0.25575887  1  0  -0.07175  0  3.78427  0  0  -0.092598  0  4.046365  0  0  -0.094435  0  4.069344  0  -0.002774  0  -0.102516  -0.09201  0  4.031857  0
C  C63  1  0.35653542  0.69896299  0.75573512  1  0  -0.071877  0  3.784497  0  0  -0.092691  0  4.046689  0  0  -0.094522  0  4.06967  0  -0.00184  0  -0.102648  -0.092105  0  4.032178  0
C  C64  1  0.18544130  0.24536674  0.78474377  1  0  -0.152332  0  3.77793  0  0  -0.167585  0  4.031103  0  0  -0.17088  0  4.051378  0  -0.044528  0  -0.101394  -0.16543  0  4.01813  0
C  C65  1  0.81454745  0.25464156  0.28472619  1  0  -0.152118  0  3.777908  0  0  -0.167397  0  4.031043  0  0  -0.170685  0  4.051315  0  -0.050881  0  -0.101388  -0.165243  0  4.018071  0
C  C66  1  0.81452586  0.75464118  0.21527942  1  0  -0.152452  0  3.777795  0  0  -0.167643  0  4.031001  0  0  -0.170933  0  4.051276  0  -0.050978  0  -0.101486  -0.165491  0  4.018029  0
C  C67  1  0.18544312  0.74535289  0.71525840  1  0  -0.152345  0  3.777757  0  0  -0.167633  0  4.030953  0  0  -0.170927  0  4.05123  0  -0.044436  0  -0.101416  -0.16548  0  4.017982  0
C  C68  1  0.06336621  0.33035089  0.74920702  1  0  0.09211  0  3.78854  0  0  0.084293  0  4.022941  0  0  0.087458  0  4.04719  0  0.283105  0  0.088777  0.082143  0  4.007511  0
C  C69  1  0.93663116  0.16965915  0.24919216  1  0  0.091941  0  3.788723  0  0  0.084058  0  4.023161  0  0  0.087211  0  4.047418  0  0.291283  0  0.08891  0.081911  0  4.007726  0
C  C70  1  0.93661910  0.66965992  0.25080801  1  0  0.092202  0  3.788698  0  0  0.084301  0  4.023127  0  0  0.087457  0  4.047382  0  0.291654  0  0.08894  0.082151  0  4.007695  0
C  C71  1  0.06337937  0.83034396  0.75079406  1  0  0.092125  0  3.788478  0  0  0.08427  0  4.022899  0  0  0.087428  0  4.047153  0  0.283293  0  0.088871  0.082121  0  4.007468  0
C  C72  1  0.83124216  0.46460320  0.71460869  1  0  0.204611  0  3.672681  0  0  0.141554  0  3.947805  0  0  0.158395  0  3.957415  0  1.024409  0  0.158519  0.130587  0  3.941397  0
C  C73  1  0.16876258  0.03540468  0.21460579  1  0  0.204545  0  3.672972  0  0  0.141534  0  3.948084  0  0  0.158364  0  3.957703  0  1.024346  0  0.158594  0.13057  0  3.941674  0
C  C74  1  0.16875208  0.53540857  0.28539276  1  0  0.204612  0  3.673006  0  0  0.141583  0  3.948127  0  0  0.158414  0  3.957746  0  1.024542  0  0.158604  0.130621  0  3.941717  0
C  C75  1  0.83125312  0.96459843  0.78539021  1  0  0.204651  0  3.672559  0  0  0.141565  0  3.947699  0  0  0.158407  0  3.957321  0  1.024324  0  0.158516  0.130603  0  3.941286  0
C  C76  1  0.79511819  0.39578818  0.84590685  1  0  0.011504  0  3.633795  0  0  -0.051751  0  3.893606  0  0  -0.046812  0  3.904669  0  0.30058  0  -0.052623  -0.054741  0  3.88551  0
C  C77  1  0.20487293  0.10422868  0.34588329  1  0  0.011395  0  3.633654  0  0  -0.051796  0  3.893605  0  0  -0.046898  0  3.904698  0  0.300448  0  -0.052596  -0.054779  0  3.885496  0
C  C78  1  0.20485316  0.60423322  0.15411525  1  0  0.011384  0  3.633922  0  0  -0.051839  0  3.893705  0  0  -0.046926  0  3.904781  0  0.300486  0  -0.052664  -0.054827  0  3.885598  0
C  C79  1  0.79512221  0.89578599  0.65409096  1  0  0.011464  0  3.633772  0  0  -0.051707  0  3.893487  0  0  -0.04678  0  3.904551  0  0.299886  0  -0.05257  -0.054694  0  3.885389  0
C  C80  1  0.97597022  0.47347531  0.89597102  1  0  -0.131692  0  3.705177  0  0  -0.172535  0  3.966199  0  0  -0.174265  0  3.980446  0  -0.042022  0  -0.169385  -0.171262  0  3.956407  0
C  C81  1  0.02402494  0.02652658  0.39595780  1  0  -0.131987  0  3.704578  0  0  -0.172802  0  3.965568  0  0  -0.174528  0  3.979834  0  -0.04133  0  -0.169341  -0.171523  0  3.955776  0
C  C82  1  0.02400413  0.52653357  0.10404238  1  0  -0.131915  0  3.704698  0  0  -0.1727  0  3.965565  0  0  -0.174432  0  3.979826  0  -0.04161  0  -0.169369  -0.171417  0  3.955778  0
C  C83  1  0.97597426  0.97346787  0.60402516  1  0  -0.131797  0  3.705223  0  0  -0.172646  0  3.966243  0  0  -0.174365  0  3.980486  0  -0.041978  0  -0.169401  -0.171374  0  3.956451  0
C  C84  1  0.90205817  0.46643258  0.97543856  1  0  -0.103465  0  3.703823  0  0  -0.140844  0  3.96118  0  0  -0.142249  0  3.977204  0  -0.031767  0  -0.168512  -0.139738  0  3.95035  0
C  C85  1  0.09790368  0.03355387  0.47543784  1  0  -0.103047  0  3.703255  0  0  -0.1405  0  3.96068  0  0  -0.141932  0  3.976701  0  -0.054592  0  -0.168504  -0.13941  0  3.949857  0
C  C86  1  0.09789016  0.53356476  0.02456179  1  0  -0.103148  0  3.703588  0  0  -0.140532  0  3.960922  0  0  -0.141954  0  3.976934  0  -0.054925  0  -0.168428  -0.139448  0  3.950103  0
C  C87  1  0.90206687  0.96642614  0.52455980  1  0  -0.103319  0  3.703765  0  0  -0.140621  0  3.96104  0  0  -0.142038  0  3.97707  0  -0.031979  0  -0.168426  -0.139513  0  3.950197  0
C  C88  1  0.55314365  0.36502862  0.45960936  1  0  0.284167  0  3.930033  0  0  0.277209  0  4.221142  0  0  0.294284  0  4.233132  0  0.566771  0  0.147446  0.264786  0  4.213776  0
C  C89  1  0.44694020  0.13497112  0.95960573  1  0  0.284497  0  3.929764  0  0  0.277522  0  4.220897  0  0  0.294603  0  4.232886  0  0.568104  0  0.147743  0.265097  0  4.213538  0
C  C90  1  0.44691699  0.63498027  0.54038882  1  0  0.284345  0  3.929793  0  0  0.277388  0  4.220902  0  0  0.29447  0  4.232885  0  0.566967  0  0.147634  0.264961  0  4.213548  0
C  C91  1  0.55312172  0.86502525  0.04039245  1  0  0.284369  0  3.930215  0  0  0.277405  0  4.221309  0  0  0.294477  0  4.233297  0  0.566998  0  0.147522  0.264985  0  4.213948  0
S  S92  1  0.79802925  0.32667896  0.49055137  1  0  -0.288845  0  2.579278  0  0  -0.263939  0  2.9933  0  0  -0.265618  0  2.967689  0  0.033602  0  -0.164109  -0.262284  0  3.009869  0
S  S93  1  0.20204501  0.17331541  0.99054720  1  0  -0.288846  0  2.579314  0  0  -0.26396  0  2.993359  0  0  -0.265639  0  2.967753  0  0.033399  0  -0.164108  -0.262283  0  3.009879  0
S  S94  1  0.20202441  0.67332415  0.50944736  1  0  -0.288795  0  2.579233  0  0  -0.263911  0  2.993268  0  0  -0.265589  0  2.967656  0  0.034032  0  -0.164033  -0.262235  0  3.009791  0
S  S95  1  0.79801601  0.82667808  0.00944827  1  0  -0.288843  0  2.579018  0  0  -0.263922  0  2.993013  0  0  -0.265605  0  2.967405  0  0.033809  0  -0.164063  -0.262268  0  3.009585  0
N  N96  1  0.95908942  0.45185537  0.65598899  1  0  -0.388247  0  3.348622  0  0  -0.330856  0  3.665081  0  0  -0.345201  0  3.672561  0  -1.219265  0  -0.38743  -0.32098  0  3.658996  0
N  N97  1  0.04092438  0.04814769  0.15598664  1  0  -0.3883  0  3.349092  0  0  -0.331022  0  3.6656  0  0  -0.345366  0  3.673086  0  -1.219194  0  -0.387509  -0.321149  0  3.659517  0
N  N98  1  0.04092546  0.54815063  0.34401354  1  0  -0.388275  0  3.348965  0  0  -0.330979  0  3.665485  0  0  -0.345326  0  3.672979  0  -1.21918  0  -0.387521  -0.321105  0  3.659398  0
N  N99  1  0.95910655  0.95185446  0.84401100  1  0  -0.38814  0  3.348657  0  0  -0.33074  0  3.665067  0  0  -0.345102  0  3.672565  0  -1.218911  0  -0.387334  -0.320865  0  3.658984  0
N  N100  1  0.88525754  0.39394075  0.77196213  1  0  -0.124725  0  3.542565  0  0  -0.033688  0  3.762813  0  0  -0.051123  0  3.788631  0  -1.236619  0  -0.244521  -0.022198  0  3.745403  0
N  N101  1  0.11472178  0.10606914  0.27195108  1  0  -0.124516  0  3.542895  0  0  -0.033421  0  3.763089  0  0  -0.050841  0  3.788925  0  -1.237691  0  -0.244576  -0.021934  0  3.745673  0
N  N102  1  0.11470999  0.60607391  0.22804856  1  0  -0.124559  0  3.543097  0  0  -0.033496  0  3.763331  0  0  -0.050924  0  3.789169  0  -1.237776  0  -0.244613  -0.022007  0  3.745917  0
N  N103  1  0.88525821  0.89393012  0.72803786  1  0  -0.124733  0  3.54257  0  0  -0.03367  0  3.762793  0  0  -0.051102  0  3.788619  0  -1.236578  0  -0.244584  -0.022181  0  3.745379  0
N  N104  1  0.37340686  0.39180412  0.43946071  1  0  -0.492173  0  3.103658  0  0  -0.448174  0  3.426235  0  0  -0.457854  0  3.42406  0  -1.286524  0  -0.429282  -0.443311  0  3.429114  0
N  N105  1  0.62668637  0.10820141  0.93945708  1  0  -0.492403  0  3.103273  0  0  -0.448413  0  3.425903  0  0  -0.458089  0  3.42372  0  -1.287858  0  -0.429536  -0.443554  0  3.428788  0
N  N106  1  0.62666646  0.60820669  0.56053747  1  0  -0.492382  0  3.103459  0  0  -0.448399  0  3.426087  0  0  -0.458078  0  3.4239  0  -1.287587  0  -0.429516  -0.443536  0  3.428972  0
N  N107  1  0.37340459  0.89179400  0.06053947  1  0  -0.492266  0  3.104038  0  0  -0.448289  0  3.426651  0  0  -0.457965  0  3.424467  0  -1.286891  0  -0.429328  -0.44343  0  3.429538  0
