# generated using pymatgen
data_CdH19C31N9O4
_symmetry_space_group_name_H-M   'P 1'
_cell_length_a   12.16123422
_cell_length_b   16.24134464
_cell_length_c   22.08560203
_cell_angle_alpha   90.00022840
_cell_angle_beta   90.00001629
_cell_angle_gamma   106.59196570
_symmetry_Int_Tables_number   1
_chemical_formula_structural   CdH19C31N9O4
_chemical_formula_sum   'Cd4 H76 C124 N36 O16'
_cell_volume   4180.60124855
_cell_formula_units_Z   4
loop_
 _symmetry_equiv_pos_site_id
 _symmetry_equiv_pos_as_xyz
  1  'x, y, z'
loop_
 _atom_site_type_symbol
 _atom_site_label
 _atom_site_symmetry_multiplicity
 _atom_site_fract_x
 _atom_site_fract_y
 _atom_site_fract_z
 _atom_site_occupancy
 _atom_site_pbe_bader_charge
 _atom_site_pbe_bader_spin_density
 _atom_site_pbe_cm5_charge
 _atom_site_pbe_ddec_charge
 _atom_site_pbe_ddec_spin_density
 _atom_site_pbe_ddec_sum_bond_order
 _atom_site_pbe_magmom
Cd  Cd0  1  0.91479297  0.63239325  0.13985727  1  1.294233  0  0.776693  0.872033  0  2.227752  0
Cd  Cd1  1  0.08520713  0.86760556  0.13985800  1  1.2943  0  0.776699  0.872032  0  2.227762  0
Cd  Cd2  1  0.08520673  0.36760602  0.86014237  1  1.294274  0  0.776687  0.872004  0  2.227811  0
Cd  Cd3  1  0.91479339  0.13239371  0.86014254  1  1.294253  0  0.776697  0.872002  0  2.227814  0
H  H4  1  0.07619802  0.57955431  0.82502658  1  0.562247  0  0.318627  0.282258  0  1.007826  0
H  H5  1  0.92380139  0.92044609  0.82502715  1  0.562235  0  0.31865  0.28231  0  1.007789  0
H  H6  1  0.92380275  0.42044560  0.17497305  1  0.562268  0  0.318628  0.282271  0  1.007802  0
H  H7  1  0.07619748  0.07955319  0.17497294  1  0.562256  0  0.318633  0.282247  0  1.007869  0
H  H8  1  0.99562584  0.51866227  0.45227377  1  0.538077  0  0.321128  0.249028  0  1.022995  0
H  H9  1  0.00437358  0.98133651  0.45227482  1  0.538113  0  0.321093  0.248979  0  1.023017  0
H  H10  1  0.00437279  0.48133636  0.54772541  1  0.53802  0  0.321135  0.249034  0  1.022967  0
H  H11  1  0.99562694  0.01866277  0.54772572  1  0.538045  0  0.321129  0.249032  0  1.022988  0
H  H12  1  0.48955143  0.57703640  0.14487128  1  0.065663  0  0.100279  0.104982  0  1.044455  0
H  H13  1  0.51044893  0.92296309  0.14486726  1  0.065681  0  0.100306  0.105016  0  1.044436  0
H  H14  1  0.51044958  0.42296416  0.85512881  1  0.065683  0  0.100273  0.104989  0  1.04445  0
H  H15  1  0.48955208  0.07703747  0.85513192  1  0.065671  0  0.100291  0.104999  0  1.044427  0
H  H16  1  0.27562253  0.54888596  0.14509354  1  0.074574  0  0.100487  0.110211  0  1.008976  0
H  H17  1  0.72437758  0.95111289  0.14509054  1  0.074595  0  0.100483  0.11024  0  1.009011  0
H  H18  1  0.72437848  0.45111460  0.85490700  1  0.074555  0  0.100479  0.110198  0  1.008979  0
H  H19  1  0.27562367  0.04888831  0.85490774  1  0.074621  0  0.100497  0.11025  0  1.008976  0
H  H20  1  0.31784587  0.82153714  0.14471496  1  0.130883  0  0.102097  0.118514  0  1.061739  0
H  H21  1  0.68215235  0.67846106  0.14471704  1  0.130834  0  0.102097  0.11848  0  1.061739  0
H  H22  1  0.68215407  0.17846277  0.85528467  1  0.130862  0  0.102098  0.118505  0  1.061736  0
H  H23  1  0.31784841  0.32153886  0.85528304  1  0.13085  0  0.102107  0.118505  0  1.061732  0
H  H24  1  0.73863283  0.31272463  0.15736050  1  0.077256  0  0.102144  0.104032  0  1.026318  0
H  H25  1  0.26136702  0.18727534  0.15735983  1  0.077252  0  0.102142  0.104025  0  1.026331  0
H  H26  1  0.26136711  0.68727529  0.84264004  1  0.077243  0  0.102148  0.104038  0  1.026305  0
H  H27  1  0.73863103  0.81272393  0.84264026  1  0.077273  0  0.102138  0.104016  0  1.026299  0
H  H28  1  0.51382698  0.47396448  0.16122658  1  0.06729  0  0.099271  0.10061  0  1.050858  0
H  H29  1  0.48617288  0.02603551  0.16122683  1  0.067293  0  0.099267  0.100593  0  1.050864  0
H  H30  1  0.48617189  0.52603479  0.83877441  1  0.067284  0  0.09928  0.1006  0  1.050834  0
H  H31  1  0.51382682  0.97396376  0.83877325  1  0.067298  0  0.099281  0.100599  0  1.050847  0
H  H32  1  0.34232851  0.34567850  0.16562065  1  0.10885  0  0.09654  0.097222  0  1.054051  0
H  H33  1  0.65767218  0.15432152  0.16562085  1  0.108846  0  0.096538  0.097225  0  1.054048  0
H  H34  1  0.65767094  0.65432013  0.83437989  1  0.108856  0  0.096537  0.097201  0  1.054022  0
H  H35  1  0.34232776  0.84567839  0.83437924  1  0.108854  0  0.09653  0.097201  0  1.054011  0
H  H36  1  0.74919474  0.73358449  0.73844285  1  0.091575  0  0.10617  0.113965  0  1.025424  0
H  H37  1  0.25080467  0.76641602  0.73844241  1  0.091606  0  0.106149  0.113969  0  1.025454  0
H  H38  1  0.25080627  0.26641606  0.26155724  1  0.091583  0  0.106171  0.11396  0  1.025422  0
H  H39  1  0.74919338  0.23358325  0.26155768  1  0.091606  0  0.10616  0.113975  0  1.02543  0
H  H40  1  0.66998261  0.77307829  0.64109396  1  0.072772  0  0.110024  0.105217  0  0.974265  0
H  H41  1  0.33001653  0.72692163  0.64109341  1  0.072784  0  0.109998  0.105148  0  0.974278  0
H  H42  1  0.33001733  0.22692162  0.35890658  1  0.072759  0  0.110005  0.105203  0  0.974294  0
H  H43  1  0.66998317  0.27307764  0.35890713  1  0.072797  0  0.11  0.105156  0  0.974277  0
H  H44  1  0.73868489  0.72567163  0.54258356  1  0.097958  0  0.106968  0.116301  0  1.003643  0
H  H45  1  0.26131397  0.77432770  0.54258269  1  0.097936  0  0.106965  0.116289  0  1.003652  0
H  H46  1  0.26131316  0.27432764  0.45741698  1  0.097946  0  0.106965  0.116288  0  1.003679  0
H  H47  1  0.73868704  0.22567286  0.45741739  1  0.097928  0  0.106935  0.116234  0  1.003711  0
H  H48  1  0.77885768  0.68290817  0.02685611  1  0.123687  0  0.122186  0.094953  0  0.978524  0
H  H49  1  0.22114168  0.81709317  0.02685671  1  0.123712  0  0.122179  0.094979  0  0.978509  0
H  H50  1  0.22114275  0.31709303  0.97314307  1  0.123687  0  0.122178  0.094934  0  0.978553  0
H  H51  1  0.77885802  0.18290610  0.97314337  1  0.123743  0  0.122174  0.094959  0  0.978506  0
H  H52  1  0.78328558  0.68452550  0.91350253  1  0.107344  0  0.112028  0.121237  0  1.014973  0
H  H53  1  0.21671514  0.81547607  0.91350268  1  0.107583  0  0.112051  0.121263  0  1.014995  0
H  H54  1  0.21671518  0.31547441  0.08649710  1  0.107562  0  0.112036  0.121252  0  1.014953  0
H  H55  1  0.78328562  0.18452385  0.08649741  1  0.107589  0  0.112052  0.121255  0  1.015013  0
H  H56  1  0.07378108  0.58089424  0.92364151  1  0.139443  0  0.112963  0.130628  0  1.028452  0
H  H57  1  0.92621836  0.91910612  0.92364207  1  0.139428  0  0.112962  0.13064  0  1.028439  0
H  H58  1  0.92621959  0.41910761  0.07635857  1  0.139438  0  0.112991  0.130673  0  1.028391  0
H  H59  1  0.07378167  0.08089187  0.07635847  1  0.139423  0  0.112984  0.130666  0  1.028409  0
H  H60  1  0.05760554  0.58528796  0.03597814  1  0.115095  0  0.11645  0.090639  0  1.015216  0
H  H61  1  0.94239229  0.91471152  0.03597869  1  0.115074  0  0.116458  0.090688  0  1.015164  0
H  H62  1  0.94239522  0.41471196  0.96402149  1  0.115101  0  0.116471  0.090686  0  1.015166  0
H  H63  1  0.05760659  0.08528776  0.96402139  1  0.115081  0  0.116444  0.090658  0  1.015199  0
H  H64  1  0.81782219  0.72244124  0.25335486  1  0.098671  0  0.11993  0.093519  0  0.991528  0
H  H65  1  0.18217528  0.77755698  0.25335535  1  0.098672  0  0.119921  0.09351  0  0.991555  0
H  H66  1  0.18217553  0.27755932  0.74664386  1  0.098675  0  0.11996  0.093564  0  0.991544  0
H  H67  1  0.81782606  0.22244230  0.74664474  1  0.0987  0  0.119919  0.093474  0  0.991558  0
H  H68  1  0.81259025  0.71586147  0.36742238  1  0.114383  0  0.116128  0.12816  0  0.984602  0
H  H69  1  0.18741205  0.78414065  0.36742288  1  0.114305  0  0.116131  0.128193  0  0.984606  0
H  H70  1  0.18741256  0.28414165  0.63257680  1  0.114323  0  0.116133  0.128215  0  0.984583  0
H  H71  1  0.81258896  0.21585991  0.63257765  1  0.114313  0  0.116136  0.128213  0  0.984574  0
H  H72  1  0.01133459  0.53289812  0.35507736  1  0.125073  0  0.116996  0.126731  0  1.002061  0
H  H73  1  0.98866661  0.96710328  0.35507806  1  0.125042  0  0.116986  0.126703  0  1.002109  0
H  H74  1  0.98866585  0.46710308  0.64492228  1  0.125044  0  0.117012  0.126742  0  1.002126  0
H  H75  1  0.01133629  0.03289792  0.64492202  1  0.125051  0  0.116998  0.126717  0  1.002111  0
H  H76  1  0.01154631  0.55051654  0.24433691  1  0.133427  0  0.119208  0.094065  0  1.02594  0
H  H77  1  0.98845432  0.94948355  0.24433711  1  0.133448  0  0.119198  0.094055  0  1.025967  0
H  H78  1  0.98845387  0.44948402  0.75566318  1  0.133418  0  0.119191  0.094038  0  1.025975  0
H  H79  1  0.01154644  0.05051637  0.75566252  1  0.133439  0  0.119202  0.094062  0  1.025957  0
C  C80  1  0.15708686  0.66560944  0.14272473  1  1.496982  0  0.194399  0.56289  0  4.220131  0
C  C81  1  0.84291464  0.83438874  0.14272458  1  1.497006  0  0.194387  0.562845  0  4.22018  0
C  C82  1  0.84291423  0.33438918  0.85727490  1  1.496997  0  0.194366  0.562857  0  4.220132  0
C  C83  1  0.15708612  0.16561117  0.85727505  1  1.497062  0  0.194377  0.562889  0  4.220073  0
C  C84  1  0.45046928  0.62954891  0.14533274  1  -0.012878  0  -0.089256  -0.128114  0  3.978499  0
C  C85  1  0.54953034  0.87044865  0.14533038  1  -0.012876  0  -0.089238  -0.127987  0  3.97841  0
C  C86  1  0.54953148  0.37045101  0.85466735  1  -0.012867  0  -0.089249  -0.128117  0  3.978445  0
C  C87  1  0.45046985  0.12955190  0.85466880  1  -0.013047  0  -0.089228  -0.127979  0  3.978447  0
C  C88  1  0.33325906  0.61404459  0.14514209  1  -0.035882  0  -0.091982  -0.101336  0  3.996978  0
C  C89  1  0.66674187  0.88595426  0.14514070  1  -0.035863  0  -0.091986  -0.101477  0  3.996995  0
C  C90  1  0.66674277  0.38595597  0.85485800  1  -0.035703  0  -0.09199  -0.101341  0  3.996846  0
C  C91  1  0.33325913  0.11404630  0.85485803  1  -0.035867  0  -0.092021  -0.101517  0  3.997001  0
C  C92  1  0.28441597  0.68383547  0.14463778  1  0.02713  0  -0.027349  -0.04474  0  4.02176  0
C  C93  1  0.71558331  0.81616337  0.14463620  1  0.027122  0  -0.027397  -0.044791  0  4.021792  0
C  C94  1  0.71558454  0.31616380  0.85536185  1  0.026966  0  -0.027339  -0.044768  0  4.021708  0
C  C95  1  0.28441827  0.18383654  0.85536253  1  0.027101  0  -0.027366  -0.044743  0  4.021723  0
C  C96  1  0.35462117  0.76773478  0.14495531  1  -0.073604  0  -0.083973  -0.149288  0  3.925264  0
C  C97  1  0.64537919  0.73226471  0.14495619  1  -0.073617  0  -0.08396  -0.149223  0  3.925267  0
C  C98  1  0.64537877  0.23226514  0.85504432  1  -0.073607  0  -0.083991  -0.149295  0  3.9253  0
C  C99  1  0.35462240  0.26773520  0.85504390  1  -0.073616  0  -0.084002  -0.149306  0  3.925264  0
C  C100  1  0.47543011  0.78515743  0.14544254  1  -0.078839  0  -0.005556  0.081798  0  3.998235  0
C  C101  1  0.52457174  0.71483949  0.14544561  1  -0.028089  0  -0.005439  0.082089  0  3.998156  0
C  C102  1  0.52457090  0.21484313  0.85455664  1  -0.078671  0  -0.005515  0.081906  0  3.998236  0
C  C103  1  0.47542903  0.28516043  0.85455493  1  -0.028108  0  -0.005446  0.082059  0  3.998184  0
C  C104  1  0.73439625  0.47985285  0.15002972  1  1.545084  0  0.197901  0.569369  0  4.207858  0
C  C105  1  0.26560440  0.02014707  0.15002947  1  1.545081  0  0.197854  0.569329  0  4.207894  0
C  C106  1  0.26560369  0.52014706  0.84997036  1  1.54509  0  0.197913  0.569391  0  4.20791  0
C  C107  1  0.73439554  0.97985284  0.84997107  1  1.545087  0  0.19787  0.569369  0  4.207791  0
C  C108  1  0.55704045  0.24532896  0.16134171  1  -0.061896  0  -0.006627  0.076711  0  3.996757  0
C  C109  1  0.44295940  0.25467103  0.16134172  1  0.006493  0  -0.006622  0.076734  0  3.996768  0
C  C110  1  0.44295924  0.75467031  0.83865928  1  0.006484  0  -0.006588  0.07674  0  3.99676  0
C  C111  1  0.55703971  0.74532888  0.83865973  1  -0.061909  0  -0.00661  0.076751  0  3.996862  0
C  C112  1  0.65206121  0.31984138  0.15891627  1  0.002028  0  -0.082258  -0.14406  0  3.934616  0
C  C113  1  0.34793864  0.18015860  0.15891559  1  0.002031  0  -0.082254  -0.144057  0  3.934611  0
C  C114  1  0.34793766  0.68015789  0.84108472  1  0.002021  0  -0.082303  -0.144116  0  3.934623  0
C  C115  1  0.65206024  0.81984067  0.84108495  1  0.002124  0  -0.082262  -0.144049  0  3.934625  0
C  C116  1  0.63580124  0.40079846  0.15714826  1  -0.103994  0  -0.021503  -0.030513  0  4.000932  0
C  C117  1  0.36419860  0.09920151  0.15714825  1  -0.103999  0  -0.021514  -0.030532  0  4.000945  0
C  C118  1  0.36419870  0.59920146  0.84285227  1  -0.104019  0  -0.021512  -0.030559  0  4.000965  0
C  C119  1  0.63580052  0.90079840  0.84285228  1  -0.104074  0  -0.021499  -0.030538  0  4.000838  0
C  C120  1  0.52309813  0.40942984  0.16057403  1  0.000955  0  -0.089031  -0.092545  0  3.991352  0
C  C121  1  0.47690173  0.09057015  0.16057401  1  0.000956  0  -0.089023  -0.092511  0  3.991337  0
C  C122  1  0.47690074  0.59056943  0.83942742  1  0.000432  0  -0.089053  -0.092465  0  3.991283  0
C  C123  1  0.52309739  0.90942977  0.83942652  1  0.000876  0  -0.089053  -0.09253  0  3.991275  0
C  C124  1  0.42885626  0.33853734  0.16264857  1  -0.069593  0  -0.092093  -0.133469  0  3.98491  0
C  C125  1  0.57114360  0.16146266  0.16264923  1  -0.069583  0  -0.092083  -0.133469  0  3.984895  0
C  C126  1  0.57114286  0.66146257  0.83735242  1  -0.069049  0  -0.092083  -0.133496  0  3.984915  0
C  C127  1  0.42885691  0.83853661  0.83735176  1  -0.06951  0  -0.092073  -0.133428  0  3.984834  0
C  C128  1  0.85437563  0.66609120  0.69241368  1  0.581277  0  0.125076  0.172479  0  4.010728  0
C  C129  1  0.14562069  0.83390775  0.69241341  1  0.581715  0  0.125048  0.172418  0  4.010844  0
C  C130  1  0.14562160  0.33390807  0.30758596  1  0.581691  0  0.12507  0.172484  0  4.010806  0
C  C131  1  0.85437736  0.16609153  0.30758667  1  0.581297  0  0.125058  0.172433  0  4.010814  0
C  C132  1  0.77474072  0.71394031  0.69481168  1  -0.023868  0  -0.077438  -0.142012  0  3.924755  0
C  C133  1  0.22525774  0.78605994  0.69481129  1  -0.023928  0  -0.077481  -0.142129  0  3.924818  0
C  C134  1  0.22525839  0.28605961  0.30518840  1  -0.023846  0  -0.07745  -0.142021  0  3.924732  0
C  C135  1  0.77474056  0.21393997  0.30518925  1  -0.023927  0  -0.077461  -0.142068  0  3.924752  0
C  C136  1  0.73170781  0.73578104  0.64071085  1  -0.002719  0  -0.072307  -0.032438  0  4.010016  0
C  C137  1  0.26829026  0.76421824  0.64071041  1  -0.002593  0  -0.072231  -0.03225  0  4.0099  0
C  C138  1  0.26829189  0.26421824  0.35928923  1  -0.002688  0  -0.072306  -0.032447  0  4.009929  0
C  C139  1  0.73170968  0.23578167  0.35929013  1  -0.002613  0  -0.072242  -0.032285  0  4.009888  0
C  C140  1  0.76902416  0.70990984  0.58624094  1  -0.072644  0  -0.083967  -0.154913  0  3.94011  0
C  C141  1  0.23097293  0.79008911  0.58624011  1  -0.072211  0  -0.083921  -0.154861  0  3.940117  0
C  C142  1  0.23097282  0.29008879  0.41375959  1  -0.072192  0  -0.083935  -0.154862  0  3.940111  0
C  C143  1  0.76902783  0.20991081  0.41376042  1  -0.072215  0  -0.083954  -0.154886  0  3.940227  0
C  C144  1  0.84757089  0.66113467  0.58838934  1  0.592328  0  0.120807  0.163543  0  4.028649  0
C  C145  1  0.15242867  0.83886430  0.58838909  1  0.591814  0  0.120803  0.163481  0  4.028817  0
C  C146  1  0.15242725  0.33886268  0.41161075  1  0.591811  0  0.12081  0.163511  0  4.028752  0
C  C147  1  0.84757102  0.16113498  0.41161100  1  0.591807  0  0.120809  0.163486  0  4.028842  0
C  C148  1  0.90393132  0.64516823  0.74904376  1  0.937566  0  0.211805  0.232892  0  4.031894  0
C  C149  1  0.09606837  0.85483299  0.74904400  1  0.937969  0  0.211837  0.232874  0  4.03195  0
C  C150  1  0.09606862  0.35483168  0.25095588  1  0.937565  0  0.211778  0.232779  0  4.03203  0
C  C151  1  0.90393100  0.14516757  0.25095609  1  0.937944  0  0.211818  0.232853  0  4.031978  0
C  C152  1  0.93448954  0.63333843  0.84296602  1  0.99218  0  0.220717  0.258782  0  4.035485  0
C  C153  1  0.06551075  0.86666208  0.84296674  1  0.99231  0  0.220739  0.258858  0  4.035474  0
C  C154  1  0.06551123  0.36666149  0.15703361  1  0.992148  0  0.220774  0.258911  0  4.035479  0
C  C155  1  0.93448813  0.13333720  0.15703379  1  0.992337  0  0.220802  0.258971  0  4.035351  0
C  C156  1  0.84273015  0.66107926  0.00190770  1  0.394934  0  0.051052  0.099729  0  3.955723  0
C  C157  1  0.15726889  0.83892129  0.00190791  1  0.394937  0  0.051067  0.099657  0  3.955602  0
C  C158  1  0.15727061  0.33892066  0.99809238  1  0.394919  0  0.051057  0.099749  0  3.955657  0
C  C159  1  0.84273080  0.16107798  0.99809218  1  0.394913  0  0.051074  0.099731  0  3.955646  0
C  C160  1  0.84543760  0.66188469  0.93906169  1  0.057457  0  -0.076878  -0.1586  0  3.92757  0
C  C161  1  0.15456320  0.83811704  0.93906235  1  0.05725  0  -0.076913  -0.158585  0  3.927553  0
C  C162  1  0.15456365  0.33811651  0.06093794  1  0.057231  0  -0.076876  -0.158564  0  3.927508  0
C  C163  1  0.84543649  0.16188224  0.06093774  1  0.05725  0  -0.07692  -0.158613  0  3.927553  0
C  C164  1  0.92930959  0.63319969  0.90883200  1  -0.031167  0  0.020911  0.074803  0  3.99852  0
C  C165  1  0.07069030  0.86680185  0.90883273  1  -0.030465  0  0.020947  0.0748  0  3.998591  0
C  C166  1  0.07069166  0.36680151  0.09116763  1  -0.030621  0  0.020859  0.074702  0  3.998564  0
C  C167  1  0.92930964  0.13319806  0.09116781  1  -0.030463  0  0.020886  0.074748  0  3.998509  0
C  C168  1  0.00726356  0.60470994  0.94424274  1  -0.016514  0  -0.079933  -0.164059  0  3.920905  0
C  C169  1  0.99273676  0.89529053  0.94424279  1  -0.017052  0  -0.079971  -0.164133  0  3.920894  0
C  C170  1  0.99273769  0.39529126  0.05575734  1  -0.017055  0  -0.079978  -0.164159  0  3.920838  0
C  C171  1  0.00726186  0.10470810  0.05575775  1  -0.017066  0  -0.079967  -0.164179  0  3.920919  0
C  C172  1  0.99870801  0.60660981  0.00681128  1  0.470788  0  0.044681  0.091084  0  3.95885  0
C  C173  1  0.00129138  0.89338949  0.00681162  1  0.470839  0  0.044653  0.091039  0  3.958808  0
C  C174  1  0.00129300  0.39339075  0.99318880  1  0.470832  0  0.044664  0.091096  0  3.958787  0
C  C175  1  0.99870832  0.10660979  0.99318892  1  0.470828  0  0.04469  0.091116  0  3.958845  0
C  C176  1  0.88565142  0.63145326  0.53120453  1  0.922342  0  0.221327  0.255658  0  4.011954  0
C  C177  1  0.11434740  0.86854600  0.53120436  1  0.922398  0  0.221341  0.255639  0  4.012062  0
C  C178  1  0.11434556  0.36854537  0.46879555  1  0.922402  0  0.221338  0.255659  0  4.012032  0
C  C179  1  0.88565229  0.13145327  0.46879572  1  0.922398  0  0.221351  0.255726  0  4.011932  0
C  C180  1  0.91028664  0.61831288  0.43664562  1  1.023238  0  0.227921  0.276231  0  4.041449  0
C  C181  1  0.08971290  0.88168837  0.43664549  1  1.023243  0  0.227851  0.275639  0  4.042345  0
C  C182  1  0.08971108  0.38168768  0.56335401  1  1.02324  0  0.227889  0.275678  0  4.042312  0
C  C183  1  0.91028622  0.11831154  0.56335459  1  1.023242  0  0.227894  0.275783  0  4.042245  0
C  C184  1  0.85995788  0.68212222  0.27839918  1  0.470862  0  0.051141  0.099882  0  3.950467  0
C  C185  1  0.14004474  0.81787871  0.27839977  1  0.47098  0  0.051177  0.099946  0  3.950307  0
C  C186  1  0.14004550  0.31788026  0.72160000  1  0.471002  0  0.051126  0.099846  0  3.950368  0
C  C187  1  0.85995767  0.18212120  0.72160031  1  0.470779  0  0.051146  0.099947  0  3.950319  0
C  C188  1  0.85705704  0.67837626  0.34123558  1  0.029151  0  -0.075547  -0.155822  0  3.93043  0
C  C189  1  0.14294387  0.82162442  0.34123483  1  0.02947  0  -0.075522  -0.155853  0  3.930359  0
C  C190  1  0.14294363  0.32162558  0.65876541  1  0.029483  0  -0.075555  -0.155903  0  3.930386  0
C  C191  1  0.85705714  0.17837614  0.65876525  1  0.029247  0  -0.07557  -0.155918  0  3.930411  0
C  C192  1  0.91215334  0.62473437  0.37089556  1  -0.038543  0  0.015969  0.061793  0  4.018531  0
C  C193  1  0.08784437  0.87526648  0.37089541  1  -0.038538  0  0.015955  0.061963  0  4.018629  0
C  C194  1  0.08784381  0.37526683  0.62910407  1  -0.038524  0  0.015982  0.061997  0  4.018531  0
C  C195  1  0.91215392  0.12473343  0.62910423  1  -0.038548  0  0.015996  0.061938  0  4.018649  0
C  C196  1  0.96831945  0.57718022  0.33563315  1  -0.027919  0  -0.075614  -0.159271  0  3.917366  0
C  C197  1  0.03168301  0.92282235  0.33563404  1  -0.027953  0  -0.075504  -0.159107  0  3.917343  0
C  C198  1  0.03168172  0.42282291  0.66436603  1  -0.027985  0  -0.075545  -0.159176  0  3.917397  0
C  C199  1  0.96831932  0.07717949  0.66436560  1  -0.027951  0  -0.075533  -0.159158  0  3.917375  0
C  C200  1  0.96809886  0.58576562  0.27315490  1  0.488237  0  0.049463  0.100069  0  3.940801  0
C  C201  1  0.03189972  0.91423336  0.27315576  1  0.488233  0  0.049423  0.099988  0  3.940819  0
C  C202  1  0.03189944  0.41423430  0.72684427  1  0.488342  0  0.049437  0.10003  0  3.940891  0
C  C203  1  0.96810186  0.08576655  0.72684387  1  0.488217  0  0.049442  0.100024  0  3.940869  0
N  N204  1  0.88964032  0.63916330  0.64023168  1  -1.157989  0  -0.306961  -0.313168  0  3.256179  0
N  N205  1  0.11035856  0.86083598  0.64023149  1  -1.158431  0  -0.306938  -0.313058  0  3.256256  0
N  N206  1  0.11035830  0.36083533  0.35976795  1  -1.1584  0  -0.306951  -0.313092  0  3.256194  0
N  N207  1  0.88964138  0.13916394  0.35976859  1  -1.158  0  -0.306933  -0.313071  0  3.25627  0
N  N208  1  0.99386885  0.61225360  0.75065472  1  -0.595053  0  -0.210887  -0.224232  0  3.095244  0
N  N209  1  0.00612953  0.88774634  0.75065550  1  -0.595049  0  -0.210879  -0.224145  0  3.095267  0
N  N210  1  0.00613085  0.38774567  0.24934446  1  -0.595017  0  -0.21085  -0.22414  0  3.095286  0
N  N211  1  0.99386877  0.11225357  0.24934459  1  -0.595026  0  -0.210844  -0.224121  0  3.095222  0
N  N212  1  0.01171105  0.60586923  0.81018075  1  -0.829405  0  -0.253873  -0.133432  0  3.668822  0
N  N213  1  0.98828832  0.89413108  0.81018124  1  -0.829422  0  -0.253942  -0.133649  0  3.668967  0
N  N214  1  0.98828971  0.39413069  0.18981889  1  -0.829426  0  -0.25386  -0.133479  0  3.668839  0
N  N215  1  0.01171055  0.10586820  0.18981884  1  -0.829432  0  -0.253925  -0.133575  0  3.668881  0
N  N216  1  0.86496701  0.65924696  0.80503636  1  -1.161339  0  -0.328762  -0.419141  0  3.18652  0
N  N217  1  0.13503259  0.84075395  0.80503702  1  -1.161288  0  -0.328778  -0.419128  0  3.186527  0
N  N218  1  0.13503400  0.34075359  0.19496327  1  -1.161337  0  -0.328784  -0.419155  0  3.186557  0
N  N219  1  0.86496628  0.15924532  0.19496352  1  -1.161333  0  -0.328789  -0.419175  0  3.186545  0
N  N220  1  0.91805596  0.63411094  0.03551418  1  -1.247748  0  -0.333065  -0.239284  0  3.517164  0
N  N221  1  0.08194236  0.86588981  0.03551490  1  -1.24778  0  -0.333056  -0.239234  0  3.517126  0
N  N222  1  0.08194447  0.36589026  0.96448500  1  -1.247724  0  -0.333081  -0.239335  0  3.517113  0
N  N223  1  0.91805816  0.13410946  0.96448563  1  -1.247828  0  -0.333093  -0.239321  0  3.51726  0
N  N224  1  0.94203152  0.57117348  0.52754233  1  -0.653019  0  -0.212598  -0.238225  0  3.148298  0
N  N225  1  0.05796729  0.92882576  0.52754278  1  -0.652889  0  -0.212588  -0.238173  0  3.148266  0
N  N226  1  0.05796603  0.42882451  0.47245775  1  -0.652982  0  -0.212601  -0.23823  0  3.148292  0
N  N227  1  0.94203216  0.07117287  0.47245685  1  -0.652973  0  -0.212618  -0.238245  0  3.148296  0
N  N228  1  0.95683108  0.56429204  0.46734247  1  -0.840513  0  -0.264847  -0.140693  0  3.669596  0
N  N229  1  0.04316863  0.93570747  0.46734294  1  -0.840658  0  -0.264825  -0.140514  0  3.669761  0
N  N230  1  0.04316779  0.43570723  0.53265761  1  -0.840586  0  -0.264863  -0.140553  0  3.669718  0
N  N231  1  0.95683189  0.06429180  0.53265669  1  -0.840679  0  -0.26486  -0.140588  0  3.669793  0
N  N232  1  0.86452769  0.66170404  0.47603379  1  -1.147098  0  -0.329144  -0.412942  0  3.155336  0
N  N233  1  0.13547204  0.83829553  0.47603354  1  -1.147239  0  -0.329131  -0.412753  0  3.155551  0
N  N234  1  0.13547225  0.33829588  0.52396630  1  -1.147075  0  -0.329115  -0.412735  0  3.155526  0
N  N235  1  0.86452872  0.16170438  0.52396610  1  -1.14723  0  -0.329139  -0.412813  0  3.155557  0
N  N236  1  0.91495134  0.63705540  0.24489131  1  -1.23046  0  -0.328237  -0.234416  0  3.507593  0
N  N237  1  0.08504577  0.86294405  0.24489158  1  -1.230353  0  -0.328278  -0.234464  0  3.507435  0
N  N238  1  0.08504556  0.36294516  0.75510832  1  -1.230462  0  -0.328278  -0.23443  0  3.50741  0
N  N239  1  0.91495450  0.13705458  0.75510896  1  -1.230356  0  -0.328253  -0.2344  0  3.507477  0
O  O240  1  0.09451045  0.58824222  0.14281110  1  -1.169278  0  -0.326581  -0.551857  0  2.186583  0
O  O241  1  0.90549047  0.91175661  0.14281209  1  -1.169227  0  -0.326594  -0.55183  0  2.186567  0
O  O242  1  0.90549089  0.41175705  0.85718853  1  -1.169246  0  -0.326627  -0.551907  0  2.186567  0
O  O243  1  0.09451087  0.08824266  0.85718800  1  -1.169276  0  -0.326607  -0.551893  0  2.186523  0
O  O244  1  0.11245625  0.72857224  0.14047856  1  -1.197228  0  -0.346532  -0.600316  0  2.375619  0
O  O245  1  0.88754442  0.77142594  0.14047914  1  -1.197805  0  -0.346458  -0.600237  0  2.375748  0
O  O246  1  0.88754402  0.27142639  0.85952107  1  -1.197786  0  -0.346446  -0.600197  0  2.375699  0
O  O247  1  0.11245634  0.22857398  0.85952095  1  -1.197285  0  -0.346431  -0.600187  0  2.375657  0
O  O248  1  0.83706809  0.47324581  0.14758514  1  -1.195903  0  -0.330482  -0.582568  0  2.291739  0
O  O249  1  0.16293230  0.02675346  0.14758534  1  -1.195885  0  -0.330438  -0.582473  0  2.291763  0
O  O250  1  0.16293160  0.52675347  0.85241449  1  -1.195899  0  -0.330473  -0.582566  0  2.291795  0
O  O251  1  0.83706764  0.97324645  0.85241519  1  -1.195885  0  -0.330422  -0.582481  0  2.291718  0
O  O252  1  0.71407795  0.55213702  0.14540102  1  -1.155813  0  -0.326297  -0.550764  0  2.197633  0
O  O253  1  0.28592240  0.94786247  0.14540065  1  -1.15583  0  -0.326311  -0.550813  0  2.197608  0
O  O254  1  0.28592174  0.44786225  0.85459952  1  -1.155825  0  -0.326298  -0.550763  0  2.197589  0
O  O255  1  0.71407754  0.05213744  0.85459943  1  -1.155829  0  -0.326334  -0.550831  0  2.197579  0
