# generated using pymatgen
data_AgH3C5N6
_symmetry_space_group_name_H-M   'P 1'
_cell_length_a   3.53740668
_cell_length_b   12.34515225
_cell_length_c   14.60657095
_cell_angle_alpha   89.99981325
_cell_angle_beta   92.44569847
_cell_angle_gamma   90.00202224
_symmetry_Int_Tables_number   1
_chemical_formula_structural   AgH3C5N6
_chemical_formula_sum   'Ag4 H12 C20 N24'
_cell_volume   637.28535857
_cell_formula_units_Z   4
loop_
 _symmetry_equiv_pos_site_id
 _symmetry_equiv_pos_as_xyz
  1  'x, y, z'
loop_
 _atom_site_type_symbol
 _atom_site_label
 _atom_site_symmetry_multiplicity
 _atom_site_fract_x
 _atom_site_fract_y
 _atom_site_fract_z
 _atom_site_occupancy
 _atom_site_hle17_bader_spin_density
 _atom_site_hle17_ddec_charge
 _atom_site_hle17_ddec_spin_density
 _atom_site_hle17_ddec_sum_bond_order
 _atom_site_hle17_magmom
 _atom_site_hse06_10hf_bader_spin_density
 _atom_site_hse06_10hf_ddec_charge
 _atom_site_hse06_10hf_ddec_spin_density
 _atom_site_hse06_10hf_ddec_sum_bond_order
 _atom_site_hse06_10hf_magmom
 _atom_site_hse06_bader_spin_density
 _atom_site_hse06_ddec_charge
 _atom_site_hse06_ddec_spin_density
 _atom_site_hse06_ddec_sum_bond_order
 _atom_site_hse06_magmom
 _atom_site_pbe_bader_spin_density
 _atom_site_pbe_cm5_charge
 _atom_site_pbe_ddec_charge
 _atom_site_pbe_ddec_spin_density
 _atom_site_pbe_ddec_sum_bond_order
 _atom_site_pbe_magmom
Ag  Ag0  1  0.29335738  0.70465344  0.21609410  1  0  0.4479  0  1.574394  0  0  0.282691  0  2.064262  0  0  0.306461  0  2.017611  0  0  0.488634  0.268594  0  2.09585  0
Ag  Ag1  1  0.70665783  0.20465194  0.28391567  1  0  0.447886  0  1.574386  0  0  0.282792  0  2.064118  0  0  0.306553  0  2.017475  0  0  0.488655  0.268699  0  2.095708  0
Ag  Ag2  1  0.70665842  0.29534407  0.78390829  1  0  0.447855  0  1.574418  0  0  0.282693  0  2.064236  0  0  0.306462  0  2.017586  0  0  0.488649  0.268603  0  2.095814  0
Ag  Ag3  1  0.29335232  0.79534719  0.71608460  1  0  0.447826  0  1.574401  0  0  0.282706  0  2.064158  0  0  0.306471  0  2.017517  0  0  0.488618  0.268609  0  2.095753  0
H  H4  1  0.73336727  0.41585837  0.96745814  1  0  0.102137  0  0.975867  0  0  0.09884  0  1.057225  0  0  0.103324  0  1.052922  0  0  0.117568  0.095574  0  1.060475  0
H  H5  1  0.26668017  0.91586596  0.53255123  1  0  0.102265  0  0.975709  0  0  0.09889  0  1.057174  0  0  0.103366  0  1.052879  0  0  0.117576  0.095626  0  1.060421  0
H  H6  1  0.26662873  0.58413995  0.03254266  1  0  0.102158  0  0.975875  0  0  0.098876  0  1.057229  0  0  0.103362  0  1.052926  0  0  0.117555  0.095609  0  1.06048  0
H  H7  1  0.73333281  0.08413559  0.46744907  1  0  0.102234  0  0.975747  0  0  0.098873  0  1.057186  0  0  0.103354  0  1.052888  0  0  0.117566  0.095609  0  1.060433  0
H  H8  1  0.27560949  0.07476423  0.08835371  1  0  0.087666  0  0.954389  0  0  0.089371  0  1.028027  0  0  0.092448  0  1.026324  0  0  0.114987  0.087106  0  1.029449  0
H  H9  1  0.72436510  0.57478574  0.41163956  1  0  0.087495  0  0.954521  0  0  0.08925  0  1.028109  0  0  0.092317  0  1.026418  0  0  0.11499  0.086984  0  1.029534  0
H  H10  1  0.72438935  0.92523489  0.91164712  1  0  0.087671  0  0.954383  0  0  0.089374  0  1.028021  0  0  0.09245  0  1.026318  0  0  0.115006  0.087107  0  1.029442  0
H  H11  1  0.27563093  0.42521582  0.58835782  1  0  0.087496  0  0.954505  0  0  0.089249  0  1.02809  0  0  0.092316  0  1.026399  0  0  0.114992  0.086984  0  1.029515  0
H  H12  1  0.28815054  0.10884735  0.91597294  1  0  0.091674  0  0.967125  0  0  0.091231  0  1.045113  0  0  0.095038  0  1.041893  0  0  0.114718  0.088453  0  1.047513  0
H  H13  1  0.71184395  0.60885377  0.58401824  1  0  0.091694  0  0.967098  0  0  0.091246  0  1.045134  0  0  0.095057  0  1.041909  0  0  0.114718  0.088468  0  1.047535  0
H  H14  1  0.71183696  0.89115178  0.08402846  1  0  0.091596  0  0.967131  0  0  0.091163  0  1.045129  0  0  0.094974  0  1.041898  0  0  0.114691  0.088385  0  1.047529  0
H  H15  1  0.28815775  0.39114697  0.41597714  1  0  0.091682  0  0.967038  0  0  0.091228  0  1.045075  0  0  0.09504  0  1.041846  0  0  0.1147  0.08845  0  1.047477  0
C  C16  1  0.78407171  0.39901472  0.15384460  1  0  0.211832  0  3.832738  0  0  0.191662  0  4.094614  0  0  0.197335  0  4.115325  0  0  0.201614  0.188137  0  4.080552  0
C  C17  1  0.21592113  0.89902462  0.34615753  1  0  0.211716  0  3.833093  0  0  0.191464  0  4.095037  0  0  0.197132  0  4.115754  0  0  0.201454  0.18794  0  4.080982  0
C  C18  1  0.21591864  0.60098522  0.84615614  1  0  0.211835  0  3.832796  0  0  0.191623  0  4.094685  0  0  0.1973  0  4.115395  0  0  0.201567  0.188101  0  4.08062  0
C  C19  1  0.78408053  0.10097774  0.65384333  1  0  0.211737  0  3.833041  0  0  0.19152  0  4.094929  0  0  0.197191  0  4.11564  0  0  0.201506  0.187997  0  4.080871  0
C  C20  1  0.63333105  0.31937145  0.08856660  1  0  0.127429  0  3.768674  0  0  0.130529  0  4.004114  0  0  0.13367  0  4.023407  0  0  0.123862  0.127876  0  3.991712  0
C  C21  1  0.36666091  0.81938756  0.41143507  1  0  0.127375  0  3.768735  0  0  0.13051  0  4.004186  0  0  0.133655  0  4.023481  0  0  0.123819  0.127854  0  3.991786  0
C  C22  1  0.36665930  0.68062687  0.91143346  1  0  0.127373  0  3.768733  0  0  0.130535  0  4.004146  0  0  0.133668  0  4.023454  0  0  0.123827  0.127883  0  3.99174  0
C  C23  1  0.63334641  0.18061481  0.58856517  1  0  0.127297  0  3.768803  0  0  0.130434  0  4.004237  0  0  0.133583  0  4.023532  0  0  0.123806  0.12778  0  3.991835  0
C  C24  1  0.62851837  0.33957195  0.99409486  1  0  0.061445  0  3.624978  0  0  0.02602  0  3.87834  0  0  0.028724  0  3.892867  0  0  0.053613  0.023995  0  3.869168  0
C  C25  1  0.37150317  0.83958156  0.50590691  1  0  0.06152  0  3.624774  0  0  0.026011  0  3.878323  0  0  0.028723  0  3.892836  0  0  0.053651  0.023982  0  3.869171  0
C  C26  1  0.37147198  0.66042556  0.00590519  1  0  0.061445  0  3.625082  0  0  0.025915  0  3.878463  0  0  0.028618  0  3.892993  0  0  0.05359  0.023893  0  3.869283  0
C  C27  1  0.62850416  0.16042080  0.49409196  1  0  0.061564  0  3.624794  0  0  0.026062  0  3.878307  0  0  0.028767  0  3.892825  0  0  0.053661  0.024033  0  3.869153  0
C  C28  1  0.38256948  0.15036700  0.06041008  1  0  0.073308  0  3.69238  0  0  0.049517  0  3.944767  0  0  0.050546  0  3.963546  0  0  0.046011  0.048618  0  3.932469  0
C  C29  1  0.61741682  0.65038726  0.43958378  1  0  0.073314  0  3.69283  0  0  0.049454  0  3.945305  0  0  0.050484  0  3.964101  0  0  0.045917  0.04856  0  3.932998  0
C  C30  1  0.61742936  0.84963213  0.93959075  1  0  0.073403  0  3.692232  0  0  0.04966  0  3.944592  0  0  0.05069  0  3.963371  0  0  0.046077  0.04876  0  3.932293  0
C  C31  1  0.38258769  0.34961510  0.56041369  1  0  0.073346  0  3.692782  0  0  0.049492  0  3.945256  0  0  0.050522  0  3.96406  0  0  0.045933  0.048596  0  3.932951  0
C  C32  1  0.38690895  0.16927554  0.96621928  1  0  0.054138  0  3.66951  0  0  0.027591  0  3.921614  0  0  0.029506  0  3.939827  0  0  0.039886  0.026137  0  3.909829  0
C  C33  1  0.61309544  0.66928517  0.53377595  1  0  0.054395  0  3.669304  0  0  0.027782  0  3.92142  0  0  0.029693  0  3.939625  0  0  0.040039  0.026331  0  3.909637  0
C  C34  1  0.61308422  0.83072277  0.03378149  1  0  0.054302  0  3.669352  0  0  0.027675  0  3.921477  0  0  0.029591  0  3.939691  0  0  0.039922  0.02622  0  3.909689  0
C  C35  1  0.38690624  0.33071720  0.46622149  1  0  0.0543  0  3.669267  0  0  0.027703  0  3.921382  0  0  0.029613  0  3.939585  0  0  0.039987  0.02625  0  3.909599  0
N  N36  1  0.01816475  0.54184072  0.21309846  1  0  -0.091012  0  3.229754  0  0  -0.031775  0  3.555573  0  0  -0.038832  0  3.566209  0  0  -0.13064  -0.027201  0  3.548473  0
N  N37  1  0.98183138  0.04184291  0.28690198  1  0  -0.090956  0  3.229746  0  0  -0.031762  0  3.555604  0  0  -0.038819  0  3.566243  0  0  -0.130706  -0.027189  0  3.548508  0
N  N38  1  0.98183126  0.45815841  0.78690166  1  0  -0.091049  0  3.229795  0  0  -0.031824  0  3.555631  0  0  -0.038881  0  3.566269  0  0  -0.130687  -0.027252  0  3.548537  0
N  N39  1  0.01816746  0.95815783  0.71309748  1  0  -0.09091  0  3.229576  0  0  -0.031682  0  3.555392  0  0  -0.03874  0  3.566034  0  0  -0.1307  -0.027108  0  3.548292  0
N  N40  1  0.50614811  0.22463474  0.12174987  1  0  -0.278701  0  3.172776  0  0  -0.225617  0  3.454274  0  0  -0.233746  0  3.464231  0  0  -0.306547  -0.220471  0  3.448213  0
N  N41  1  0.49384123  0.72465151  0.37824793  1  0  -0.278525  0  3.173093  0  0  -0.22534  0  3.45456  0  0  -0.233476  0  3.464516  0  0  -0.306458  -0.220192  0  3.448501  0
N  N42  1  0.49384789  0.77536438  0.87825093  1  0  -0.278752  0  3.172693  0  0  -0.225712  0  3.45424  0  0  -0.233837  0  3.46419  0  0  -0.306571  -0.220565  0  3.448175  0
N  N43  1  0.50616328  0.27535086  0.62175023  1  0  -0.278429  0  3.173048  0  0  -0.225277  0  3.454521  0  0  -0.233411  0  3.464462  0  0  -0.30642  -0.22013  0  3.448463  0
N  N44  1  0.98902194  0.46973562  0.28083192  1  0  -0.09393  0  2.931987  0  0  -0.086958  0  3.221186  0  0  -0.087828  0  3.235781  0  0  -0.096879  -0.086046  0  3.211264  0
N  N45  1  0.01097071  0.96973656  0.21917070  1  0  -0.093905  0  2.931907  0  0  -0.08695  0  3.221132  0  0  -0.087824  0  3.235733  0  0  -0.096827  -0.086033  0  3.211208  0
N  N46  1  0.01097406  0.53026269  0.71916888  1  0  -0.09393  0  2.932014  0  0  -0.086967  0  3.221214  0  0  -0.087838  0  3.235812  0  0  -0.096883  -0.086055  0  3.211294  0
N  N47  1  0.98902812  0.03026337  0.78083013  1  0  -0.093949  0  2.93189  0  0  -0.087007  0  3.221116  0  0  -0.087882  0  3.235717  0  0  -0.096847  -0.086091  0  3.211191  0
N  N48  1  0.50876459  0.26460273  0.93331230  1  0  -0.240872  0  3.250998  0  0  -0.170152  0  3.532726  0  0  -0.180329  0  3.544538  0  0  -0.316165  -0.163667  0  3.525235  0
N  N49  1  0.49126230  0.76461257  0.56668701  1  0  -0.241215  0  3.251064  0  0  -0.170338  0  3.532786  0  0  -0.180511  0  3.544593  0  0  -0.316276  -0.163855  0  3.525299  0
N  N50  1  0.49122574  0.73539558  0.06668913  1  0  -0.241003  0  3.250946  0  0  -0.170148  0  3.532629  0  0  -0.180326  0  3.544442  0  0  -0.316165  -0.163662  0  3.525135  0
N  N51  1  0.50874786  0.23538980  0.43331189  1  0  -0.241182  0  3.251084  0  0  -0.170323  0  3.532811  0  0  -0.180497  0  3.544624  0  0  -0.316269  -0.16384  0  3.525325  0
N  N52  1  0.89360703  0.49978444  0.13291173  1  0  -0.280761  0  2.965691  0  0  -0.257465  0  3.241644  0  0  -0.26727  0  3.258051  0  0  -0.21348  -0.250636  0  3.230496  0
N  N53  1  0.10639199  0.99979231  0.36708951  1  0  -0.280794  0  2.965844  0  0  -0.257445  0  3.24177  0  0  -0.267245  0  3.258175  0  0  -0.213365  -0.250614  0  3.230626  0
N  N54  1  0.10638331  0.50021468  0.86708833  1  0  -0.280731  0  2.965718  0  0  -0.257425  0  3.241679  0  0  -0.267231  0  3.258084  0  0  -0.213433  -0.250598  0  3.230534  0
N  N55  1  0.89361533  0.00021006  0.63291073  1  0  -0.280818  0  2.965712  0  0  -0.257494  0  3.24164  0  0  -0.267294  0  3.258044  0  0  -0.213397  -0.250664  0  3.230495  0
N  N56  1  0.84261541  0.37917225  0.24422180  1  0  -0.272234  0  3.190902  0  0  -0.215554  0  3.504755  0  0  -0.229107  0  3.516667  0  0  -0.237202  -0.206545  0  3.496577  0
N  N57  1  0.15737792  0.87917702  0.25578176  1  0  -0.272268  0  3.190876  0  0  -0.2155  0  3.504667  0  0  -0.229054  0  3.516586  0  0  -0.237166  -0.20649  0  3.496486  0
N  N58  1  0.15737777  0.62082688  0.75577829  1  0  -0.272154  0  3.190772  0  0  -0.215439  0  3.504611  0  0  -0.228994  0  3.516527  0  0  -0.237118  -0.20643  0  3.496432  0
N  N59  1  0.84262374  0.12082372  0.74421978  1  0  -0.272227  0  3.19088  0  0  -0.215477  0  3.504678  0  0  -0.229031  0  3.516594  0  0  -0.237165  -0.206468  0  3.496498  0
