# generated using pymatgen
data_ZnH19C18NO9
_symmetry_space_group_name_H-M   'P 1'
_cell_length_a   10.10201933
_cell_length_b   11.07315208
_cell_length_c   11.04044338
_cell_angle_alpha   90.66524349
_cell_angle_beta   85.74983140
_cell_angle_gamma   98.63962308
_symmetry_Int_Tables_number   1
_chemical_formula_structural   ZnH19C18NO9
_chemical_formula_sum   'Zn2 H38 C36 N2 O18'
_cell_volume   1217.62547506
_cell_formula_units_Z   2
loop_
 _symmetry_equiv_pos_site_id
 _symmetry_equiv_pos_as_xyz
  1  'x, y, z'
loop_
 _atom_site_type_symbol
 _atom_site_label
 _atom_site_symmetry_multiplicity
 _atom_site_fract_x
 _atom_site_fract_y
 _atom_site_fract_z
 _atom_site_occupancy
 _atom_site_pbe_bader_charge
 _atom_site_pbe_bader_spin_density
 _atom_site_pbe_cm5_charge
 _atom_site_pbe_ddec_charge
 _atom_site_pbe_ddec_spin_density
 _atom_site_pbe_ddec_sum_bond_order
 _atom_site_pbe_magmom
Zn  Zn0  1  0.64618807  0.51865159  0.50447331  1  1.318463  0  0.686316  0.88755  0  2.217136  0
Zn  Zn1  1  0.34869852  0.47250322  0.51634486  1  1.296067  0  0.678952  0.875156  0  2.30856  0
H  H2  1  0.17812446  0.61525019  0.26556689  1  0.071253  0  0.10867  0.152966  0  0.965477  0
H  H3  1  0.25240904  0.70043694  0.38934387  1  0.10245  0  0.101239  0.144747  0  1.037268  0
H  H4  1  0.71400847  0.69046650  0.85997264  1  0.038355  0  0.096703  0.126739  0  1.000619  0
H  H5  1  0.66309474  0.12658026  0.76196921  1  0.044419  0  0.097571  0.124946  0  0.976982  0
H  H6  1  0.31910707  0.32568484  0.14069777  1  0.10099  0  0.101726  0.116709  0  1.038316  0
H  H7  1  0.38430546  0.85986842  0.37951609  1  0.060724  0  0.104233  0.117394  0  1.048072  0
H  H8  1  0.25116227  0.16002368  0.02368307  1  0.03838  0  0.096708  0.090308  0  1.0066  0
H  H9  1  0.13428913  0.16485758  0.90972533  1  0.09949  0  0.108332  0.11447  0  0.982883  0
H  H10  1  0.13328047  0.26698678  0.03729023  1  0.051261  0  0.100197  0.097126  0  0.985321  0
H  H11  1  0.21671531  0.95578603  0.32999473  1  0.092609  0  0.097445  0.093924  0  1.05137  0
H  H12  1  0.35238822  0.96654529  0.21367991  1  0.046124  0  0.09847  0.096789  0  1.001659  0
H  H13  1  0.23989142  0.07793526  0.22153611  1  0.056473  0  0.10185  0.103359  0  1.00051  0
H  H14  1  0.57251891  0.76765769  0.88373952  1  0.084459  0  0.101584  0.138635  0  0.985212  0
H  H15  1  0.78982079  0.18582968  0.64704916  1  0.084443  0  0.094362  0.121473  0  1.064886  0
H  H16  1  0.81104895  0.54366218  0.99013939  1  0.027366  0  0.083045  0.070562  0  1.063191  0
H  H17  1  0.76583337  0.51722918  0.14965484  1  0.086305  0  0.092934  0.101632  0  1.017259  0
H  H18  1  0.92560871  0.60121398  0.10019680  1  0.033145  0  0.098427  0.102312  0  1.010315  0
H  H19  1  0.94723810  0.95761996  0.77842400  1  0.062776  0  0.091245  0.081986  0  1.035702  0
H  H20  1  0.84269486  0.88833007  0.90475869  1  0.062051  0  0.10171  0.105765  0  1.016105  0
H  H21  1  0.83635941  0.04397288  0.86531227  1  0.042577  0  0.088616  0.080171  0  1.005855  0
H  H22  1  0.63767793  0.93881673  0.01841920  1  0.037523  0  0.090142  0.083858  0  1.016454  0
H  H23  1  0.75308047  0.91464181  0.12944178  1  0.050623  0  0.094674  0.091016  0  1.017431  0
H  H24  1  0.59651566  0.96295068  0.17714143  1  0.030009  0  0.098476  0.102767  0  1.002486  0
H  H25  1  0.84546622  0.11470569  0.45962507  1  0.023325  0  0.08941  0.087898  0  1.014249  0
H  H26  1  0.80784615  0.96183157  0.40203828  1  0.038267  0  0.096543  0.101873  0  0.996247  0
H  H27  1  0.97744028  0.02481003  0.42677795  1  0.050459  0  0.096652  0.096638  0  1.020753  0
H  H28  1  0.16990657  0.23445627  0.52363472  1  0.100464  0  0.108816  0.121456  0  1.001727  0
H  H29  1  0.08437782  0.13181809  0.63905803  1  0.085207  0  0.106841  0.113988  0  1.003254  0
H  H30  1  0.21684332  0.25317582  0.67657212  1  0.127506  0  0.10867  0.129257  0  1.016828  0
H  H31  1  0.78630305  0.50420543  0.81518721  1  0.081355  0  0.100264  0.102551  0  1.031332  0
H  H32  1  0.73245342  0.34596315  0.84766199  1  0.078673  0  0.113461  0.124895  0  0.971306  0
H  H33  1  0.90938202  0.40173818  0.82562438  1  0.047349  0  0.099828  0.097943  0  1.004003  0
H  H34  1  0.12164317  0.81214844  0.17884373  1  0.031009  0  0.092494  0.088504  0  1.000693  0
H  H35  1  0.01430386  0.91037626  0.25360730  1  0.038572  0  0.093047  0.084066  0  1.039801  0
H  H36  1  0.95746429  0.81800444  0.12786435  1  0.102234  0  0.103559  0.108834  0  1.039931  0
H  H37  1  0.09644001  0.89645998  0.60794365  1  0.03546  0  0.103301  0.10939  0  1.001555  0
H  H38  1  0.17936218  0.76720119  0.57150817  1  0.068627  0  0.092632  0.096532  0  1.018802  0
H  H39  1  0.00605705  0.74676651  0.63188094  1  0.044164  0  0.094449  0.096923  0  0.993585  0
C  C40  1  0.53237227  0.73467298  0.50986590  1  1.597257  0  0.222492  0.609947  0  4.139498  0
C  C41  1  0.47315548  0.48905002  0.27603754  1  1.573523  0  0.221104  0.604926  0  4.151078  0
C  C42  1  0.63613380  0.69471380  0.06034629  1  1.024538  0  0.167516  0.403451  0  3.870389  0
C  C43  1  0.73926390  0.97714227  0.65125656  1  1.032317  0  0.167569  0.40447  0  3.876488  0
C  C44  1  0.09410551  0.54718775  0.44511888  1  0.533483  0  0.11943  0.214046  0  3.970512  0
C  C45  1  0.02390294  0.39943030  0.58252959  1  1.18324  0  0.235705  0.280409  0  4.01923  0
C  C46  1  0.89453952  0.44123936  0.59402902  1  1.197254  0  0.226905  0.260749  0  4.018768  0
C  C47  1  0.96992437  0.58538604  0.45398792  1  0.449739  0  0.102934  0.026857  0  3.875559  0
C  C48  1  0.02369703  0.70323790  0.38275963  1  1.087108  0  0.177525  0.379612  0  3.912315  0
C  C49  1  0.16079336  0.64639471  0.35938737  1  -0.043303  0  -0.166984  -0.393443  0  3.834036  0
C  C50  1  0.52317604  0.26657883  0.50202330  1  1.610512  0  0.22251  0.637688  0  4.142885  0
C  C51  1  0.44443106  0.48769428  0.74447462  1  1.596223  0  0.219732  0.631188  0  4.140318  0
C  C52  1  0.54143771  0.57385931  0.06456191  1  -0.030798  0  -0.027856  -0.113113  0  3.930576  0
C  C53  1  0.61425955  0.95327865  0.57846450  1  0.01717  0  -0.027774  -0.116166  0  3.876111  0
C  C54  1  0.46712653  0.48602203  0.14068990  1  -0.004931  0  -0.006049  0.003647  0  3.969692  0
C  C55  1  0.53289350  0.87049208  0.50971737  1  -0.051023  0  -0.004772  0.001277  0  3.957379  0
C  C56  1  0.37959364  0.39556792  0.08345531  1  0.017555  0  -0.11269  -0.2631  0  3.97817  0
C  C57  1  0.44701831  0.92146620  0.43646715  1  1.8e-05  0  -0.108431  -0.255718  0  3.971721  0
C  C58  1  0.36975733  0.39387694  0.95678826  1  0.417223  0  0.088008  0.23376  0  4.029263  0
C  C59  1  0.44576408  0.04803518  0.43004401  1  0.451446  0  0.089495  0.236784  0  4.032379  0
C  C60  1  0.44689859  0.48444046  0.87993605  1  -0.000882  0  -0.022267  -0.17247  0  3.929133  0
C  C61  1  0.52446231  0.13124394  0.50440685  1  -0.022935  0  -0.021825  -0.17149  0  3.930404  0
C  C62  1  0.53003816  0.57331295  0.93956746  1  0.005847  0  -0.008234  0.098948  0  3.971708  0
C  C63  1  0.60389612  0.07811149  0.57897286  1  0.001591  0  -0.008081  0.099608  0  3.969135  0
C  C64  1  0.62092749  0.69357387  0.91720229  1  -0.038281  0  -0.167678  -0.352649  0  3.838456  0
C  C65  1  0.70780347  0.11199493  0.66998285  1  -0.049372  0  -0.175044  -0.357544  0  3.875009  0
C  C66  1  0.19706398  0.21993737  0.97295451  1  0.364844  0  -0.133339  -0.166862  0  3.935433  0
C  C67  1  0.29130672  0.01911860  0.27520839  1  0.36514  0  -0.141241  -0.183553  0  3.942364  0
C  C68  1  0.81944800  0.58249718  0.08190092  1  0.392208  0  -0.151631  -0.164188  0  3.951175  0
C  C69  1  0.84867949  0.95255520  0.82908002  1  0.35643  0  -0.147616  -0.169399  0  3.951048  0
C  C70  1  0.64648349  0.90657555  0.11124908  1  0.415275  0  -0.147048  -0.162603  0  3.950825  0
C  C71  1  0.87242564  0.02182795  0.46101358  1  0.427722  0  -0.149424  -0.16754  0  3.956928  0
C  C72  1  0.13349655  0.22541242  0.61951101  1  0.300524  0  -0.133384  -0.176038  0  3.794854  0
C  C73  1  0.80898488  0.41140678  0.79834559  1  0.366689  0  -0.131771  -0.171645  0  3.870358  0
C  C74  1  0.01683148  0.82239654  0.20717663  1  0.368093  0  -0.147094  -0.175918  0  3.924293  0
C  C75  1  0.08320804  0.80303102  0.57242848  1  0.403251  0  -0.145072  -0.168422  0  3.925472  0
N  N76  1  0.12705403  0.45430001  0.50891336  1  -1.225894  0  -0.301457  -0.313338  0  3.38569  0
N  N77  1  0.86455799  0.53141082  0.52648946  1  -1.209439  0  -0.281206  -0.246896  0  3.400726  0
O  O78  1  0.64618355  0.69885700  0.51319774  1  -1.129769  0  -0.306174  -0.508016  0  2.279888  0
O  O79  1  0.58590412  0.51854607  0.31962529  1  -1.164321  0  -0.300764  -0.534683  0  2.26635  0
O  O80  1  0.41899491  0.66673211  0.50711059  1  -1.17863  0  -0.312343  -0.570737  0  2.309285  0
O  O81  1  0.35905187  0.46221319  0.33585470  1  -1.150705  0  -0.319503  -0.543024  0  2.34448  0
O  O82  1  0.63616782  0.33463079  0.48216910  1  -1.152026  0  -0.313396  -0.543537  0  2.308578  0
O  O83  1  0.55845795  0.50274975  0.68567685  1  -1.166767  0  -0.304451  -0.551863  0  2.321573  0
O  O84  1  0.41031502  0.30221368  0.52310268  1  -1.166769  0  -0.307339  -0.563941  0  2.390857  0
O  O85  1  0.33074188  0.47799346  0.69851916  1  -1.149128  0  -0.322207  -0.548762  0  2.299513  0
O  O86  1  0.28738072  0.30515761  0.89950528  1  -1.067984  0  -0.18592  -0.155215  0  2.585933  0
O  O87  1  0.37276280  0.09963397  0.35086841  1  -1.080033  0  -0.189522  -0.153672  0  2.572504  0
O  O88  1  0.76982853  0.69665683  0.09203197  1  -1.050542  0  -0.225336  -0.259655  0  2.538893  0
O  O89  1  0.74222332  0.90655732  0.75452785  1  -1.061077  0  -0.215875  -0.244535  0  2.533299  0
O  O90  1  0.57931003  0.78429840  0.12872841  1  -1.053566  0  -0.226142  -0.249259  0  2.481579  0
O  O91  1  0.86338258  0.97357322  0.58105950  1  -1.031472  0  -0.22349  -0.258921  0  2.512297  0
O  O92  1  0.02904078  0.30030198  0.64794594  1  -1.068353  0  -0.157932  -0.140425  0  2.612999  0
O  O93  1  0.79729536  0.38352585  0.67124364  1  -1.083526  0  -0.177216  -0.167843  0  2.675454  0
O  O94  1  0.95432777  0.72325204  0.28368249  1  -1.057642  0  -0.204894  -0.214589  0  2.544811  0
O  O95  1  0.03884192  0.81158502  0.45314940  1  -1.038057  0  -0.214047  -0.239702  0  2.525798  0
