# generated using pymatgen
data_ZnH18C28(NO)4
_symmetry_space_group_name_H-M   'P 1'
_cell_length_a   14.44352418
_cell_length_b   15.66941754
_cell_length_c   15.66908535
_cell_angle_alpha   80.59978126
_cell_angle_beta   82.57548193
_cell_angle_gamma   82.57734777
_symmetry_Int_Tables_number   1
_chemical_formula_structural   ZnH18C28(NO)4
_chemical_formula_sum   'Zn2 H36 C56 N8 O8'
_cell_volume   3448.06155717
_cell_formula_units_Z   2
loop_
 _symmetry_equiv_pos_site_id
 _symmetry_equiv_pos_as_xyz
  1  'x, y, z'
loop_
 _atom_site_type_symbol
 _atom_site_label
 _atom_site_symmetry_multiplicity
 _atom_site_fract_x
 _atom_site_fract_y
 _atom_site_fract_z
 _atom_site_occupancy
 _atom_site_pbe_bader_charge
 _atom_site_pbe_bader_spin_density
 _atom_site_pbe_cm5_charge
 _atom_site_pbe_ddec_charge
 _atom_site_pbe_ddec_spin_density
 _atom_site_pbe_ddec_sum_bond_order
 _atom_site_pbe_magmom
Zn  Zn0  1  0.58484911  0.52858033  0.51369817  1  1.290567  0  0.669586  0.815823  0  2.441528  0
Zn  Zn1  1  0.41515233  0.48630179  0.47141814  1  1.290495  0  0.669674  0.81602  0  2.441325  0
H  H2  1  0.66752431  0.94127939  0.67180417  1  0.036438  0  0.096027  0.096919  0  1.002955  0
H  H3  1  0.26538113  0.06821705  0.42945684  1  0.017243  0  0.092714  0.091755  0  1.009065  0
H  H4  1  0.33248025  0.32819989  0.05872777  1  0.036382  0  0.09601  0.096965  0  1.002792  0
H  H5  1  0.73461631  0.57057142  0.93176321  1  0.016699  0  0.092611  0.091627  0  1.009024  0
H  H6  1  0.51071180  0.78182252  0.54553201  1  0.076427  0  0.101264  0.104569  0  1.029428  0
H  H7  1  0.46647109  0.22760026  0.49420049  1  0.104901  0  0.100607  0.10406  0  1.040538  0
H  H8  1  0.48931563  0.45444948  0.21818020  1  0.07669  0  0.101255  0.104527  0  1.029682  0
H  H9  1  0.53352339  0.50582414  0.77238845  1  0.10418  0  0.100643  0.104062  0  1.040496  0
H  H10  1  0.71931209  0.08646627  0.67180439  1  0.024156  0  0.09547  0.106238  0  1.008967  0
H  H11  1  0.22954741  0.92467242  0.40734174  1  0.038222  0  0.093369  0.103666  0  1.013231  0
H  H12  1  0.28069550  0.32819571  0.91354308  1  0.024097  0  0.095421  0.106199  0  1.008967  0
H  H13  1  0.77045563  0.59267914  0.07531101  1  0.037749  0  0.093215  0.103507  0  1.013241  0
H  H14  1  0.56683362  0.85098645  0.62035901  1  0.026448  0  0.098817  0.0979  0  1.01482  0
H  H15  1  0.36801553  0.15830662  0.47817369  1  0.079914  0  0.094955  0.093132  0  1.031659  0
H  H16  1  0.43317441  0.37964809  0.14901336  1  0.0265  0  0.098867  0.098052  0  1.014775  0
H  H17  1  0.63197401  0.52184864  0.84167762  1  0.079694  0  0.095024  0.093241  0  1.031788  0
H  H18  1  0.04092695  0.28890599  0.40406773  1  0.038854  0  0.106046  0.120389  0  0.995491  0
H  H19  1  0.95906725  0.59594742  0.71109034  1  0.038558  0  0.106009  0.120409  0  0.995167  0
H  H20  1  0.77839895  0.46182008  0.47881082  1  0.153551  0  0.123606  0.098232  0  1.031539  0
H  H21  1  0.22159565  0.52121430  0.53815181  1  0.153805  0  0.123505  0.09814  0  1.031566  0
H  H22  1  0.64147256  0.63546278  0.63718949  1  0.107014  0  0.124905  0.102017  0  0.974179  0
H  H23  1  0.35852940  0.36280608  0.36453417  1  0.106924  0  0.124883  0.101969  0  0.974176  0
H  H24  1  0.21110518  0.29786229  0.35397540  1  0.055068  0  0.109228  0.117588  0  0.985888  0
H  H25  1  0.78889227  0.64603487  0.70213381  1  0.055038  0  0.109213  0.117662  0  0.985789  0
H  H26  1  0.88495245  0.28461181  0.45009293  1  0.436688  0  0.31824  0.310297  0  0.911579  0
H  H27  1  0.82396874  0.33552408  0.53024700  1  0.472554  0  0.297885  0.28875  0  1.001934  0
H  H28  1  0.11505713  0.54993252  0.71538083  1  0.436032  0  0.318224  0.3104  0  0.911481  0
H  H29  1  0.17603796  0.46978130  0.66445825  1  0.472791  0  0.297742  0.288879  0  1.002557  0
H  H30  1  0.27792442  0.68932596  0.41607923  1  0.475706  0  0.295722  0.30883  0  0.989982  0
H  H31  1  0.21147227  0.78301286  0.37102865  1  0.441001  0  0.30715  0.300872  0  0.945159  0
H  H32  1  0.69050071  0.32219942  0.62795057  1  0.482332  0  0.291563  0.298118  0  0.99695  0
H  H33  1  0.74738989  0.23239118  0.68618466  1  0.403465  0  0.302999  0.29483  0  0.941654  0
H  H34  1  0.72207730  0.58391449  0.31067272  1  0.47579  0  0.295728  0.30885  0  0.990042  0
H  H35  1  0.78853051  0.62898469  0.21698563  1  0.440801  0  0.307123  0.300935  0  0.945158  0
H  H36  1  0.30948134  0.37205955  0.67780653  1  0.482398  0  0.29154  0.297855  0  0.996975  0
H  H37  1  0.25260363  0.31382134  0.76762320  1  0.403408  0  0.302954  0.294716  0  0.94167  0
C  C38  1  0.56813076  0.51668116  0.32934131  1  1.54999  0  0.215102  0.605956  0  4.150672  0
C  C39  1  0.43601440  0.47546590  0.65851421  1  1.55704  0  0.209219  0.598866  0  4.164679  0
C  C40  1  0.43188359  0.67066261  0.48330516  1  1.54974  0  0.215106  0.606254  0  4.150482  0
C  C41  1  0.56396536  0.34148043  0.52454624  1  1.556029  0  0.209305  0.599075  0  4.164408  0
C  C42  1  0.61275298  0.97184096  0.63115726  1  -0.042643  0  -0.101161  -0.15041  0  4.03325  0
C  C43  1  0.32663140  0.03754432  0.46160763  1  0.033565  0  -0.101219  -0.146766  0  4.04197  0
C  C44  1  0.38725858  0.36883817  0.02816068  1  -0.042108  0  -0.101098  -0.150361  0  4.032791  0
C  C45  1  0.67336021  0.53842041  0.96243784  1  0.034848  0  -0.101005  -0.146452  0  4.041728  0
C  C46  1  0.21084164  0.34633081  0.39670523  1  -0.030414  0  -0.09042  -0.190452  0  3.985053  0
C  C47  1  0.78915224  0.60329622  0.65366801  1  -0.030467  0  -0.090477  -0.190737  0  3.985155  0
C  C48  1  0.29175472  0.38193070  0.40122347  1  0.473439  0  0.038673  0.077103  0  3.987944  0
C  C49  1  0.70824116  0.59876772  0.61806563  1  0.473421  0  0.038629  0.077066  0  3.987964  0
C  C50  1  0.21521144  0.46961546  0.50118631  1  0.492852  0  0.051166  0.056799  0  3.898056  0
C  C51  1  0.78478572  0.49879605  0.53040550  1  0.494817  0  0.051111  0.056654  0  3.898284  0
C  C52  1  0.12930020  0.43498929  0.50458542  1  -0.009438  0  -0.010936  -0.027735  0  3.965785  0
C  C53  1  0.87068752  0.49540503  0.56503623  1  -0.011304  0  -0.011077  -0.028096  0  3.965579  0
C  C54  1  0.12621526  0.37350713  0.44674689  1  -0.049611  0  0.000875  0.123915  0  4.078585  0
C  C55  1  0.87377881  0.55325497  0.62650873  1  -0.050097  0  0.00097  0.124176  0  4.078346  0
C  C56  1  0.04365992  0.46447938  0.55541541  1  0.051163  0  0.003905  -0.034363  0  3.89164  0
C  C57  1  0.95633614  0.44457898  0.53553364  1  -0.018967  0  0.003911  -0.03446  0  3.8913  0
C  C58  1  0.95708573  0.37357718  0.48569146  1  0.435112  0  0.112567  0.278281  0  4.077546  0
C  C59  1  0.04291353  0.51432118  0.62641879  1  0.43551  0  0.112432  0.278177  0  4.077553  0
C  C60  1  0.04103654  0.34105376  0.44252286  1  0.033602  0  -0.114253  -0.288187  0  3.989345  0
C  C61  1  0.95896003  0.55749026  0.65894481  1  0.034107  0  -0.11421  -0.288167  0  3.988838  0
C  C62  1  0.58192463  0.24623875  0.55535859  1  -0.04544  0  -0.033834  -0.15123  0  3.954449  0
C  C63  1  0.39453998  0.76374374  0.48413718  1  -0.013147  0  -0.028757  -0.142926  0  3.934918  0
C  C64  1  0.41807047  0.44465545  0.75375815  1  -0.046184  0  -0.033824  -0.151044  0  3.954468  0
C  C65  1  0.60547850  0.51585524  0.23625675  1  -0.013833  0  -0.028678  -0.142784  0  3.934972  0
C  C66  1  0.66332205  0.11740796  0.63258568  1  -0.03374  0  -0.117747  -0.280825  0  3.971158  0
C  C67  1  0.29036658  0.89299577  0.43964427  1  -0.007576  0  -0.121082  -0.288392  0  3.977658  0
C  C68  1  0.33668467  0.36741511  0.88259774  1  -0.033353  0  -0.117655  -0.280716  0  3.971493  0
C  C69  1  0.70964505  0.56036279  0.10699750  1  -0.007647  0  -0.120914  -0.288058  0  3.977545  0
C  C70  1  0.65505878  0.20749506  0.60772039  1  0.391181  0  0.092048  0.28554  0  4.079413  0
C  C71  1  0.31102339  0.80263040  0.44608465  1  0.401735  0  0.099564  0.299583  0  4.108807  0
C  C72  1  0.34494069  0.39228113  0.79250968  1  0.390948  0  0.091899  0.285233  0  4.0795  0
C  C73  1  0.68899030  0.55392034  0.19736461  1  0.402492  0  0.099441  0.2994  0  4.108892  0
C  C74  1  0.52070264  0.19396391  0.53344548  1  -0.056869  0  -0.083881  -0.115097  0  3.983903  0
C  C75  1  0.44744363  0.81494331  0.51883886  1  -0.01268  0  -0.0847  -0.121335  0  3.985395  0
C  C76  1  0.47928931  0.46656599  0.80602953  1  -0.056167  0  -0.083909  -0.115193  0  3.983932  0
C  C77  1  0.55257272  0.48115665  0.18505520  1  -0.012779  0  -0.084698  -0.121271  0  3.985241  0
C  C78  1  0.52755833  0.10347935  0.55819225  1  0.03857  0  -0.016678  0.011087  0  3.990832  0
C  C79  1  0.42515707  0.90518080  0.51631791  1  -0.023788  0  -0.018202  0.006622  0  3.982154  0
C  C80  1  0.47243391  0.44181556  0.89652099  1  0.03864  0  -0.016674  0.011269  0  3.990608  0
C  C81  1  0.57485808  0.48368743  0.09481067  1  0.007365  0  -0.018188  0.00678  0  3.981768  0
C  C82  1  0.60239229  0.06433208  0.60822028  1  -0.003212  0  -0.010496  0.098898  0  4.058422  0
C  C83  1  0.34583338  0.94491720  0.47229624  1  0.001602  0  -0.011437  0.10101  0  4.064579  0
C  C84  1  0.39760552  0.39178731  0.93567069  1  -0.003325  0  -0.010475  0.098885  0  4.058814  0
C  C85  1  0.65416824  0.52773085  0.05507253  1  -0.029501  0  -0.011499  0.100645  0  4.064588  0
C  C86  1  0.46451802  0.05023248  0.53253231  1  -0.043084  0  -0.011189  0.028097  0  3.977174  0
C  C87  1  0.48200544  0.95844140  0.55044917  1  0.020613  0  -0.008396  0.032078  0  3.97189  0
C  C88  1  0.53547945  0.46747894  0.94975948  1  -0.043493  0  -0.011049  0.028232  0  3.976792  0
C  C89  1  0.51800913  0.44955556  0.04155188  1  0.020801  0  -0.008364  0.03204  0  3.971695  0
C  C90  1  0.55605700  0.92146666  0.60217861  1  -0.030469  0  -0.092668  -0.123797  0  4.022479  0
C  C91  1  0.38446833  0.08775928  0.48898258  1  -0.126813  0  -0.097949  -0.132787  0  4.04101  0
C  C92  1  0.44395710  0.39782448  0.07852973  1  -0.030819  0  -0.092847  -0.12418  0  4.022324  0
C  C93  1  0.61552418  0.51104129  0.91222824  1  -0.126853  0  -0.098185  -0.133026  0  4.041017  0
N  N94  1  0.29303776  0.44462787  0.45152484  1  -1.2669  0  -0.341238  -0.223357  0  3.572743  0
N  N95  1  0.70695798  0.54845251  0.55538358  1  -1.266703  0  -0.341147  -0.223071  0  3.572792  0
N  N96  1  0.87637979  0.33835066  0.47988797  1  -1.228478  0  -0.574639  -0.580074  0  3.348512  0
N  N97  1  0.12362179  0.52013911  0.66163752  1  -1.228392  0  -0.574306  -0.580498  0  3.348408  0
N  N98  1  0.25389627  0.75329941  0.41611294  1  -1.261238  0  -0.600437  -0.626588  0  3.345792  0
N  N99  1  0.71766386  0.25822244  0.63105331  1  -1.211466  0  -0.600338  -0.630593  0  3.316779  0
N  N100  1  0.74612093  0.58388284  0.24670144  1  -1.261427  0  -0.600389  -0.62666  0  3.345906  0
N  N101  1  0.28232829  0.36895321  0.74178955  1  -1.211209  0  -0.600281  -0.630141  0  3.316901  0
O  O102  1  0.62541374  0.52293744  0.38384146  1  -1.172162  0  -0.31507  -0.549403  0  2.327452  0
O  O103  1  0.38427679  0.45306363  0.60695225  1  -1.175117  0  -0.313545  -0.553634  0  2.334824  0
O  O104  1  0.37460254  0.61615811  0.47705447  1  -1.171985  0  -0.315097  -0.549584  0  2.327581  0
O  O105  1  0.61569539  0.39305186  0.54696026  1  -1.174843  0  -0.313714  -0.553997  0  2.334626  0
O  O106  1  0.48044672  0.51199054  0.34873889  1  -1.178401  0  -0.32084  -0.544365  0  2.341217  0
O  O107  1  0.50335246  0.52162545  0.63311494  1  -1.182733  0  -0.32202  -0.555264  0  2.358193  0
O  O108  1  0.51957576  0.65126477  0.48798125  1  -1.178406  0  -0.320766  -0.544404  0  2.341077  0
O  O109  1  0.49661804  0.36687057  0.47840782  1  -1.182483  0  -0.32206  -0.555245  0  2.358403  0
