# generated using pymatgen
data_Tb2H19C24N3O23
_symmetry_space_group_name_H-M   'P 1'
_cell_length_a   11.41243548
_cell_length_b   11.94004937
_cell_length_c   13.08459899
_cell_angle_alpha   91.23366454
_cell_angle_beta   106.16179480
_cell_angle_gamma   90.19254788
_symmetry_Int_Tables_number   1
_chemical_formula_structural   Tb2H19C24N3O23
_chemical_formula_sum   'Tb4 H38 C48 N6 O46'
_cell_volume   1712.03128048
_cell_formula_units_Z   2
loop_
 _symmetry_equiv_pos_site_id
 _symmetry_equiv_pos_as_xyz
  1  'x, y, z'
loop_
 _atom_site_type_symbol
 _atom_site_label
 _atom_site_symmetry_multiplicity
 _atom_site_fract_x
 _atom_site_fract_y
 _atom_site_fract_z
 _atom_site_occupancy
 _atom_site_pbe_bader_charge
 _atom_site_pbe_bader_spin_density
 _atom_site_pbe_cm5_charge
 _atom_site_pbe_ddec_charge
 _atom_site_pbe_ddec_spin_density
 _atom_site_pbe_ddec_sum_bond_order
 _atom_site_pbe_magmom
Tb  Tb0  1  0.05256400  0.54582160  0.17011250  1  2.193885  0  1.51164  2.095645  0  2.139755  0
Tb  Tb1  1  0.94743616  0.45417509  0.82988072  1  2.193902  0  1.511679  2.095852  0  2.139556  0
Tb  Tb2  1  0.55048922  0.16238255  0.49985338  1  2.189062  0  1.496557  2.101451  0  2.123205  0
Tb  Tb3  1  0.44950298  0.83762499  0.50014741  1  2.189116  0  1.496543  2.10142  0  2.123283  0
H  H4  1  0.48356912  0.15468495  0.14338439  1  0.148173  0  0.117358  0.131913  0  1.010717  0
H  H5  1  0.51642676  0.84532082  0.85662565  1  0.148263  0  0.117348  0.131931  0  1.0107  0
H  H6  1  0.61760280  0.27321444  0.88662898  1  0.122411  0  0.112514  0.115749  0  1.04553  0
H  H7  1  0.38240202  0.72678551  0.11337232  1  0.122357  0  0.112521  0.115828  0  1.045633  0
H  H8  1  0.76036449  0.41275706  0.20246460  1  0.112172  0  0.115702  0.116632  0  1.013701  0
H  H9  1  0.23963490  0.58724717  0.79752941  1  0.112283  0  0.115725  0.11662  0  1.013717  0
H  H10  1  0.92746217  0.86802777  0.08753035  1  0.138006  0  0.120723  0.131029  0  1.004861  0
H  H11  1  0.07254709  0.13196547  0.91246953  1  0.138145  0  0.120684  0.130982  0  1.004862  0
H  H12  1  0.76250433  0.11666517  0.86012306  1  0.123841  0  0.120473  0.124838  0  1.014869  0
H  H13  1  0.23750408  0.88333055  0.13988051  1  0.124657  0  0.120497  0.124874  0  1.014833  0
H  H14  1  0.75090573  0.76895783  0.76271988  1  0.14796  0  0.119582  0.125112  0  0.994494  0
H  H15  1  0.24909550  0.23104635  0.23727762  1  0.148032  0  0.119607  0.125159  0  0.994355  0
H  H16  1  0.21128742  0.90357657  0.59114815  1  0.170156  0  0.122108  0.1303  0  1.039641  0
H  H17  1  0.78871101  0.09642428  0.40884937  1  0.170151  0  0.122112  0.130306  0  1.039636  0
H  H18  1  0.91399385  0.06855512  0.67544383  1  0.157913  0  0.122939  0.134488  0  0.999954  0
H  H19  1  0.08600169  0.93143653  0.32455274  1  0.157912  0  0.122956  0.134496  0  0.999952  0
H  H20  1  0.22889551  0.25942847  0.65753846  1  0.157182  0  0.119594  0.132509  0  0.980533  0
H  H21  1  0.77109110  0.74057583  0.34245174  1  0.157161  0  0.119564  0.132435  0  0.980587  0
H  H22  1  0.74576927  0.30127128  0.48025187  1  0.655207  0  0.305961  0.400827  0  0.922769  0
H  H23  1  0.25423206  0.69873448  0.51975640  1  0.655227  0  0.305956  0.400799  0  0.922824  0
H  H24  1  0.80649242  0.25722073  0.60060409  1  0.670981  0  0.302966  0.415264  0  0.912603  0
H  H25  1  0.19350419  0.74277841  0.39939753  1  0.670983  0  0.302977  0.415311  0  0.912559  0
H  H26  1  0.31354653  0.58676815  0.29928743  1  0.641073  0  0.302086  0.415845  0  0.903913  0
H  H27  1  0.68645196  0.41323434  0.70071320  1  0.641176  0  0.302105  0.415945  0  0.903793  0
H  H28  1  0.28844494  0.46776168  0.24355167  1  0.623726  0  0.319823  0.401  0  0.899426  0
H  H29  1  0.71156261  0.53223740  0.75645179  1  0.623711  0  0.319846  0.401073  0  0.899447  0
H  H30  1  0.65137048  0.21419380  0.71800053  1  0.63916  0  0.313128  0.398439  0  0.926602  0
H  H31  1  0.34862527  0.78580871  0.28199868  1  0.639089  0  0.313135  0.398469  0  0.926566  0
H  H32  1  0.52520471  0.27373463  0.68808163  1  0.645991  0  0.322224  0.413527  0  0.892089  0
H  H33  1  0.47479109  0.72627037  0.31191996  1  0.646032  0  0.322242  0.413569  0  0.892042  0
H  H34  1  0.55802977  0.38788561  0.42967187  1  0.634062  0  0.300354  0.390287  0  0.944858  0
H  H35  1  0.44197243  0.61212020  0.57033126  1  0.634071  0  0.300376  0.390274  0  0.944868  0
H  H36  1  0.42184040  0.39474538  0.43882743  1  0.610072  0  0.333203  0.429529  0  0.852993  0
H  H37  1  0.57816374  0.60526369  0.56118466  1  0.610052  0  0.333206  0.429546  0  0.852961  0
H  H38  1  0.00788114  0.35544312  0.32945395  1  0.664581  0  0.310353  0.40994  0  0.902338  0
H  H39  1  0.99212370  0.64455681  0.67054965  1  0.664594  0  0.310337  0.409949  0  0.902322  0
H  H40  1  0.94740555  0.47262606  0.33350570  1  0.619506  0  0.327614  0.41921  0  0.874561  0
H  H41  1  0.05259284  0.52737228  0.66649097  1  0.619477  0  0.327633  0.419272  0  0.87448  0
C  C42  1  0.62413054  0.28930107  0.30018982  1  1.580511  0  0.213633  0.595253  0  4.201676  0
C  C43  1  0.37586352  0.71071069  0.69980619  1  1.580069  0  0.21363  0.595332  0  4.201612  0
C  C44  1  0.61968583  0.28692181  0.18431489  1  -0.014348  0  -0.00971  -0.021115  0  3.940849  0
C  C45  1  0.38031184  0.71308741  0.81568344  1  -0.014865  0  -0.009658  -0.021063  0  3.940817  0
C  C46  1  0.54086178  0.21159599  0.11420424  1  0.034199  0  -0.060983  -0.108879  0  3.887866  0
C  C47  1  0.45913213  0.78840397  0.88579982  1  0.034872  0  -0.060953  -0.10891  0  3.888112  0
C  C48  1  0.53905864  0.21052726  0.00715909  1  0.151503  0  0.073088  0.056023  0  3.953073  0
C  C49  1  0.46094986  0.78947348  0.99284540  1  0.15167  0  0.073014  0.056105  0  3.952925  0
C  C50  1  0.61686420  0.27793046  0.96944314  1  0.024515  0  -0.066987  -0.11692  0  3.929483  0
C  C51  1  0.38313969  0.72206438  0.03056774  1  0.024325  0  -0.066972  -0.117075  0  3.92936  0
C  C52  1  0.69915461  0.34894415  0.04086624  1  0.043996  0  -0.008607  -0.023389  0  3.93525  0
C  C53  1  0.30084485  0.65106255  0.95913244  1  0.044316  0  -0.008575  -0.023303  0  3.935303  0
C  C54  1  0.69753835  0.35592434  0.14727436  1  -0.008941  0  -0.053086  -0.064136  0  3.865785  0
C  C55  1  0.30245285  0.64408074  0.85272002  1  -0.009116  0  -0.053022  -0.064017  0  3.865764  0
C  C56  1  0.79840039  0.40526458  0.00541632  1  1.60341  0  0.238505  0.672804  0  4.132173  0
C  C57  1  0.20160355  0.59473619  0.99458709  1  1.603097  0  0.238601  0.672797  0  4.132487  0
C  C58  1  0.89057721  0.68960931  0.95176112  1  1.6228  0  0.242442  0.670338  0  4.139397  0
C  C59  1  0.10942477  0.31038480  0.04823858  1  1.622571  0  0.242546  0.670411  0  4.139463  0
C  C60  1  0.84319182  0.80558832  0.92773723  1  0.010846  0  -0.010887  -0.037153  0  3.951258  0
C  C61  1  0.15681375  0.19440499  0.07225643  1  0.009872  0  -0.01082  -0.036986  0  3.951345  0
C  C62  1  0.87545263  0.88860080  0.00727972  1  -0.003383  0  -0.062224  -0.107889  0  3.921289  0
C  C63  1  0.12456034  0.11139491  0.99272417  1  -0.002389  0  -0.062235  -0.107938  0  3.921788  0
C  C64  1  0.84519404  0.99867532  0.98026775  1  0.273432  0  0.076382  0.05803  0  3.972958  0
C  C65  1  0.15481079  0.00132463  0.01973432  1  0.273337  0  0.076421  0.058144  0  3.973031  0
C  C66  1  0.78123444  0.02896045  0.87778803  1  -0.025937  0  -0.059937  -0.10749  0  3.898278  0
C  C67  1  0.21877763  0.97103696  0.12221340  1  -0.026834  0  -0.059866  -0.107549  0  3.898335  0
C  C68  1  0.74397853  0.94455230  0.79994548  1  -0.021651  0  -0.005328  -0.026797  0  3.928633  0
C  C69  1  0.25603083  0.05544937  0.20004931  1  -0.021747  0  -0.005359  -0.026708  0  3.928703  0
C  C70  1  0.77610760  0.83335011  0.82515288  1  0.019652  0  -0.050217  -0.054071  0  3.862269  0
C  C71  1  0.22389810  0.16665075  0.17484025  1  0.01974  0  -0.050314  -0.054274  0  3.862326  0
C  C72  1  0.67061117  0.96931411  0.68886566  1  1.602301  0  0.242197  0.664735  0  4.123706  0
C  C73  1  0.32939006  0.03069007  0.31113261  1  1.602123  0  0.242189  0.664791  0  4.123426  0
C  C74  1  0.34734047  0.09350984  0.58825688  1  1.583063  0  0.233681  0.658264  0  4.136853  0
C  C75  1  0.65264987  0.90649776  0.41173813  1  1.582917  0  0.233529  0.658238  0  4.137063  0
C  C76  1  0.23113662  0.08344696  0.61850647  1  -0.009912  0  -0.003405  -0.021401  0  3.932898  0
C  C77  1  0.76885449  0.91655567  0.38148094  1  -0.010028  0  -0.003425  -0.021289  0  3.932612  0
C  C78  1  0.17164489  0.98002951  0.61308558  1  0.036781  0  -0.051213  -0.098669  0  3.86307  0
C  C79  1  0.82835172  0.01997135  0.38691074  1  0.037278  0  -0.051199  -0.098744  0  3.863105  0
C  C80  1  0.05841794  0.97751315  0.63382252  1  0.20244  0  0.077891  0.056408  0  3.953875  0
C  C81  1  0.94158135  0.02248177  0.36618039  1  0.202784  0  0.077938  0.056481  0  3.953684  0
C  C82  1  0.00264990  0.07370886  0.65995443  1  -0.045647  0  -0.054633  -0.097535  0  3.884787  0
C  C83  1  0.99734291  0.92628451  0.34003772  1  -0.045376  0  -0.054731  -0.097625  0  3.884768  0
C  C84  1  0.06640737  0.17549987  0.67093978  1  0.009633  0  -0.009999  -0.027517  0  3.94417  0
C  C85  1  0.93358365  0.82449432  0.32905502  1  0.009472  0  -0.009964  -0.027391  0  3.943982  0
C  C86  1  0.18001294  0.17988831  0.64986224  1  0.020644  0  -0.049552  -0.056182  0  3.848074  0
C  C87  1  0.81997549  0.82011514  0.35012914  1  0.020046  0  -0.049516  -0.056205  0  3.847998  0
C  C88  1  0.01932663  0.27963374  0.71077062  1  1.550381  0  0.204284  0.576651  0  4.214204  0
C  C89  1  0.98066440  0.72036044  0.28922495  1  1.55059  0  0.204241  0.576587  0  4.214379  0
N  N90  1  0.45712359  0.13209106  0.93197107  1  0.392215  0  0.059445  0.523943  0  4.193823  0
N  N91  1  0.54288307  0.86790459  0.06804201  1  0.392331  0  0.059205  0.523399  0  4.194259  0
N  N92  1  0.88719588  0.08609224  0.06227535  1  0.373785  0  0.055082  0.51083  0  4.210574  0
N  N93  1  0.11280883  0.91389843  0.93773332  1  0.373729  0  0.054871  0.51049  0  4.210873  0
N  N94  1  0.99649830  0.86913908  0.63096424  1  0.394875  0  0.061086  0.515643  0  4.200633  0
N  N95  1  0.00350919  0.13085495  0.36904212  1  0.394691  0  0.061051  0.515535  0  4.200661  0
O  O96  1  0.46435292  0.12707485  0.83886862  1  -0.48784  0  -0.133555  -0.340682  0  1.931937  0
O  O97  1  0.53566457  0.87291489  0.16114536  1  -0.488162  0  -0.133362  -0.340358  0  1.932064  0
O  O98  1  0.38551892  0.07451782  0.96539328  1  -0.475286  0  -0.134708  -0.346064  0  1.977421  0
O  O99  1  0.61449247  0.92548957  0.03461667  1  -0.475186  0  -0.134667  -0.345935  0  1.977393  0
O  O100  1  0.58120424  0.20329641  0.33361324  1  -1.184303  0  -0.396968  -0.64671  0  2.313744  0
O  O101  1  0.41879711  0.79671360  0.66638827  1  -1.18421  0  -0.396997  -0.646773  0  2.313866  0
O  O102  1  0.66909084  0.37518495  0.35786727  1  -1.187887  0  -0.332201  -0.584085  0  2.089734  0
O  O103  1  0.33090238  0.62483101  0.64212865  1  -1.187638  0  -0.332222  -0.584117  0  2.089692  0
O  O104  1  0.79593120  0.39469640  0.90804791  1  -1.185263  0  -0.393331  -0.667937  0  2.295706  0
O  O105  1  0.20406715  0.60530284  0.09194113  1  -1.18531  0  -0.393307  -0.667827  0  2.296305  0
O  O106  1  0.88167655  0.45584766  0.07630363  1  -1.200038  0  -0.417936  -0.707833  0  2.400757  0
O  O107  1  0.11832615  0.54413814  0.92368838  1  -1.199926  0  -0.418171  -0.708063  0  2.400455  0
O  O108  1  0.95423607  0.67205823  0.04576293  1  -1.192605  0  -0.395557  -0.665137  0  2.362021  0
O  O109  1  0.04575576  0.32793094  0.95423040  1  -1.19268  0  -0.395646  -0.665203  0  2.361793  0
O  O110  1  0.86590103  0.61833087  0.87457958  1  -1.203593  0  -0.406561  -0.682595  0  2.308279  0
O  O111  1  0.13409719  0.38166170  0.12540619  1  -1.203318  0  -0.406519  -0.682599  0  2.308714  0
O  O112  1  0.62417230  0.88588114  0.63058271  1  -1.183449  0  -0.394141  -0.652269  0  2.371378  0
O  O113  1  0.37582344  0.11412224  0.36941424  1  -1.183279  0  -0.394128  -0.652314  0  2.371329  0
O  O114  1  0.65927486  0.07163276  0.66037616  1  -1.203558  0  -0.380201  -0.680151  0  2.29467  0
O  O115  1  0.34071817  0.92836889  0.33962697  1  -1.203368  0  -0.380238  -0.680215  0  2.294459  0
O  O116  1  0.86831336  0.18477798  0.03592764  1  -0.477975  0  -0.101445  -0.308198  0  2.05618  0
O  O117  1  0.13168967  0.81522024  0.96408083  1  -0.478088  0  -0.10128  -0.307981  0  2.056523  0
O  O118  1  0.94258615  0.05702034  0.15339546  1  -0.488686  0  -0.128816  -0.350967  0  2.05324  0
O  O119  1  0.05741667  0.94296957  0.84660510  1  -0.4885  0  -0.128816  -0.350885  0  2.053139  0
O  O120  1  0.39375900  0.19070274  0.58765341  1  -1.183616  0  -0.378094  -0.648211  0  2.23137  0
O  O121  1  0.60623691  0.80930813  0.41234836  1  -1.183552  0  -0.378053  -0.64825  0  2.231628  0
O  O122  1  0.39593067  0.00662099  0.56005429  1  -1.205191  0  -0.41138  -0.722332  0  2.433158  0
O  O123  1  0.60407248  0.99338650  0.43994835  1  -1.205144  0  -0.411278  -0.722299  0  2.4333  0
O  O124  1  0.09096141  0.36252624  0.74231932  1  -1.169889  0  -0.356906  -0.602938  0  2.172642  0
O  O125  1  0.90902783  0.63747133  0.25767362  1  -1.170167  0  -0.356866  -0.602852  0  2.172772  0
O  O126  1  0.90800981  0.28294450  0.71642699  1  -1.189852  0  -0.370352  -0.636581  0  2.202464  0
O  O127  1  0.09198395  0.71704796  0.28357301  1  -1.189796  0  -0.370313  -0.636564  0  2.20246  0
O  O128  1  0.05866840  0.78249769  0.63441187  1  -0.496842  0  -0.125099  -0.346457  0  1.963809  0
O  O129  1  0.94134444  0.21749133  0.36559028  1  -0.496633  0  -0.125075  -0.346393  0  1.963899  0
O  O130  1  0.88679684  0.86842554  0.62608312  1  -0.466515  0  -0.10372  -0.306118  0  1.995365  0
O  O131  1  0.11321153  0.13156511  0.37392642  1  -0.466736  0  -0.103735  -0.30612  0  1.995457  0
O  O132  1  0.74881086  0.23851364  0.52939992  1  -1.312965  0  -0.652934  -0.860183  0  2.084491  0
O  O133  1  0.25118577  0.76148805  0.47059796  1  -1.31289  0  -0.652983  -0.860261  0  2.084498  0
O  O134  1  0.26442322  0.51670007  0.29487815  1  -1.239894  0  -0.610593  -0.812186  0  1.963826  0
O  O135  1  0.73557526  0.48330329  0.70511945  1  -1.239975  0  -0.610643  -0.8124  0  1.963691  0
O  O136  1  0.61028291  0.28309480  0.68689430  1  -1.252203  0  -0.572308  -0.785114  0  2.065786  0
O  O137  1  0.38971371  0.71690605  0.31310355  1  -1.252193  0  -0.572342  -0.785206  0  2.065621  0
O  O138  1  0.50129597  0.36151015  0.47029691  1  -1.225063  0  -0.622178  -0.83352  0  2.021412  0
O  O139  1  0.49870722  0.63849898  0.52970884  1  -1.225043  0  -0.622164  -0.833483  0  2.021411  0
O  O140  1  0.01568161  0.43569009  0.31599328  1  -1.253922  0  -0.618857  -0.8371  0  1.999032  0
O  O141  1  0.98432045  0.56430906  0.68400505  1  -1.253923  0  -0.61888  -0.837194  0  1.998959  0
