# generated using pymatgen
data_H4RhC9N2(O2F3)2
_symmetry_space_group_name_H-M   'P 1'
_cell_length_a   8.59786458
_cell_length_b   9.55799536
_cell_length_c   11.78664461
_cell_angle_alpha   66.26262875
_cell_angle_beta   88.37656392
_cell_angle_gamma   62.36243578
_symmetry_Int_Tables_number   1
_chemical_formula_structural   H4RhC9N2(O2F3)2
_chemical_formula_sum   'H8 Rh2 C18 N4 O8 F12'
_cell_volume   770.36447065
_cell_formula_units_Z   2
loop_
 _symmetry_equiv_pos_site_id
 _symmetry_equiv_pos_as_xyz
  1  'x, y, z'
loop_
 _atom_site_type_symbol
 _atom_site_label
 _atom_site_symmetry_multiplicity
 _atom_site_fract_x
 _atom_site_fract_y
 _atom_site_fract_z
 _atom_site_occupancy
 _atom_site_pbe_bader_spin_density
 _atom_site_pbe_cm5_charge
 _atom_site_pbe_ddec_charge
 _atom_site_pbe_ddec_spin_density
 _atom_site_pbe_ddec_sum_bond_order
 _atom_site_pbe_magmom
H  H0  1  0.06527301  0.57969516  0.66337391  1  0  0.11444  0.137521  0  0.988081  0
H  H1  1  0.93471958  0.42031013  0.33662380  1  0  0.114432  0.137534  0  0.988064  0
H  H2  1  0.36503149  0.39078298  0.35138292  1  0  0.096866  0.1471  0  1.030901  0
H  H3  1  0.63496104  0.60922481  0.64861655  1  0  0.096858  0.147102  0  1.030868  0
H  H4  1  0.23718329  0.31133314  0.30652729  1  0  0.088444  0.137538  0  1.009189  0
H  H5  1  0.76281339  0.68867331  0.69347083  1  0  0.088432  0.137452  0  1.00926  0
H  H6  1  0.38223511  0.18968957  0.45697182  1  0  0.09622  0.146561  0  0.99425  0
H  H7  1  0.61776050  0.81031425  0.54302883  1  0  0.096205  0.146507  0  0.994249  0
Rh  Rh8  1  0.48571217  0.48891953  0.90147360  1  0  0.694151  0.649803  0  3.712104  0
Rh  Rh9  1  0.51428881  0.51108044  0.09852306  1  0  0.694222  0.649748  0  3.711877  0
C  C10  1  0.15566571  0.64781262  0.98004605  1  0  0.209197  0.390387  0  4.202295  0
C  C11  1  0.84433610  0.35218783  0.01997251  1  0  0.209172  0.390317  0  4.202365  0
C  C12  1  0.94912712  0.75306688  0.96289543  1  0  0.303106  0.601088  0  4.039223  0
C  C13  1  0.05087733  0.24692095  0.03711511  1  0  0.303144  0.601098  0  4.039213  0
C  C14  1  0.54236871  0.18808475  0.12692685  1  0  0.212045  0.390816  0  4.19965  0
C  C15  1  0.45763776  0.81191573  0.87308737  1  0  0.212113  0.391049  0  4.199748  0
C  C16  1  0.58105284  0.99724632  0.20675179  1  0  0.304055  0.598106  0  4.039652  0
C  C17  1  0.41894637  0.00275490  0.79324706  1  0  0.304048  0.598101  0  4.039461  0
C  C18  1  0.39193274  0.45164291  0.65389449  1  0  0.317567  0.416365  0  4.186717  0
C  C19  1  0.60806880  0.54835834  0.34610176  1  0  0.317599  0.416405  0  4.186707  0
C  C20  1  0.17453379  0.46298313  0.53493745  1  0  0.152957  0.237368  0  3.99  0
C  C21  1  0.82546370  0.53701684  0.46506181  1  0  0.152955  0.237478  0  3.989975  0
C  C22  1  0.13861831  0.41494850  0.43995548  1  0  0.020547  0.151246  0  3.913431  0
C  C23  1  0.86137791  0.58505410  0.56004299  1  0  0.020576  0.151197  0  3.913479  0
C  C24  1  0.03268615  0.54629234  0.59227021  1  0  -0.08183  -0.228497  0  3.894836  0
C  C25  1  0.96730772  0.45371029  0.40772914  1  0  -0.081771  -0.228552  0  3.894803  0
C  C26  1  0.28777164  0.32259257  0.38469137  1  0  -0.242288  -0.422348  0  3.959103  0
C  C27  1  0.71222395  0.67741135  0.61530670  1  0  -0.242272  -0.422199  0  3.959108  0
N  N28  1  0.45464092  0.46573209  0.73373666  1  0  -0.356266  -0.408129  0  3.189267  0
N  N29  1  0.54536423  0.53426649  0.26625950  1  0  -0.356316  -0.408209  0  3.189491  0
N  N30  1  0.34229393  0.42474696  0.56548671  1  0  -0.266826  -0.284946  0  3.373503  0
N  N31  1  0.65770228  0.57525564  0.43451177  1  0  -0.26689  -0.28507  0  3.373357  0
O  O32  1  0.21364385  0.60423816  0.89255389  1  0  -0.278301  -0.39556  0  2.460282  0
O  O33  1  0.78635591  0.39576200  0.10743849  1  0  -0.278192  -0.395239  0  2.461056  0
O  O34  1  0.24160029  0.62376298  0.07792530  1  0  -0.271934  -0.376427  0  2.452387  0
O  O35  1  0.75839847  0.37623198  0.92206956  1  0  -0.272008  -0.376667  0  2.451822  0
O  O36  1  0.51774217  0.24340333  0.00815249  1  0  -0.270788  -0.376731  0  2.471894  0
O  O37  1  0.48226162  0.75659816  0.99183516  1  0  -0.2707  -0.376677  0  2.472927  0
O  O38  1  0.54554107  0.26521494  0.19212101  1  0  -0.274717  -0.382407  0  2.478668  0
O  O39  1  0.45445655  0.73477761  0.80787037  1  0  -0.274843  -0.382734  0  2.477993  0
F  F40  1  0.86635329  0.71722511  0.89002545  1  0  -0.099474  -0.197829  0  1.341121  0
F  F41  1  0.13364776  0.28276010  0.10998936  1  0  -0.099502  -0.197878  0  1.341247  0
F  F42  1  0.89335705  0.92807176  0.90415787  1  0  -0.097952  -0.18592  0  1.274063  0
F  F43  1  0.10664003  0.07192418  0.09584689  1  0  -0.097962  -0.185919  0  1.274055  0
F  F44  1  0.89522818  0.71637193  0.07486673  1  0  -0.091599  -0.181779  0  1.349629  0
F  F45  1  0.10478501  0.28361950  0.92514424  1  0  -0.091631  -0.18176  0  1.349687  0
F  F46  1  0.49214782  0.98692471  0.30438801  1  0  -0.09043  -0.191409  0  1.344411  0
F  F47  1  0.50784059  0.01307967  0.69560241  1  0  -0.090433  -0.191408  0  1.344288  0
F  F48  1  0.53505821  0.93371436  0.13842733  1  0  -0.086813  -0.175856  0  1.394599  0
F  F49  1  0.46495870  0.06628400  0.86156615  1  0  -0.086766  -0.175822  0  1.394565  0
F  F50  1  0.76032071  0.89199662  0.25650708  1  0  -0.1004  -0.195942  0  1.294965  0
F  F51  1  0.23967782  0.10801074  0.74350006  1  0  -0.100446  -0.195975  0  1.294905  0
