# generated using pymatgen
data_ZnH5C12NO7
_symmetry_space_group_name_H-M   'P 1'
_cell_length_a   8.07772981
_cell_length_b   9.25584993
_cell_length_c   17.05601240
_cell_angle_alpha   90.08016890
_cell_angle_beta   84.78702148
_cell_angle_gamma   90.01259821
_symmetry_Int_Tables_number   1
_chemical_formula_structural   ZnH5C12NO7
_chemical_formula_sum   'Zn2 H10 C24 N2 O14'
_cell_volume   1269.93843692
_cell_formula_units_Z   2
loop_
 _symmetry_equiv_pos_site_id
 _symmetry_equiv_pos_as_xyz
  1  'x, y, z'
loop_
 _atom_site_type_symbol
 _atom_site_label
 _atom_site_symmetry_multiplicity
 _atom_site_fract_x
 _atom_site_fract_y
 _atom_site_fract_z
 _atom_site_occupancy
 _atom_site_pbe_bader_charge
 _atom_site_pbe_bader_spin_density
 _atom_site_pbe_cm5_charge
 _atom_site_pbe_ddec_charge
 _atom_site_pbe_ddec_spin_density
 _atom_site_pbe_ddec_sum_bond_order
 _atom_site_pbe_magmom
Zn  Zn0  1  0.33919759  0.49686862  0.49456214  1  1.300838  0  0.69435  0.841531  0  2.429856  0
Zn  Zn1  1  0.66134213  0.49710895  0.50569838  1  1.301587  0  0.694317  0.841056  0  2.429325  0
H  H2  1  0.23904975  0.22089515  0.87502816  1  0.130704  0  0.109979  0.114959  0  1.003122  0
H  H3  1  0.15442792  0.34310692  0.99029609  1  0.056141  0  0.096594  0.028672  0  0.994119  0
H  H4  1  0.75932155  0.21710664  0.12410109  1  0.11474  0  0.110407  0.115021  0  1.003997  0
H  H5  1  0.40285144  0.55804152  0.10132185  1  0.073311  0  0.107234  0.103726  0  0.989346  0
H  H6  1  0.59881203  0.55860806  0.89989010  1  0.102234  0  0.107406  0.103447  0  0.989905  0
H  H7  1  0.60201296  0.61019254  0.75718632  1  0.069282  0  0.116208  0.122192  0  0.969643  0
H  H8  1  0.40191451  0.60843408  0.24408787  1  0.1017  0  0.11585  0.122477  0  0.969454  0
H  H9  1  0.91215642  0.07390950  0.27772883  1  0.627856  0  0.349933  0.388617  0  0.84297  0
H  H10  1  0.08789943  0.07992222  0.72002152  1  0.623979  0  0.351338  0.391497  0  0.840247  0
H  H11  1  0.84503125  0.34142987  0.00954383  1  0.06584  0  0.095935  0.027787  0  0.994623  0
C  C12  1  0.49884335  0.77531384  0.49944299  1  1.599181  0  0.228622  0.672318  0  4.211146  0
C  C13  1  0.48315001  0.52523484  0.21658564  1  0.026387  0  -0.076649  -0.090699  0  3.967812  0
C  C14  1  0.52024588  0.49657197  0.86348845  1  -0.027059  0  -0.073512  -0.093207  0  3.965587  0
C  C15  1  0.48116363  0.49499062  0.13726074  1  -0.04489  0  -0.072642  -0.092828  0  3.964324  0
C  C16  1  0.42197510  0.38345972  0.89775995  1  0.018475  0  -0.007925  0.065473  0  4.048377  0
C  C17  1  0.57804774  0.38152180  0.10235489  1  0.035119  0  -0.009046  0.064516  0  4.047392  0
C  C18  1  0.31529455  0.31008018  0.85069845  1  -0.010996  0  -0.072963  -0.135678  0  3.912717  0
C  C19  1  0.68421233  0.30664838  0.14892683  1  -0.080073  0  -0.073245  -0.135231  0  3.911356  0
C  C20  1  0.30768915  0.34516748  0.77109119  1  -0.073209  0  -0.001452  -0.037779  0  3.90962  0
C  C21  1  0.69270215  0.34059347  0.22870001  1  -0.036753  0  -0.001377  -0.036207  0  3.907855  0
C  C22  1  0.42658005  0.35229124  0.98185411  1  0.023569  0  0.0044  -0.02994  0  3.870992  0
C  C23  1  0.49883539  0.21841643  0.50042822  1  1.718319  0  0.227488  0.662134  0  4.218251  0
C  C24  1  0.57295581  0.35152870  0.01813064  1  -0.092891  0  0.004983  -0.028701  0  3.870663  0
C  C25  1  0.81324050  0.25809623  0.27325912  1  1.529127  0  0.23188  0.577284  0  4.108063  0
C  C26  1  0.18590243  0.26432311  0.72626043  1  1.523147  0  0.233385  0.581264  0  4.103457  0
C  C27  1  0.73786790  0.31979318  0.97412744  1  0.948177  0  0.096027  0.257613  0  3.972881  0
C  C28  1  0.26145564  0.32084157  0.02568209  1  0.92693  0  0.095728  0.257537  0  3.973743  0
C  C29  1  0.49859494  0.93131266  0.49957982  1  -0.010765  0  -0.021811  -0.112066  0  3.919786  0
C  C30  1  0.49860786  0.06243648  0.49991949  1  -0.157064  0  -0.01763  -0.100793  0  3.917344  0
C  C31  1  0.44000082  0.48343822  0.65015686  1  1.597881  0  0.224416  0.603587  0  4.14572  0
C  C32  1  0.56305686  0.48009757  0.35025955  1  1.592314  0  0.22354  0.602084  0  4.153145  0
C  C33  1  0.41451513  0.45302723  0.73694952  1  0.035715  0  0.010552  -0.006486  0  3.871409  0
C  C34  1  0.58761895  0.44925408  0.26340788  1  0.004675  0  0.012104  -0.005071  0  3.871566  0
C  C35  1  0.51946747  0.52759204  0.78425916  1  -0.046696  0  -0.075542  -0.088193  0  3.966937  0
N  N36  1  0.93174370  0.48492904  0.50671917  1  0.120094  0  0.096955  0.148581  0  2.940616  0
N  N37  1  0.06857963  0.48486998  0.49412930  1  -0.046216  0  0.096302  0.146952  0  2.940226  0
O  O38  1  0.36928422  0.71364099  0.47775137  1  -1.130264  0  -0.310666  -0.534119  0  2.23918  0
O  O39  1  0.82630814  0.11777155  0.24831040  1  -1.121765  0  -0.339132  -0.489904  0  2.200521  0
O  O40  1  0.10186758  0.31449526  0.67709626  1  -1.114632  0  -0.290318  -0.476793  0  2.103283  0
O  O41  1  0.17475546  0.12293268  0.74922112  1  -1.118625  0  -0.339997  -0.492828  0  2.197549  0
O  O42  1  0.76120957  0.26757822  0.90809373  1  -1.056829  0  -0.252082  -0.329621  0  2.108973  0
O  O43  1  0.23777046  0.26840462  0.09158532  1  -1.058655  0  -0.25279  -0.33056  0  2.11077  0
O  O44  1  0.63973490  0.27967924  0.48686431  1  -1.120503  0  -0.303386  -0.526637  0  2.265082  0
O  O45  1  0.62863580  0.71422110  0.52113430  1  -1.128521  0  -0.311128  -0.535945  0  2.238354  0
O  O46  1  0.35803131  0.27984202  0.51438850  1  -1.125491  0  -0.304601  -0.528138  0  2.262801  0
O  O47  1  0.32098379  0.52901930  0.61338227  1  -1.144994  0  -0.310057  -0.530628  0  2.322535  0
O  O48  1  0.68224390  0.52655844  0.38671942  1  -1.13205  0  -0.309149  -0.528161  0  2.322943  0
O  O49  1  0.58899369  0.46088295  0.62071575  1  -1.132252  0  -0.310146  -0.53457  0  2.291549  0
O  O50  1  0.41437700  0.45744185  0.37998685  1  -1.142209  0  -0.309995  -0.535381  0  2.296373  0
O  O51  1  0.89486844  0.30627444  0.32397613  1  -1.113915  0  -0.288694  -0.47416  0  2.106329  0
