# generated using pymatgen
data_CsH3C11(N3O)2
_symmetry_space_group_name_H-M   'P 1'
_cell_length_a   6.80788497
_cell_length_b   10.94323288
_cell_length_c   19.83918476
_cell_angle_alpha   104.88974134
_cell_angle_beta   92.54009546
_cell_angle_gamma   100.85238609
_symmetry_Int_Tables_number   1
_chemical_formula_structural   CsH3C11(N3O)2
_chemical_formula_sum   'Cs4 H12 C44 N24 O8'
_cell_volume   1396.14285015
_cell_formula_units_Z   4
loop_
 _symmetry_equiv_pos_site_id
 _symmetry_equiv_pos_as_xyz
  1  'x, y, z'
loop_
 _atom_site_type_symbol
 _atom_site_label
 _atom_site_symmetry_multiplicity
 _atom_site_fract_x
 _atom_site_fract_y
 _atom_site_fract_z
 _atom_site_occupancy
 _atom_site_hle17_bader_spin_density
 _atom_site_hle17_ddec_charge
 _atom_site_hle17_ddec_spin_density
 _atom_site_hle17_ddec_sum_bond_order
 _atom_site_hle17_magmom
 _atom_site_hse06_10hf_bader_spin_density
 _atom_site_hse06_10hf_ddec_charge
 _atom_site_hse06_10hf_ddec_spin_density
 _atom_site_hse06_10hf_ddec_sum_bond_order
 _atom_site_hse06_10hf_magmom
 _atom_site_hse06_bader_spin_density
 _atom_site_hse06_ddec_charge
 _atom_site_hse06_ddec_spin_density
 _atom_site_hse06_ddec_sum_bond_order
 _atom_site_hse06_magmom
 _atom_site_pbe_bader_spin_density
 _atom_site_pbe_cm5_charge
 _atom_site_pbe_ddec_charge
 _atom_site_pbe_ddec_spin_density
 _atom_site_pbe_ddec_sum_bond_order
 _atom_site_pbe_magmom
Cs  Cs0  1  0.18879864  0.82525298  0.96782066  1  0  0.921606  0  0.557632  0  0  0.854139  0  0.802672  0  0  0.870227  0  0.778285  0  0  0.915065  0.842392  0  0.82007  0
Cs  Cs1  1  0.81120221  0.17474249  0.03218137  1  0  0.921606  0  0.557628  0  0  0.854148  0  0.802655  0  0  0.870234  0  0.778269  0  0  0.915056  0.842394  0  0.820069  0
Cs  Cs2  1  0.69517158  0.32682247  0.39968480  1  0  0.925206  0  0.521496  0  0  0.859679  0  0.761506  0  0  0.875065  0  0.739027  0  0  0.874216  0.848901  0  0.777082  0
Cs  Cs3  1  0.30483172  0.67317590  0.60031516  1  0  0.92521  0  0.52151  0  0  0.85969  0  0.761516  0  0  0.875075  0  0.739037  0  0  0.874242  0.848899  0  0.777088  0
H  H4  1  0.39393436  0.29525603  0.17593829  1  0  0.152061  0  0.923568  0  0  0.169875  0  0.981938  0  0  0.171328  0  0.981981  0  0  0.129184  0.168821  0  0.982025  0
H  H5  1  0.60606629  0.70474331  0.82406328  1  0  0.15214  0  0.923541  0  0  0.169947  0  0.981899  0  0  0.1714  0  0.981941  0  0  0.12924  0.168892  0  0.981989  0
H  H6  1  0.51436853  0.20079318  0.22033155  1  0  0.145257  0  0.948739  0  0  0.156678  0  1.018773  0  0  0.159482  0  1.016458  0  0  0.121688  0.15468  0  1.020363  0
H  H7  1  0.48563244  0.79920713  0.77966965  1  0  0.145273  0  0.94867  0  0  0.156658  0  1.018787  0  0  0.159468  0  1.016458  0  0  0.121696  0.154659  0  1.020378  0
H  H8  1  0.25082532  0.20967840  0.22957387  1  0  0.156267  0  0.918801  0  0  0.170932  0  0.980102  0  0  0.173557  0  0.978302  0  0  0.126234  0.16913  0  0.981222  0
H  H9  1  0.74917504  0.79031997  0.77042604  1  0  0.156284  0  0.918787  0  0  0.170943  0  0.980083  0  0  0.173568  0  0.978283  0  0  0.126233  0.169144  0  0.981202  0
H  H10  1  0.73673141  0.86455154  0.52838979  1  0  0.158271  0  0.930279  0  0  0.172143  0  0.992842  0  0  0.174618  0  0.991479  0  0  0.123274  0.170394  0  0.993812  0
H  H11  1  0.26326833  0.13544490  0.47160933  1  0  0.158247  0  0.930297  0  0  0.172123  0  0.992865  0  0  0.174595  0  0.9915  0  0  0.123263  0.170375  0  0.993833  0
H  H12  1  0.00255837  0.86242139  0.53032712  1  0  0.153344  0  0.946541  0  0  0.165144  0  1.013262  0  0  0.167902  0  1.011345  0  0  0.12049  0.163135  0  1.014745  0
H  H13  1  0.99744345  0.13757698  0.46967332  1  0  0.153358  0  0.946523  0  0  0.165146  0  1.013282  0  0  0.167905  0  1.011363  0  0  0.1205  0.163142  0  1.014755  0
H  H14  1  0.85160319  0.80424202  0.59303744  1  0  0.145726  0  0.935218  0  0  0.159999  0  1.002673  0  0  0.162271  0  1.00091  0  0  0.126552  0.158603  0  1.003522  0
H  H15  1  0.14839687  0.19575539  0.40696183  1  0  0.145706  0  0.935224  0  0  0.15998  0  1.002675  0  0  0.162253  0  1.000907  0  0  0.126538  0.158582  0  1.003539  0
C  C16  1  0.22397316  0.75592950  0.17275278  1  0  0.28783  0  3.80085  0  0  0.271934  0  4.082304  0  0  0.282652  0  4.101025  0  0  0.187306  0.264541  0  4.069935  0
C  C17  1  0.77602203  0.24406211  0.82724760  1  0  0.287915  0  3.800977  0  0  0.272016  0  4.082408  0  0  0.282738  0  4.101128  0  0  0.187315  0.264616  0  4.070046  0
C  C18  1  0.15022301  0.48800928  0.19440070  1  0  0.296525  0  3.798054  0  0  0.28202  0  4.069371  0  0  0.293315  0  4.087301  0  0  0.194056  0.274275  0  4.057428  0
C  C19  1  0.84977836  0.51198329  0.80560093  1  0  0.296521  0  3.797932  0  0  0.282028  0  4.06928  0  0  0.293324  0  4.087208  0  0  0.193971  0.274282  0  4.057338  0
C  C20  1  0.22320796  0.51247163  0.35178867  1  0  0.305876  0  3.785453  0  0  0.292728  0  4.056399  0  0  0.305609  0  4.072487  0  0  0.202024  0.283978  0  4.045564  0
C  C21  1  0.77679330  0.48752964  0.64821419  1  0  0.306023  0  3.785556  0  0  0.292847  0  4.056484  0  0  0.305728  0  4.072574  0  0  0.20202  0.284088  0  4.045646  0
C  C22  1  0.33210385  0.80588982  0.42918633  1  0  0.299238  0  3.77666  0  0  0.282324  0  4.052933  0  0  0.294309  0  4.069597  0  0  0.193384  0.274162  0  4.041543  0
C  C23  1  0.66789714  0.19411048  0.57081437  1  0  0.299388  0  3.776837  0  0  0.282467  0  4.053077  0  0  0.294452  0  4.069737  0  0  0.193408  0.274309  0  4.041693  0
C  C24  1  0.33663321  0.95470117  0.31603283  1  0  0.305645  0  3.786256  0  0  0.290121  0  4.055758  0  0  0.302509  0  4.073825  0  0  0.195021  0.281774  0  4.043568  0
C  C25  1  0.66335740  0.04529431  0.68396650  1  0  0.305488  0  3.786499  0  0  0.289978  0  4.056016  0  0  0.302365  0  4.074085  0  0  0.194899  0.281628  0  4.04383  0
C  C26  1  0.24074959  0.72886503  0.23797825  1  0  -0.051145  0  3.893778  0  0  -0.051167  0  4.147346  0  0  -0.053863  0  4.169897  0  0  -0.004214  -0.049453  0  4.132576  0
C  C27  1  0.75924361  0.27112949  0.76202301  1  0  -0.051262  0  3.893825  0  0  -0.051244  0  4.147411  0  0  -0.053946  0  4.169968  0  0  -0.004198  -0.049523  0  4.132634  0
C  C28  1  0.20797739  0.60323456  0.24825066  1  0  -0.055588  0  3.887135  0  0  -0.052508  0  4.134694  0  0  -0.056209  0  4.157239  0  0  -0.003115  -0.050106  0  4.119729  0
C  C29  1  0.79201611  0.39676092  0.75175125  1  0  -0.055569  0  3.887302  0  0  -0.052568  0  4.134923  0  0  -0.056264  0  4.157471  0  0  -0.003175  -0.050168  0  4.119953  0
C  C30  1  0.24019272  0.61632966  0.32138846  1  0  -0.043379  0  3.849912  0  0  -0.040064  0  4.093657  0  0  -0.043382  0  4.115525  0  0  0.004055  -0.037812  0  4.07874  0
C  C31  1  0.75979845  0.38366776  0.67861469  1  0  -0.043311  0  3.849802  0  0  -0.039912  0  4.093427  0  0  -0.043239  0  4.115305  0  0  0.004205  -0.03765  0  4.078499  0
C  C32  1  0.29217569  0.75069138  0.35639108  1  0  -0.034242  0  3.845816  0  0  -0.031334  0  4.09068  0  0  -0.033481  0  4.111891  0  0  0.004658  -0.029484  0  4.075989  0
C  C33  1  0.70781991  0.24930604  0.64361063  1  0  -0.034557  0  3.846099  0  0  -0.031613  0  4.090926  0  0  -0.033757  0  4.112138  0  0  0.004547  -0.029771  0  4.076238  0
C  C34  1  0.29264487  0.82000992  0.30469889  1  0  -0.061858  0  3.891434  0  0  -0.058914  0  4.140217  0  0  -0.063404  0  4.162995  0  0  -0.004629  -0.056034  0  4.124989  0
C  C35  1  0.70734963  0.17998846  0.69530042  1  0  -0.061606  0  3.891487  0  0  -0.058741  0  4.140334  0  0  -0.063227  0  4.163112  0  0  -0.004577  -0.055861  0  4.125108  0
C  C36  1  0.37283864  0.20920504  0.19560306  1  0  -0.280078  0  3.511212  0  0  -0.391039  0  3.743135  0  0  -0.390886  0  3.743998  0  0  -0.127295  -0.390955  0  3.742482  0
C  C37  1  0.62716348  0.79079429  0.80439853  1  0  -0.280206  0  3.51114  0  0  -0.391123  0  3.743008  0  0  -0.390962  0  3.743865  0  0  -0.127373  -0.391043  0  3.74236  0
C  C38  1  0.72280929  0.82055877  0.08266114  1  0  0.309848  0  3.781408  0  0  0.295951  0  4.052736  0  0  0.308077  0  4.069352  0  0  0.202092  0.287676  0  4.041594  0
C  C39  1  0.27719230  0.17945216  0.91733652  1  0  0.309766  0  3.781155  0  0  0.295896  0  4.052523  0  0  0.308027  0  4.069131  0  0  0.202118  0.287623  0  4.041366  0
C  C40  1  0.66371474  0.54324032  0.10236183  1  0  0.291727  0  3.786523  0  0  0.27934  0  4.05611  0  0  0.290176  0  4.073834  0  0  0.192226  0.271968  0  4.044022  0
C  C41  1  0.33628350  0.45676482  0.89763496  1  0  0.291529  0  3.786454  0  0  0.279125  0  4.056023  0  0  0.289964  0  4.073746  0  0  0.192168  0.271757  0  4.04394  0
C  C42  1  0.70536903  0.56762305  0.25858637  1  0  0.294645  0  3.806776  0  0  0.276926  0  4.086691  0  0  0.289077  0  4.104666  0  0  0.189008  0.268743  0  4.074427  0
C  C43  1  0.29462283  0.43238500  0.74140921  1  0  0.294605  0  3.806958  0  0  0.276889  0  4.086881  0  0  0.28904  0  4.104848  0  0  0.189054  0.268699  0  4.074613  0
C  C44  1  0.80943477  0.85507906  0.33794045  1  0  0.259403  0  3.810443  0  0  0.242282  0  4.089993  0  0  0.2535  0  4.108813  0  0  0.17855  0.234635  0  4.077272  0
C  C45  1  0.19056071  0.14492222  0.66205727  1  0  0.259417  0  3.810737  0  0  0.242275  0  4.090272  0  0  0.253492  0  4.109093  0  0  0.178566  0.234627  0  4.077555  0
C  C46  1  0.80577916  0.01310175  0.23237715  1  0  0.293645  0  3.792697  0  0  0.278522  0  4.06719  0  0  0.290816  0  4.084106  0  0  0.19248  0.270217  0  4.055668  0
C  C47  1  0.19423140  0.98690531  0.76762316  1  0  0.293665  0  3.792668  0  0  0.278534  0  4.067149  0  0  0.290829  0  4.084067  0  0  0.192517  0.270228  0  4.055632  0
C  C48  1  0.72817756  0.78837770  0.14684447  1  0  -0.035384  0  3.84682  0  0  -0.031802  0  4.089491  0  0  -0.034232  0  4.110377  0  0  0.006673  -0.030174  0  4.075444  0
C  C49  1  0.27182161  0.21163034  0.85315325  1  0  -0.035372  0  3.846796  0  0  -0.031911  0  4.089568  0  0  -0.034341  0  4.110453  0  0  0.006557  -0.030275  0  4.075519  0
C  C50  1  0.70002653  0.66115480  0.15511207  1  0  -0.039504  0  3.849744  0  0  -0.035545  0  4.093548  0  0  -0.037721  0  4.114581  0  0  0.002788  -0.034056  0  4.079407  0
C  C51  1  0.29996320  0.33885132  0.84488472  1  0  -0.039525  0  3.849683  0  0  -0.035466  0  4.093435  0  0  -0.037655  0  4.114492  0  0  0.002763  -0.033993  0  4.079305  0
C  C52  1  0.72415086  0.67128659  0.22816635  1  0  -0.065922  0  3.893134  0  0  -0.064913  0  4.14767  0  0  -0.069285  0  4.170955  0  0  -0.008346  -0.061928  0  4.131903  0
C  C53  1  0.27583446  0.32871954  0.77183036  1  0  -0.065821  0  3.89296  0  0  -0.064859  0  4.147481  0  0  -0.069227  0  4.170762  0  0  -0.008329  -0.061855  0  4.131699  0
C  C54  1  0.76875437  0.80450513  0.26493529  1  0  -0.050469  0  3.900286  0  0  -0.049115  0  4.153412  0  0  -0.05234  0  4.176402  0  0  -0.005131  -0.046729  0  4.137775  0
C  C55  1  0.23123964  0.19549615  0.73506190  1  0  -0.050637  0  3.900312  0  0  -0.049221  0  4.153359  0  0  -0.052445  0  4.176349  0  0  -0.005159  -0.046836  0  4.137721  0
C  C56  1  0.77028496  0.87718800  0.21482947  1  0  -0.049246  0  3.849794  0  0  -0.04543  0  4.095361  0  0  -0.048963  0  4.117457  0  0  -0.000812  -0.042866  0  4.08018  0
C  C57  1  0.22971712  0.12282004  0.78516981  1  0  -0.04933  0  3.849855  0  0  -0.045484  0  4.095415  0  0  -0.049016  0  4.11751  0  0  -0.000856  -0.042924  0  4.080236  0
C  C58  1  0.85412955  0.81482917  0.53946754  1  0  -0.306027  0  3.518285  0  0  -0.408458  0  3.766769  0  0  -0.408634  0  3.76783  0  0  -0.138039  -0.408125  0  3.765906  0
C  C59  1  0.14587345  0.18516823  0.46053177  1  0  -0.306052  0  3.518316  0  0  -0.408476  0  3.766771  0  0  -0.408648  0  3.76783  0  0  -0.138052  -0.408144  0  3.765909  0
N  N60  1  0.20845823  0.77588174  0.11784915  1  0  -0.414061  0  2.60673  0  0  -0.391463  0  2.841386  0  0  -0.401996  0  2.853863  0  0  -0.373955  -0.38435  0  2.833235  0
N  N61  1  0.79153822  0.22411373  0.88215231  1  0  -0.414108  0  2.606761  0  0  -0.391515  0  2.841426  0  0  -0.402047  0  2.8539  0  0  -0.373956  -0.384402  0  2.833277  0
N  N62  1  0.10213046  0.39373725  0.14840859  1  0  -0.424107  0  2.596  0  0  -0.396618  0  2.819433  0  0  -0.407393  0  2.830771  0  0  -0.373808  -0.389331  0  2.812008  0
N  N63  1  0.89788491  0.60626206  0.85159172  1  0  -0.424119  0  2.595733  0  0  -0.396622  0  2.819156  0  0  -0.407403  0  2.830504  0  0  -0.373753  -0.389341  0  2.811731  0
N  N64  1  0.20798963  0.42366165  0.37519724  1  0  -0.433656  0  2.578757  0  0  -0.408458  0  2.803801  0  0  -0.419778  0  2.815085  0  0  -0.332963  -0.40065  0  2.795969  0
N  N65  1  0.79202413  0.57633284  0.62480488  1  0  -0.433782  0  2.579025  0  0  -0.40858  0  2.804085  0  0  -0.419898  0  2.815366  0  0  -0.333023  -0.400772  0  2.796249  0
N  N66  1  0.36286496  0.85055561  0.48982975  1  0  -0.413564  0  2.601633  0  0  -0.391076  0  2.837004  0  0  -0.401964  0  2.847728  0  0  -0.351781  -0.38365  0  2.829817  0
N  N67  1  0.63714190  0.14944468  0.51017155  1  0  -0.413613  0  2.601831  0  0  -0.391132  0  2.837213  0  0  -0.402019  0  2.847932  0  0  -0.351779  -0.383714  0  2.83003  0
N  N68  1  0.37314472  0.06648979  0.32369310  1  0  -0.435217  0  2.605724  0  0  -0.403989  0  2.836242  0  0  -0.416769  0  2.848984  0  0  -0.366135  -0.395181  0  2.827359  0
N  N69  1  0.62684290  0.93350570  0.67630870  1  0  -0.435124  0  2.605927  0  0  -0.403885  0  2.83643  0  0  -0.416663  0  2.849171  0  0  -0.366043  -0.395076  0  2.827547  0
N  N70  1  0.31194339  0.09720583  0.13275285  1  0  0.577282  0  3.893015  0  0  0.652944  0  4.127811  0  0  0.673632  0  4.136111  0  0  0.034216  0.639069  0  4.122059  0
N  N71  1  0.68805728  0.90279351  0.86724771  1  0  0.577292  0  3.893111  0  0  0.652917  0  4.127932  0  0  0.673601  0  4.136235  0  0  0.034174  0.639039  0  4.122187  0
N  N72  1  0.72140834  0.84762782  0.02932083  1  0  -0.443452  0  2.596623  0  0  -0.420386  0  2.826899  0  0  -0.430925  0  2.837561  0  0  -0.365098  -0.413135  0  2.819845  0
N  N73  1  0.27859132  0.15237732  0.97067800  1  0  -0.443377  0  2.596391  0  0  -0.42031  0  2.826657  0  0  -0.430848  0  2.837321  0  0  -0.365061  -0.413059  0  2.819602  0
N  N74  1  0.63760346  0.44220364  0.06130002  1  0  -0.41048  0  2.562062  0  0  -0.388211  0  2.776963  0  0  -0.398563  0  2.78925  0  0  -0.347241  -0.381054  0  2.768697  0
N  N75  1  0.36240936  0.55780148  0.93870257  1  0  -0.410367  0  2.561917  0  0  -0.388096  0  2.776827  0  0  -0.398447  0  2.789111  0  0  -0.347217  -0.380945  0  2.768565  0
N  N76  1  0.68825124  0.48110268  0.28384430  1  0  -0.434643  0  2.591112  0  0  -0.405694  0  2.822279  0  0  -0.417184  0  2.833824  0  0  -0.373816  -0.397738  0  2.814321  0
N  N77  1  0.31175135  0.51890246  0.71615509  1  0  -0.434545  0  2.591456  0  0  -0.405594  0  2.822633  0  0  -0.417083  0  2.834172  0  0  -0.373822  -0.397637  0  2.814676  0
N  N78  1  0.84646683  0.89653791  0.39864170  1  0  -0.367425  0  2.559064  0  0  -0.335581  0  2.775825  0  0  -0.346707  0  2.789447  0  0  -0.284935  -0.328006  0  2.7666  0
N  N79  1  0.15353271  0.10346240  0.60135796  1  0  -0.367325  0  2.559277  0  0  -0.335484  0  2.77603  0  0  -0.34661  0  2.789655  0  0  -0.284903  -0.327909  0  2.766808  0
N  N80  1  0.83374315  0.12608884  0.25037975  1  0  -0.424366  0  2.56457  0  0  -0.400982  0  2.78586  0  0  -0.411399  0  2.796106  0  0  -0.325297  -0.393939  0  2.779015  0
N  N81  1  0.16626890  0.87391822  0.74961957  1  0  -0.424314  0  2.564477  0  0  -0.400919  0  2.785769  0  0  -0.411337  0  2.796017  0  0  -0.325272  -0.393874  0  2.778925  0
N  N82  1  0.80533051  0.68104373  0.49280583  1  0  0.613329  0  3.84394  0  0  0.645011  0  4.151206  0  0  0.665719  0  4.159305  0  0  0.025655  0.631108  0  4.14565  0
N  N83  1  0.19467071  0.31895270  0.50719332  1  0  0.613376  0  3.843999  0  0  0.645063  0  4.151262  0  0  0.665772  0  4.159361  0  0  0.025609  0.631151  0  4.145711  0
O  O84  1  0.44747650  0.05085359  0.10231233  1  0  -0.40754  0  1.805055  0  0  -0.408274  0  2.010494  0  0  -0.424499  0  2.009062  0  0  -0.211408  -0.397162  0  2.011484  0
O  O85  1  0.55252451  0.94914672  0.89768736  1  0  -0.407509  0  1.805111  0  0  -0.408237  0  2.010584  0  0  -0.424469  0  2.00916  0  0  -0.211361  -0.397111  0  2.011539  0
O  O86  1  0.13093484  0.05714275  0.11282117  1  0  -0.386713  0  1.793117  0  0  -0.390519  0  1.996616  0  0  -0.406  0  1.995541  0  0  -0.175117  -0.379977  0  1.997343  0
O  O87  1  0.86906583  0.94285659  0.88717989  1  0  -0.386725  0  1.793149  0  0  -0.390529  0  1.996686  0  0  -0.406013  0  1.995614  0  0  -0.175092  -0.379985  0  1.997406  0
O  O88  1  0.62605307  0.62723274  0.47662554  1  0  -0.404131  0  1.757209  0  0  -0.390763  0  1.976883  0  0  -0.405997  0  1.975847  0  0  -0.174172  -0.38057  0  1.977708  0
O  O89  1  0.37394698  0.37276466  0.52337423  1  0  -0.404156  0  1.757205  0  0  -0.390783  0  1.97686  0  0  -0.406016  0  1.975823  0  0  -0.174146  -0.380584  0  1.977685  0
O  O90  1  0.94624757  0.62707630  0.47370573  1  0  -0.420524  0  1.76865  0  0  -0.406383  0  1.991619  0  0  -0.422263  0  1.990717  0  0  -0.193574  -0.395716  0  1.992434  0
O  O91  1  0.05375331  0.37291917  0.52629428  1  0  -0.420512  0  1.76871  0  0  -0.406374  0  1.991677  0  0  -0.422254  0  1.990776  0  0  -0.193526  -0.395699  0  1.992488  0
