# generated using pymatgen
data_H12PbC16S(NO2)2
_symmetry_space_group_name_H-M   'P 1'
_cell_length_a   8.22961743
_cell_length_b   8.79795466
_cell_length_c   10.89039610
_cell_angle_alpha   75.78636905
_cell_angle_beta   80.13438982
_cell_angle_gamma   77.74088684
_symmetry_Int_Tables_number   1
_chemical_formula_structural   H12PbC16S(NO2)2
_chemical_formula_sum   'H24 Pb2 C32 S2 N4 O8'
_cell_volume   741.00056073
_cell_formula_units_Z   2
loop_
 _symmetry_equiv_pos_site_id
 _symmetry_equiv_pos_as_xyz
  1  'x, y, z'
loop_
 _atom_site_type_symbol
 _atom_site_label
 _atom_site_symmetry_multiplicity
 _atom_site_fract_x
 _atom_site_fract_y
 _atom_site_fract_z
 _atom_site_occupancy
 _atom_site_hle17_bader_spin_density
 _atom_site_hle17_ddec_charge
 _atom_site_hle17_ddec_spin_density
 _atom_site_hle17_ddec_sum_bond_order
 _atom_site_hle17_magmom
 _atom_site_hse06_10hf_bader_spin_density
 _atom_site_hse06_10hf_ddec_charge
 _atom_site_hse06_10hf_ddec_spin_density
 _atom_site_hse06_10hf_ddec_sum_bond_order
 _atom_site_hse06_10hf_magmom
 _atom_site_hse06_bader_spin_density
 _atom_site_hse06_ddec_charge
 _atom_site_hse06_ddec_spin_density
 _atom_site_hse06_ddec_sum_bond_order
 _atom_site_hse06_magmom
 _atom_site_pbe_bader_spin_density
 _atom_site_pbe_cm5_charge
 _atom_site_pbe_ddec_charge
 _atom_site_pbe_ddec_spin_density
 _atom_site_pbe_ddec_sum_bond_order
 _atom_site_pbe_magmom
H  H0  1  0.58409085  0.69706471  0.35387809  1  0  0.121566  0  0.944127  0  0  0.135501  0  1.006675  0  0  0.137911  0  1.005439  0  0  0.104485  0.13392  0  1.007434  0
H  H1  1  0.41591133  0.30293593  0.64611954  1  0  0.121568  0  0.944118  0  0  0.135482  0  1.006666  0  0  0.13789  0  1.005438  0  0  0.104499  0.133903  0  1.007426  0
H  H2  1  0.50033617  0.71517330  0.51144814  1  0  0.131411  0  0.931246  0  0  0.142987  0  0.990672  0  0  0.145677  0  0.989536  0  0  0.101288  0.140937  0  0.991903  0
H  H3  1  0.49966410  0.28483091  0.48855087  1  0  0.131384  0  0.931206  0  0  0.142964  0  0.99061  0  0  0.145667  0  0.989458  0  0  0.101291  0.140917  0  0.991842  0
H  H4  1  0.15101728  0.94256977  0.47553808  1  0  0.122493  0  0.934598  0  0  0.136897  0  0.994831  0  0  0.139627  0  0.993246  0  0  0.10168  0.134892  0  0.996298  0
H  H5  1  0.84897772  0.05742967  0.52446254  1  0  0.122531  0  0.934593  0  0  0.136902  0  0.994867  0  0  0.139628  0  0.993287  0  0  0.101681  0.134898  0  0.996334  0
H  H6  1  0.30477145  0.95197423  0.56968228  1  0  0.104097  0  0.979636  0  0  0.112753  0  1.052372  0  0  0.115219  0  1.051548  0  0  0.093395  0.111187  0  1.052817  0
H  H7  1  0.69522994  0.04802403  0.43031592  1  0  0.104071  0  0.979647  0  0  0.11275  0  1.05237  0  0  0.115215  0  1.051546  0  0  0.093411  0.111184  0  1.052815  0
H  H8  1  0.76307139  0.88052551  0.26825602  1  0  0.074476  0  0.978794  0  0  0.079734  0  1.05086  0  0  0.082115  0  1.048517  0  0  0.110137  0.078014  0  1.052486  0
H  H9  1  0.23693079  0.11947512  0.73174529  1  0  0.074469  0  0.978785  0  0  0.07971  0  1.050872  0  0  0.082095  0  1.048524  0  0  0.110121  0.077992  0  1.052498  0
H  H10  1  0.61649909  0.07804138  0.09705696  1  0  0.100525  0  0.956023  0  0  0.110755  0  1.017481  0  0  0.113478  0  1.017425  0  0  0.103031  0.108776  0  1.017697  0
H  H11  1  0.38350331  0.92195806  0.90294363  1  0  0.100529  0  0.956033  0  0  0.110785  0  1.017459  0  0  0.113507  0  1.017406  0  0  0.103043  0.108807  0  1.017676  0
H  H12  1  0.73046692  0.07435719  0.86547585  1  0  0.104529  0  0.973824  0  0  0.105365  0  1.053046  0  0  0.109605  0  1.048868  0  0  0.102511  0.1023  0  1.055941  0
H  H13  1  0.26953470  0.92563987  0.13452623  1  0  0.104595  0  0.973731  0  0  0.105361  0  1.052998  0  0  0.109596  0  1.048816  0  0  0.102516  0.102301  0  1.055887  0
H  H14  1  0.94171264  0.95168405  0.71198455  1  0  0.111302  0  0.951204  0  0  0.121377  0  1.01354  0  0  0.123995  0  1.01235  0  0  0.108528  0.11935  0  1.014681  0
H  H15  1  0.05828393  0.04832016  0.28801493  1  0  0.111278  0  0.951279  0  0  0.121347  0  1.013621  0  0  0.123966  0  1.01243  0  0  0.10852  0.119321  0  1.014762  0
H  H16  1  0.17950005  0.73362818  0.66848399  1  0  0.108831  0  0.9768  0  0  0.118282  0  1.039855  0  0  0.121154  0  1.039345  0  0  0.106618  0.115942  0  1.040548  0
H  H17  1  0.82049945  0.26637366  0.33151282  1  0  0.108817  0  0.976849  0  0  0.118273  0  1.039897  0  0  0.121146  0  1.039385  0  0  0.106617  0.115934  0  1.040585  0
H  H18  1  0.38632172  0.49873150  0.74854747  1  0  0.11142  0  0.941337  0  0  0.122096  0  1.001665  0  0  0.125132  0  0.99914  0  0  0.114206  0.119752  0  1.003653  0
H  H19  1  0.61368293  0.50126914  0.25145076  1  0  0.111352  0  0.941328  0  0  0.122026  0  1.001675  0  0  0.125061  0  0.99915  0  0  0.114172  0.11968  0  1.003664  0
H  H20  1  0.49251981  0.29229543  0.93309070  1  0  0.111351  0  0.945311  0  0  0.123001  0  1.003221  0  0  0.126047  0  1.0026  0  0  0.108923  0.120898  0  1.003721  0
H  H21  1  0.50748012  0.70770401  0.06691021  1  0  0.111311  0  0.945363  0  0  0.122997  0  1.003226  0  0  0.126042  0  1.002608  0  0  0.108934  0.120894  0  1.003725  0
H  H22  1  0.35250650  0.31057820  0.15696775  1  0  0.090152  0  0.951661  0  0  0.094927  0  1.021612  0  0  0.098397  0  1.017761  0  0  0.11526  0.092412  0  1.024369  0
H  H23  1  0.64749097  0.68942124  0.84303255  1  0  0.09015  0  0.951689  0  0  0.094928  0  1.021643  0  0  0.098405  0  1.017773  0  0  0.115277  0.092412  0  1.024402  0
Pb  Pb24  1  0.05968040  0.53782004  0.33105605  1  0  1.192973  0  1.579671  0  0  1.000726  0  1.988963  0  0  1.05859  0  1.950044  0  0  0.600319  0.956883  0  2.020236  0
Pb  Pb25  1  0.94032402  0.46218179  0.66894381  1  0  1.192942  0  1.579702  0  0  1.000678  0  1.988992  0  0  1.058544  0  1.950072  0  0  0.60027  0.956842  0  2.02026  0
C  C26  1  0.33046787  0.65686268  0.40541885  1  0  0.70086  0  3.851061  0  0  0.654675  0  4.143866  0  0  0.688917  0  4.137392  0  0  0.204392  0.631357  0  4.147279  0
C  C27  1  0.66952534  0.34313320  0.59457810  1  0  0.70071  0  3.85102  0  0  0.654442  0  4.143924  0  0  0.688684  0  4.137456  0  0  0.204286  0.631127  0  4.147334  0
C  C28  1  0.47062222  0.74125725  0.41323887  1  0  -0.308193  0  3.639403  0  0  -0.342053  0  3.896442  0  0  -0.347069  0  3.901331  0  0  -0.158761  -0.338859  0  3.893396  0
C  C29  1  0.52937682  0.25874696  0.58676029  1  0  -0.308087  0  3.639367  0  0  -0.341906  0  3.896423  0  0  -0.346936  0  3.901311  0  0  -0.158747  -0.338726  0  3.893398  0
C  C30  1  0.25754538  0.99962065  0.47679095  1  0  -0.313924  0  3.6597  0  0  -0.348306  0  3.918609  0  0  -0.353253  0  3.92328  0  0  -0.162701  -0.34517  0  3.915494  0
C  C31  1  0.74245086  0.00037880  0.52320859  1  0  -0.313955  0  3.659663  0  0  -0.348351  0  3.918676  0  0  -0.35329  0  3.923335  0  0  -0.162713  -0.345216  0  3.915562  0
C  C32  1  0.19639827  0.17831095  0.46346664  1  0  0.701852  0  3.893594  0  0  0.654221  0  4.193006  0  0  0.688189  0  4.186823  0  0  0.204407  0.63113  0  4.196071  0
C  C33  1  0.80360639  0.82168970  0.53652516  1  0  0.701852  0  3.893362  0  0  0.654161  0  4.19288  0  0  0.688125  0  4.186694  0  0  0.204311  0.631072  0  4.195944  0
C  C34  1  0.80212860  0.87686276  0.16793901  1  0  0.138162  0  3.721505  0  0  0.106836  0  3.978476  0  0  0.115215  0  3.995739  0  0  0.053429  0.101397  0  3.966506  0
C  C35  1  0.19787380  0.12313669  0.83206158  1  0  0.13828  0  3.72137  0  0  0.106949  0  3.978376  0  0  0.115327  0  3.995638  0  0  0.053491  0.101507  0  3.966412  0
C  C36  1  0.72271586  0.98961919  0.07077165  1  0  -0.124734  0  3.742158  0  0  -0.138985  0  3.998166  0  0  -0.146312  0  4.019911  0  0  -0.088199  -0.134372  0  3.9837  0
C  C37  1  0.27728306  0.01037906  0.92923146  1  0  -0.12474  0  3.742147  0  0  -0.138996  0  3.998114  0  0  -0.146324  0  4.019859  0  0  -0.088187  -0.134384  0  3.983651  0
C  C38  1  0.78443732  0.98709650  0.94486108  1  0  -0.041499  0  3.664878  0  0  -0.067356  0  3.917529  0  0  -0.064387  0  3.933931  0  0  -0.062613  -0.069076  0  3.906367  0
C  C39  1  0.21555812  0.01290056  0.05514087  1  0  -0.041599  0  3.664936  0  0  -0.067399  0  3.917692  0  0  -0.064416  0  3.934081  0  0  -0.062631  -0.069119  0  3.906527  0
C  C40  1  0.92233648  0.86835201  0.91733403  1  0  0.024  0  3.777826  0  0  0.042758  0  4.004176  0  0  0.039697  0  4.028627  0  0  -0.000106  0.044589  0  3.987845  0
C  C41  1  0.07766627  0.13165221  0.08266374  1  0  0.024046  0  3.777825  0  0  0.042763  0  4.004216  0  0  0.039703  0  4.028667  0  0  -0.000137  0.044594  0  3.987885  0
C  C42  1  0.99404918  0.86039661  0.78935922  1  0  -0.076512  0  3.712899  0  0  -0.101619  0  3.967636  0  0  -0.103821  0  3.990774  0  0  -0.077497  -0.100061  0  3.951913  0
C  C43  1  0.00595198  0.13960283  0.21064245  1  0  -0.076513  0  3.712575  0  0  -0.101603  0  3.967326  0  0  -0.103806  0  3.99046  0  0  -0.077497  -0.100046  0  3.951604  0
C  C44  1  0.12546517  0.74284586  0.76565441  1  0  -0.126521  0  3.754444  0  0  -0.143576  0  4.003411  0  0  -0.148841  0  4.028052  0  0  -0.086085  -0.139544  0  3.986418  0
C  C45  1  0.87453219  0.25716073  0.23434451  1  0  -0.126549  0  3.754356  0  0  -0.143615  0  4.003322  0  0  -0.148878  0  4.027961  0  0  -0.086096  -0.139581  0  3.986326  0
C  C46  1  0.19506197  0.62509972  0.86826892  1  0  0.02029  0  3.801457  0  0  0.037053  0  4.032738  0  0  0.034471  0  4.057598  0  0  -0.002678  0.038707  0  4.015658  0
C  C47  1  0.80493348  0.37489734  0.13172844  1  0  0.020211  0  3.801677  0  0  0.036995  0  4.032911  0  0  0.034411  0  4.057771  0  0  -0.002716  0.038652  0  4.01583  0
C  C48  1  0.33035102  0.50187806  0.84635114  1  0  -0.042591  0  3.668187  0  0  -0.066908  0  3.918499  0  0  -0.064436  0  3.935437  0  0  -0.059749  -0.068142  0  3.90679  0
C  C49  1  0.66964971  0.49812377  0.15364736  1  0  -0.042536  0  3.668238  0  0  -0.06686  0  3.918565  0  0  -0.064387  0  3.935503  0  0  -0.059739  -0.068095  0  3.906853  0
C  C50  1  0.12764842  0.62882076  0.99711909  1  0  0.129645  0  3.73809  0  0  0.120122  0  3.980881  0  0  0.125028  0  4.002076  0  0  0.118339  0.116983  0  3.966268  0
C  C51  1  0.87235230  0.37118107  0.00288124  1  0  0.129753  0  3.7382  0  0  0.120255  0  3.98095  0  0  0.125166  0  4.002143  0  0  0.118385  0.117113  0  3.96634  0
C  C52  1  0.38874148  0.38816971  0.94864968  1  0  -0.112654  0  3.73432  0  0  -0.129849  0  3.995075  0  0  -0.136264  0  4.016202  0  0  -0.084642  -0.12576  0  3.980709  0
C  C53  1  0.61126047  0.61183212  0.05134958  1  0  -0.112569  0  3.73439  0  0  -0.129772  0  3.99513  0  0  -0.136187  0  4.016258  0  0  -0.084604  -0.125682  0  3.980763  0
C  C54  1  0.31248014  0.39877275  0.07294688  1  0  0.133805  0  3.697389  0  0  0.101535  0  3.956939  0  0  0.109866  0  3.973625  0  0  0.055792  0.096284  0  3.945121  0
C  C55  1  0.68751935  0.60122908  0.92705178  1  0  0.133798  0  3.697364  0  0  0.101503  0  3.956966  0  0  0.109837  0  3.973652  0  0  0.055748  0.096252  0  3.945149  0
C  C56  1  0.99031016  0.75506923  0.02194902  1  0  0.12803  0  3.762301  0  0  0.122283  0  3.999128  0  0  0.127146  0  4.021079  0  0  0.118971  0.119041  0  3.984174  0
C  C57  1  0.00968754  0.24492902  0.97805057  1  0  0.127959  0  3.762467  0  0  0.122199  0  3.999319  0  0  0.127051  0  4.021286  0  0  0.118989  0.118959  0  3.984364  0
S  S58  1  0.42415751  0.95490001  0.35257778  1  0  0.013314  0  2.400926  0  0  0.018954  0  2.760573  0  0  0.018215  0  2.75692  0  0  -0.018445  0.019792  0  2.762871  0
S  S59  1  0.57584221  0.04510063  0.64742016  1  0  0.013292  0  2.400846  0  0  0.018926  0  2.760495  0  0  0.018186  0  2.756845  0  0  -0.018443  0.019767  0  2.762801  0
N  N60  1  0.93050443  0.76296523  0.14456988  1  0  -0.360962  0  3.214556  0  0  -0.294524  0  3.467023  0  0  -0.313808  0  3.488394  0  0  -0.297982  -0.280994  0  3.452095  0
N  N61  1  0.06949954  0.23703898  0.85542865  1  0  -0.361004  0  3.214704  0  0  -0.294548  0  3.467161  0  0  -0.313829  0  3.488535  0  0  -0.298027  -0.281019  0  3.452238  0
N  N62  1  0.18734907  0.51592338  0.09653147  1  0  -0.342054  0  3.186734  0  0  -0.274222  0  3.440598  0  0  -0.293025  0  3.461437  0  0  -0.28954  -0.261008  0  3.425919  0
N  N63  1  0.81264863  0.48407487  0.90346811  1  0  -0.342046  0  3.186683  0  0  -0.27423  0  3.440556  0  0  -0.293038  0  3.461404  0  0  -0.289534  -0.261017  0  3.425881  0
O  O64  1  0.28940079  0.67232474  0.29309736  1  0  -0.635258  0  1.944736  0  0  -0.558964  0  2.177668  0  0  -0.588603  0  2.170029  0  0  -0.305063  -0.537724  0  2.182009  0
O  O65  1  0.71059936  0.32767350  0.70690926  1  0  -0.635317  0  1.944393  0  0  -0.558919  0  2.177255  0  0  -0.58856  0  2.169625  0  0  -0.305029  -0.537676  0  2.181593  0
O  O66  1  0.26177050  0.57756539  0.50603469  1  0  -0.664264  0  1.948723  0  0  -0.602879  0  2.182111  0  0  -0.63189  0  2.177818  0  0  -0.305853  -0.582026  0  2.184437  0
O  O67  1  0.73823211  0.42243285  0.49396978  1  0  -0.664117  0  1.948713  0  0  -0.602742  0  2.182167  0  0  -0.631753  0  2.177877  0  0  -0.305804  -0.58189  0  2.184486  0
O  O68  1  0.26085932  0.27185973  0.36726859  1  0  -0.649132  0  1.973946  0  0  -0.580259  0  2.208113  0  0  -0.609075  0  2.20067  0  0  -0.309221  -0.559769  0  2.21249  0
O  O69  1  0.73913513  0.72813615  0.63273005  1  0  -0.649152  0  1.973573  0  0  -0.580267  0  2.207786  0  0  -0.609087  0  2.200341  0  0  -0.309206  -0.559777  0  2.212161  0
O  O70  1  0.08353506  0.21878661  0.55031293  1  0  -0.676783  0  1.963914  0  0  -0.613322  0  2.202578  0  0  -0.642885  0  2.196668  0  0  -0.316549  -0.592022  0  2.205735  0
O  O71  1  0.91646295  0.78121638  0.44969487  1  0  -0.676716  0  1.964146  0  0  -0.613208  0  2.202813  0  0  -0.64278  0  2.196927  0  0  -0.316478  -0.591912  0  2.20597  0
