# generated using pymatgen
data_CdH7C11O5
_symmetry_space_group_name_H-M   'P 1'
_cell_length_a   14.39228689
_cell_length_b   14.66919059
_cell_length_c   14.66451761
_cell_angle_alpha   76.07871840
_cell_angle_beta   60.61802053
_cell_angle_gamma   60.61578332
_symmetry_Int_Tables_number   1
_chemical_formula_structural   CdH7C11O5
_chemical_formula_sum   'Cd8 H56 C88 O40'
_cell_volume   2350.70192270
_cell_formula_units_Z   8
loop_
 _symmetry_equiv_pos_site_id
 _symmetry_equiv_pos_as_xyz
  1  'x, y, z'
loop_
 _atom_site_type_symbol
 _atom_site_label
 _atom_site_symmetry_multiplicity
 _atom_site_fract_x
 _atom_site_fract_y
 _atom_site_fract_z
 _atom_site_occupancy
 _atom_site_pbe_bader_charge
 _atom_site_pbe_bader_spin_density
 _atom_site_pbe_cm5_charge
 _atom_site_pbe_ddec_charge
 _atom_site_pbe_ddec_spin_density
 _atom_site_pbe_ddec_sum_bond_order
 _atom_site_pbe_magmom
Cd  Cd0  1  0.53445262  0.81286527  0.22244502  1  1.349454  0  0.785122  1.066699  0  2.073326  0
Cd  Cd1  1  0.06999823  0.68719622  0.27728213  1  1.349747  0  0.784808  1.065951  0  2.073476  0
Cd  Cd2  1  0.75703549  0.77747943  0.31280562  1  1.350183  0  0.784372  1.064658  0  2.075313  0
Cd  Cd3  1  0.34730385  0.72249029  0.18714403  1  1.349505  0  0.784654  1.065429  0  2.074804  0
Cd  Cd4  1  0.46554702  0.18713197  0.77755562  1  1.349416  0  0.785125  1.066721  0  2.073321  0
Cd  Cd5  1  0.93000046  0.31280181  0.72271667  1  1.349692  0  0.78482  1.065971  0  2.073441  0
Cd  Cd6  1  0.24296529  0.22251938  0.68719548  1  1.350175  0  0.784373  1.064674  0  2.075341  0
Cd  Cd7  1  0.65269567  0.27750773  0.81285555  1  1.34957  0  0.784652  1.065435  0  2.074824  0
H  H8  1  0.69447865  0.91051062  0.12000605  1  0.654598  0  0.295593  0.401458  0  0.930695  0
H  H9  1  0.22478133  0.58980151  0.38017677  1  0.661968  0  0.295511  0.400623  0  0.931618  0
H  H10  1  0.81468535  0.88000543  0.41022541  1  0.651657  0  0.295221  0.40143  0  0.931037  0
H  H11  1  0.60498337  0.61985579  0.08954375  1  0.661493  0  0.295579  0.401451  0  0.930669  0
H  H12  1  0.30551971  0.08949053  0.87999391  1  0.654592  0  0.295629  0.401496  0  0.930649  0
H  H13  1  0.77521891  0.41019808  0.61982288  1  0.661962  0  0.295501  0.400612  0  0.931632  0
H  H14  1  0.18531411  0.11999573  0.58977425  1  0.651653  0  0.29522  0.401439  0  0.931022  0
H  H15  1  0.39501702  0.38014380  0.91045735  1  0.661496  0  0.295586  0.401433  0  0.930696  0
H  H16  1  0.56773753  0.98505606  0.12372235  1  0.624442  0  0.325988  0.413073  0  0.86072  0
H  H17  1  0.17628108  0.51526924  0.37649083  1  0.624666  0  0.3257  0.412941  0  0.861328  0
H  H18  1  0.69156554  0.87648917  0.48482496  1  0.629705  0  0.325765  0.412803  0  0.861233  0
H  H19  1  0.55281216  0.62361444  0.01494934  1  0.621509  0  0.325448  0.412559  0  0.861656  0
H  H20  1  0.43226203  0.01494353  0.87627798  1  0.624441  0  0.326003  0.413081  0  0.860706  0
H  H21  1  0.82371877  0.48473113  0.62350882  1  0.62466  0  0.325713  0.412956  0  0.86132  0
H  H22  1  0.30843431  0.12351120  0.51517470  1  0.629699  0  0.325763  0.412806  0  0.861204  0
H  H23  1  0.44718647  0.37638594  0.98505313  1  0.621448  0  0.325441  0.412525  0  0.861678  0
H  H24  1  0.24375993  0.91039028  0.08279859  1  0.098646  0  0.099916  0.106665  0  1.047058  0
H  H25  1  0.73711290  0.58998113  0.41710975  1  0.116859  0  0.100029  0.107205  0  1.047543  0
H  H26  1  0.32700294  0.91711679  0.41000747  1  0.086409  0  0.099937  0.106633  0  1.047901  0
H  H27  1  0.15396938  0.58301077  0.08981393  1  0.10081  0  0.099711  0.106453  0  1.048872  0
H  H28  1  0.75624073  0.08960931  0.91720144  1  0.098648  0  0.099938  0.106696  0  1.047029  0
H  H29  1  0.26288868  0.41001768  0.58288816  1  0.116837  0  0.10002  0.107195  0  1.047526  0
H  H30  1  0.67299530  0.08288515  0.58999142  1  0.086427  0  0.099934  0.10664  0  1.047875  0
H  H31  1  0.84603008  0.41699039  0.91018572  1  0.100787  0  0.099707  0.106449  0  1.048872  0
H  H32  1  0.99925934  0.22894707  0.06314883  1  0.051221  0  0.098258  0.096976  0  1.035928  0
H  H33  1  0.79106140  0.27153568  0.43714844  1  0.083803  0  0.098191  0.096059  0  1.035719  0
H  H34  1  0.06233580  0.93724120  0.72849192  1  0.071407  0  0.098494  0.096369  0  1.034827  0
H  H35  1  0.22833939  0.56247955  0.77126455  1  0.052851  0  0.09866  0.09681  0  1.033645  0
H  H36  1  0.00074224  0.77105096  0.93685266  1  0.05119  0  0.098246  0.096941  0  1.035907  0
H  H37  1  0.20893544  0.72846313  0.56285821  1  0.083736  0  0.098213  0.096065  0  1.035701  0
H  H38  1  0.93765986  0.06276152  0.27150757  1  0.071448  0  0.098512  0.096413  0  1.034859  0
H  H39  1  0.77166072  0.43752083  0.22873404  1  0.052862  0  0.098646  0.096764  0  1.033685  0
H  H40  1  0.08101153  0.29074264  0.13707281  1  0.069687  0  0.101252  0.10117  0  1.007834  0
H  H41  1  0.00855507  0.20942948  0.36339029  1  0.089625  0  0.101235  0.101147  0  1.006771  0
H  H42  1  0.21773386  0.86319789  0.79066130  1  0.068972  0  0.101095  0.100983  0  1.006545  0
H  H43  1  0.37202233  0.63628479  0.70917524  1  0.083472  0  0.101082  0.100833  0  1.007559  0
H  H44  1  0.91899441  0.70925539  0.86292351  1  0.069643  0  0.101248  0.10117  0  1.007842  0
H  H45  1  0.99144243  0.79056854  0.63661529  1  0.089708  0  0.101253  0.101205  0  1.006697  0
H  H46  1  0.78226153  0.13680484  0.20933926  1  0.068956  0  0.101079  0.101005  0  1.00649  0
H  H47  1  0.62797888  0.36371558  0.29082305  1  0.082995  0  0.101088  0.100817  0  1.007578  0
H  H48  1  0.23977365  0.16013025  0.19161985  1  0.086262  0  0.106744  0.109653  0  0.997  0
H  H49  1  0.09147222  0.33993589  0.30861633  1  0.122328  0  0.106642  0.108837  0  0.998185  0
H  H50  1  0.43123554  0.80831895  0.66013459  1  0.114471  0  0.1061  0.107906  0  0.997984  0
H  H51  1  0.40005210  0.69121893  0.83965422  1  0.10284  0  0.10561  0.10717  0  0.997813  0
H  H52  1  0.76023623  0.83986778  0.80837093  1  0.086001  0  0.106741  0.109609  0  0.997045  0
H  H53  1  0.90852645  0.66006058  0.69138567  1  0.122347  0  0.106652  0.108828  0  0.998185  0
H  H54  1  0.56875906  0.19168534  0.33986597  1  0.114799  0  0.106053  0.107823  0  0.998067  0
H  H55  1  0.59995018  0.30878066  0.16034339  1  0.102833  0  0.1056  0.107139  0  0.997875  0
H  H56  1  0.03822111  0.91906791  0.15414031  1  0.101148  0  0.103476  0.109377  0  1.035085  0
H  H57  1  0.61092468  0.58163296  0.34631961  1  0.086852  0  0.103475  0.109342  0  1.035064  0
H  H58  1  0.19250123  0.84616385  0.41854476  1  0.093683  0  0.103372  0.109418  0  1.035239  0
H  H59  1  0.95721659  0.65403286  0.08111375  1  0.092261  0  0.102904  0.108647  0  1.034933  0
H  H60  1  0.96177727  0.08093403  0.84586003  1  0.101225  0  0.103498  0.109427  0  1.035043  0
H  H61  1  0.38907680  0.41836664  0.65368119  1  0.086833  0  0.103463  0.109328  0  1.035103  0
H  H62  1  0.80750265  0.15383339  0.58145323  1  0.093608  0  0.103383  0.109426  0  1.035231  0
H  H63  1  0.04278450  0.34596752  0.91888706  1  0.092293  0  0.102857  0.108608  0  1.034956  0
C  C64  1  0.34552995  0.95174370  0.17348652  1  1.499212  0  0.205562  0.589006  0  4.171566  0
C  C65  1  0.97108750  0.54821353  0.32640371  1  1.552967  0  0.204613  0.586546  0  4.16963  0
C  C66  1  0.51915215  0.82636869  0.45180803  1  1.539324  0  0.203328  0.583826  0  4.17263  0
C  C67  1  0.29748550  0.67351290  0.04801678  1  1.518629  0  0.204606  0.586635  0  4.170497  0
C  C68  1  0.65447275  0.04825589  0.82651147  1  1.499596  0  0.205574  0.589006  0  4.171634  0
C  C69  1  0.02891543  0.45178371  0.67359603  1  1.552742  0  0.204618  0.586589  0  4.169597  0
C  C70  1  0.48084500  0.17363247  0.54819474  1  1.539202  0  0.203323  0.583863  0  4.172599  0
C  C71  1  0.70251291  0.32648982  0.95198394  1  1.518725  0  0.204647  0.586635  0  4.170487  0
C  C72  1  0.24928192  0.02775245  0.14283442  1  0.004263  0  -0.021072  -0.032982  0  3.993411  0
C  C73  1  0.91995023  0.47239197  0.35717800  1  0.045708  0  -0.021776  -0.034305  0  3.994343  0
C  C74  1  0.39218261  0.85708575  0.52764451  1  -0.023582  0  -0.021214  -0.03319  0  3.993772  0
C  C75  1  0.27707496  0.64273980  0.97219602  1  -0.008945  0  -0.021544  -0.035258  0  3.994437  0
C  C76  1  0.75072250  0.97224558  0.85716183  1  0.004271  0  -0.021102  -0.033016  0  3.993441  0
C  C77  1  0.08005160  0.52760528  0.64282204  1  0.045638  0  -0.021773  -0.034308  0  3.994347  0
C  C78  1  0.60781309  0.14291853  0.47235575  1  -0.023519  0  -0.021217  -0.03336  0  3.994075  0
C  C79  1  0.72292236  0.35726292  0.02780500  1  -0.009016  0  -0.021505  -0.035264  0  3.99445  0
C  C80  1  0.20590972  0.99337651  0.09760031  1  -0.041986  0  -0.083653  -0.135764  0  3.921487  0
C  C81  1  0.79694794  0.50694572  0.40237166  1  -0.127166  0  -0.082785  -0.135226  0  3.926313  0
C  C82  1  0.30378313  0.90235243  0.49305091  1  -0.041432  0  -0.083543  -0.135022  0  3.925481  0
C  C83  1  0.19921913  0.59760703  0.00677106  1  -0.05832  0  -0.08277  -0.134012  0  3.924974  0
C  C84  1  0.79409122  0.00662386  0.90239904  1  -0.041899  0  -0.083656  -0.135737  0  3.921444  0
C  C85  1  0.20305243  0.49305309  0.59762906  1  -0.127295  0  -0.082751  -0.135135  0  3.926342  0
C  C86  1  0.69621660  0.09764872  0.50694768  1  -0.041442  0  -0.083512  -0.134958  0  3.925532  0
C  C87  1  0.80077955  0.40239569  0.99322859  1  -0.058088  0  -0.082745  -0.134012  0  3.9249  0
C  C88  1  0.11600860  0.06528633  0.06836919  1  -0.011262  0  -0.009876  0.060515  0  4.01904  0
C  C89  1  0.74958032  0.43514732  0.43172430  1  0.009735  0  -0.011322  0.056743  0  4.023537  0
C  C90  1  0.18458765  0.93178416  0.56489448  1  -0.050608  0  -0.010347  0.058853  0  4.020668  0
C  C91  1  0.18131316  0.56817805  0.93492340  1  0.004143  0  -0.010658  0.059091  0  4.023288  0
C  C92  1  0.88399177  0.93471248  0.93163153  1  -0.011261  0  -0.009886  0.060385  0  4.019213  0
C  C93  1  0.25042020  0.56485149  0.56827787  1  0.009834  0  -0.011336  0.056667  0  4.023589  0
C  C94  1  0.81541059  0.06821778  0.43510441  1  -0.050576  0  -0.010358  0.058884  0  4.020606  0
C  C95  1  0.81868564  0.43182389  0.06507732  1  0.004171  0  -0.010696  0.059145  0  4.023203  0
C  C96  1  0.07157664  0.17263851  0.08311141  1  -0.036678  0  -0.08571  -0.118365  0  3.944584  0
C  C97  1  0.82715215  0.32774523  0.41710416  1  -0.103618  0  -0.083765  -0.112504  0  3.942967  0
C  C98  1  0.15471067  0.91711252  0.67231212  1  -0.009488  0  -0.085063  -0.1165  0  3.945078  0
C  C99  1  0.24430720  0.58265035  0.82749725  1  -0.030444  0  -0.084435  -0.115582  0  3.944733  0
C  C100  1  0.92842389  0.82736187  0.91688756  1  -0.03668  0  -0.085664  -0.118231  0  3.944588  0
C  C101  1  0.17284564  0.67225358  0.58290074  1  -0.103497  0  -0.083752  -0.112462  0  3.942981  0
C  C102  1  0.84528637  0.08289099  0.32768639  1  -0.009575  0  -0.085123  -0.116591  0  3.945219  0
C  C103  1  0.75569197  0.41735003  0.17250309  1  -0.030454  0  -0.084423  -0.115563  0  3.944718  0
C  C104  1  0.11640336  0.20725455  0.12598376  1  -0.013952  0  -0.086619  -0.068071  0  4.006458  0
C  C105  1  0.94945106  0.29296636  0.37428397  1  -0.00546  0  -0.089007  -0.07218  0  4.009001  0
C  C106  1  0.24222523  0.87415455  0.70710351  1  -0.010704  0  -0.088268  -0.069796  0  4.00853  0
C  C107  1  0.32378264  0.62546192  0.79272047  1  -0.064177  0  -0.088264  -0.070367  0  4.010253  0
C  C108  1  0.88360365  0.79274270  0.87401188  1  -0.014481  0  -0.08664  -0.068141  0  4.006533  0
C  C109  1  0.05054817  0.70703010  0.62571986  1  -0.005789  0  -0.089092  -0.072319  0  4.009258  0
C  C110  1  0.75777156  0.12584974  0.29289645  1  -0.010631  0  -0.088181  -0.069782  0  4.008479  0
C  C111  1  0.67621680  0.37453846  0.20727880  1  -0.063699  0  -0.088293  -0.070389  0  4.010298  0
C  C112  1  0.20416062  0.13507022  0.15695387  1  -0.026028  0  -0.078699  -0.084694  0  3.951121  0
C  C113  1  0.99612816  0.36503304  0.34323735  1  -0.079335  0  -0.077362  -0.081731  0  3.953318  0
C  C114  1  0.36101482  0.84303849  0.63501956  1  -0.061791  0  -0.077167  -0.081387  0  3.951056  0
C  C115  1  0.33931984  0.65661837  0.86481563  1  -0.0311  0  -0.077088  -0.080504  0  3.952289  0
C  C116  1  0.79584587  0.86492859  0.84304070  1  -0.025237  0  -0.078698  -0.084621  0  3.951167  0
C  C117  1  0.00387324  0.63496264  0.65676550  1  -0.079032  0  -0.077347  -0.08169  0  3.953468  0
C  C118  1  0.63898130  0.15696580  0.36498108  1  -0.062177  0  -0.077155  -0.081251  0  3.951157  0
C  C119  1  0.66067853  0.34338279  0.13518433  1  -0.03111  0  -0.077074  -0.080423  0  3.952407  0
C  C120  1  0.90542371  0.85703433  0.13590473  1  1.552782  0  0.216318  0.607439  0  4.172507  0
C  C121  1  0.39819738  0.64320464  0.36431543  1  1.550555  0  0.215995  0.605999  0  4.176674  0
C  C122  1  0.04126092  0.86414785  0.35693807  1  1.560657  0  0.216477  0.607591  0  4.17257  0
C  C123  1  0.76236659  0.63597399  0.14291351  1  1.536033  0  0.217524  0.609788  0  4.16958  0
C  C124  1  0.09457899  0.14296448  0.86409684  1  1.552763  0  0.216321  0.607453  0  4.172457  0
C  C125  1  0.60179900  0.35679260  0.63569007  1  1.550495  0  0.216114  0.606192  0  4.176558  0
C  C126  1  0.95873917  0.13585174  0.64306014  1  1.560638  0  0.216488  0.60754  0  4.17251  0
C  C127  1  0.23763492  0.36402638  0.85708767  1  1.536048  0  0.217586  0.609828  0  4.16951  0
C  C128  1  0.95960697  0.92527757  0.05924865  1  -0.035969  0  -0.00999  -0.066903  0  3.938204  0
C  C129  1  0.44395725  0.57480301  0.44092268  1  -0.056927  0  -0.010083  -0.065918  0  3.937397  0
C  C130  1  0.01875740  0.94079645  0.42522306  1  -0.069236  0  -0.009343  -0.06564  0  3.940162  0
C  C131  1  0.88477362  0.55932661  0.07464561  1  -0.031406  0  -0.009488  -0.068356  0  3.939539  0
C  C132  1  0.04039156  0.07472437  0.94075314  1  -0.035489  0  -0.010042  -0.066906  0  3.93825  0
C  C133  1  0.55604385  0.42519736  0.55907813  1  -0.05717  0  -0.010069  -0.065954  0  3.937414  0
C  C134  1  0.98124705  0.05920236  0.57477356  1  -0.069181  0  -0.009344  -0.065624  0  3.940199  0
C  C135  1  0.11522664  0.44067377  0.92535443  1  -0.031614  0  -0.009527  -0.06841  0  3.939623  0
C  C136  1  0.02344639  0.95369498  0.08507423  1  -0.063032  0  -0.078837  -0.1328  0  3.933511  0
C  C137  1  0.56192420  0.54672768  0.41523481  1  0.005478  0  -0.078949  -0.133232  0  3.933284  0
C  C138  1  0.10860847  0.91514294  0.45333695  1  -0.046229  0  -0.079993  -0.135694  0  3.937729  0
C  C139  1  0.97709569  0.58499230  0.04644003  1  -0.023655  0  -0.080054  -0.133389  0  3.935344  0
C  C140  1  0.97655322  0.04630618  0.91492687  1  -0.063389  0  -0.078862  -0.132919  0  3.933565  0
C  C141  1  0.43807619  0.45327191  0.58476629  1  0.005512  0  -0.078946  -0.133216  0  3.933274  0
C  C142  1  0.89139298  0.08485665  0.54665989  1  -0.045974  0  -0.080014  -0.135745  0  3.937497  0
C  C143  1  0.02290460  0.41500886  0.95356039  1  -0.023729  0  -0.079998  -0.133333  0  3.935384  0
C  C144  1  0.06288038  0.02943887  0.02853964  1  0.045639  0  0.000935  0.057116  0  3.970932  0
C  C145  1  0.62079488  0.47090826  0.47158316  1  0.003397  0  0.001882  0.058058  0  3.969287  0
C  C146  1  0.09161917  0.97161625  0.52909438  1  0.064423  0  0.002273  0.059846  0  3.966698  0
C  C147  1  0.09235866  0.52838069  0.97080279  1  0.02061  0  0.002556  0.059222  0  3.970961  0
C  C148  1  0.93711991  0.97056229  0.97146078  1  0.045818  0  0.000961  0.057211  0  3.970953  0
C  C149  1  0.37920431  0.52909290  0.52841756  1  0.003133  0  0.001899  0.058076  0  3.969275  0
C  C150  1  0.90838362  0.02838256  0.47090072  1  0.064422  0  0.002293  0.059871  0  3.966425  0
C  C151  1  0.90764148  0.47162047  0.02919619  1  0.020381  0  0.002537  0.059169  0  3.97097  0
O  O152  1  0.40269074  0.85528279  0.14300481  1  -1.172686  0  -0.347473  -0.612028  0  2.327797  0
O  O153  1  0.90141316  0.64471595  0.35676469  1  -1.173908  0  -0.346232  -0.609984  0  2.327613  0
O  O154  1  0.54597267  0.85679020  0.35530133  1  -1.1738  0  -0.346336  -0.609139  0  2.328636  0
O  O155  1  0.25833838  0.64305465  0.14453644  1  -1.17243  0  -0.34693  -0.610799  0  2.326193  0
O  O156  1  0.59730959  0.14471602  0.85699195  1  -1.173066  0  -0.347472  -0.612031  0  2.327981  0
O  O157  1  0.09859056  0.35528130  0.64323185  1  -1.1737  0  -0.346268  -0.610049  0  2.327576  0
O  O158  1  0.45402363  0.14321017  0.64470029  1  -1.17386  0  -0.346382  -0.609171  0  2.328669  0
O  O159  1  0.74165858  0.35694494  0.85546412  1  -1.172741  0  -0.346933  -0.61075  0  2.326134  0
O  O160  1  0.37328115  0.98227229  0.22639716  1  -1.153891  0  -0.322383  -0.552983  0  2.147697  0
O  O161  1  0.08229763  0.51753621  0.27355850  1  -1.169921  0  -0.322778  -0.551993  0  2.14518  0
O  O162  1  0.59971547  0.77355675  0.48243785  1  -1.1582  0  -0.322016  -0.551417  0  2.146253  0
O  O163  1  0.35578368  0.72638527  0.01732314  1  -1.143267  0  -0.321984  -0.551087  0  2.145319  0
O  O164  1  0.62671839  0.01772652  0.77360279  1  -1.153901  0  -0.322382  -0.552977  0  2.14765  0
O  O165  1  0.91770328  0.48246182  0.72644367  1  -1.169927  0  -0.32277  -0.552019  0  2.145186  0
O  O166  1  0.40028109  0.22644362  0.51756271  1  -1.158091  0  -0.321982  -0.551392  0  2.146181  0
O  O167  1  0.64421389  0.27361511  0.98268359  1  -1.143271  0  -0.322054  -0.551161  0  2.14524  0
O  O168  1  0.79656821  0.88142286  0.16356961  1  -1.160034  0  -0.312195  -0.562388  0  2.256736  0
O  O169  1  0.34130393  0.61903282  0.33654547  1  -1.159736  0  -0.313473  -0.563229  0  2.258959  0
O  O170  1  0.96015587  0.83645054  0.38119776  1  -1.16002  0  -0.312131  -0.562412  0  2.256102  0
O  O171  1  0.67776190  0.66356756  0.11870447  1  -1.159501  0  -0.312817  -0.563702  0  2.256621  0
O  O172  1  0.20342937  0.11857986  0.83643035  1  -1.16007  0  -0.312143  -0.562335  0  2.256942  0
O  O173  1  0.65869417  0.38096755  0.66345913  1  -1.159884  0  -0.313579  -0.563362  0  2.258836  0
O  O174  1  0.03984467  0.16355140  0.61879802  1  -1.159967  0  -0.31212  -0.562437  0  2.256016  0
O  O175  1  0.32224019  0.33642968  0.88129450  1  -1.159537  0  -0.312781  -0.563621  0  2.256843  0
O  O176  1  0.96509962  0.78020238  0.17747015  1  -1.198753  0  -0.330918  -0.606079  0  2.352566  0
O  O177  1  0.42275072  0.71996765  0.32284792  1  -1.197332  0  -0.329411  -0.604066  0  2.353581  0
O  O178  1  0.14258055  0.82255497  0.28012590  1  -1.20149  0  -0.331036  -0.606078  0  2.351952  0
O  O179  1  0.74529780  0.67762466  0.21964900  1  -1.191067  0  -0.331816  -0.606764  0  2.351558  0
O  O180  1  0.03489984  0.21979878  0.82252951  1  -1.198703  0  -0.330954  -0.606104  0  2.352261  0
O  O181  1  0.57724663  0.28003507  0.67715706  1  -1.197157  0  -0.329427  -0.604135  0  2.35376  0
O  O182  1  0.85742242  0.17744462  0.71987102  1  -1.201544  0  -0.331058  -0.606007  0  2.351941  0
O  O183  1  0.25470174  0.32237415  0.78035096  1  -1.191037  0  -0.331907  -0.606895  0  2.351315  0
O  O184  1  0.63030641  0.91360747  0.10862326  1  -1.223195  0  -0.571267  -0.745389  0  2.052439  0
O  O185  1  0.15234410  0.58673874  0.39145668  1  -1.230825  0  -0.570627  -0.744353  0  2.054544  0
O  O186  1  0.73910259  0.89143727  0.41332555  1  -1.225482  0  -0.570568  -0.744793  0  2.054102  0
O  O187  1  0.54384504  0.60858634  0.08643462  1  -1.227756  0  -0.570837  -0.7449  0  2.054629  0
O  O188  1  0.36969315  0.08639212  0.89137707  1  -1.223188  0  -0.571317  -0.745444  0  2.052418  0
O  O189  1  0.84765560  0.41326164  0.60854152  1  -1.230826  0  -0.570638  -0.744363  0  2.054576  0
O  O190  1  0.26089700  0.10856311  0.58667517  1  -1.225474  0  -0.570562  -0.744798  0  2.054054  0
O  O191  1  0.45615679  0.39141091  0.91356542  1  -1.227689  0  -0.570848  -0.744853  0  2.054672  0
