# generated using pymatgen
data_LaH10C8SO10
_symmetry_space_group_name_H-M   'P 1'
_cell_length_a   7.78775805
_cell_length_b   8.56406040
_cell_length_c   10.85413882
_cell_angle_alpha   70.03240054
_cell_angle_beta   88.40689854
_cell_angle_gamma   70.57107535
_symmetry_Int_Tables_number   1
_chemical_formula_structural   LaH10C8SO10
_chemical_formula_sum   'La2 H20 C16 S2 O20'
_cell_volume   638.63947805
_cell_formula_units_Z   2
loop_
 _symmetry_equiv_pos_site_id
 _symmetry_equiv_pos_as_xyz
  1  'x, y, z'
loop_
 _atom_site_type_symbol
 _atom_site_label
 _atom_site_symmetry_multiplicity
 _atom_site_fract_x
 _atom_site_fract_y
 _atom_site_fract_z
 _atom_site_occupancy
 _atom_site_hle17_bader_spin_density
 _atom_site_hle17_ddec_charge
 _atom_site_hle17_ddec_spin_density
 _atom_site_hle17_ddec_sum_bond_order
 _atom_site_hle17_magmom
 _atom_site_hse06_10hf_bader_spin_density
 _atom_site_hse06_10hf_ddec_charge
 _atom_site_hse06_10hf_ddec_spin_density
 _atom_site_hse06_10hf_ddec_sum_bond_order
 _atom_site_hse06_10hf_magmom
 _atom_site_hse06_bader_spin_density
 _atom_site_hse06_ddec_charge
 _atom_site_hse06_ddec_spin_density
 _atom_site_hse06_ddec_sum_bond_order
 _atom_site_hse06_magmom
 _atom_site_pbe_bader_spin_density
 _atom_site_pbe_cm5_charge
 _atom_site_pbe_ddec_charge
 _atom_site_pbe_ddec_spin_density
 _atom_site_pbe_ddec_sum_bond_order
 _atom_site_pbe_magmom
La  La0  1  0.67506141  0.22443632  0.11760786  1  0  2.178409  0  1.696881  0  0  2.057279  0  2.198422  0  0  2.15209  0  2.103003  0  0  1.412919  1.985491  0  2.266116  0
La  La1  1  0.32494224  0.77555708  0.88239286  1  0  2.178372  0  1.696977  0  0  2.057241  0  2.198544  0  0  2.152064  0  2.103103  0  0  1.412897  1.985429  0  2.266257  0
H  H2  1  0.08714815  0.94532769  0.12829904  1  0  0.453706  0  0.836846  0  0  0.423277  0  0.898892  0  0  0.434964  0  0.881858  0  0  0.309468  0.414868  0  0.911114  0
H  H3  1  0.91285752  0.05467098  0.87170205  1  0  0.4537  0  0.836868  0  0  0.423268  0  0.898917  0  0  0.434956  0  0.881883  0  0  0.309458  0.414863  0  0.911135  0
H  H4  1  0.10039044  0.12745249  0.13079009  1  0  0.431185  0  0.854796  0  0  0.403052  0  0.91655  0  0  0.413212  0  0.901663  0  0  0.310562  0.395715  0  0.927293  0
H  H5  1  0.89961252  0.87255015  0.86920814  1  0  0.431202  0  0.854796  0  0  0.403067  0  0.916543  0  0  0.413226  0  0.901656  0  0  0.310533  0.395728  0  0.927289  0
H  H6  1  0.79791843  0.05119263  0.43723821  1  0  0.448896  0  0.844535  0  0  0.420423  0  0.902908  0  0  0.430965  0  0.887542  0  0  0.307093  0.41287  0  0.913918  0
H  H7  1  0.20207975  0.94881268  0.56276036  1  0  0.448874  0  0.84457  0  0  0.420398  0  0.902945  0  0  0.43094  0  0.887577  0  0  0.307073  0.412844  0  0.913955  0
H  H8  1  0.96761987  0.08162999  0.36035112  1  0  0.435376  0  0.856505  0  0  0.405081  0  0.918933  0  0  0.415428  0  0.903876  0  0  0.306434  0.397627  0  0.929768  0
H  H9  1  0.03237915  0.91837663  0.63964799  1  0  0.435375  0  0.856503  0  0  0.405075  0  0.918948  0  0  0.415426  0  0.903885  0  0  0.306405  0.397621  0  0.929784  0
H  H10  1  0.74865994  0.57553940  0.08030548  1  0  0.447714  0  0.847104  0  0  0.416507  0  0.910275  0  0  0.429086  0  0.891923  0  0  0.304936  0.407408  0  0.92356  0
H  H11  1  0.25134271  0.42445665  0.91969086  1  0  0.447701  0  0.847136  0  0  0.416482  0  0.910325  0  0  0.429061  0  0.891972  0  0  0.304911  0.407379  0  0.923617  0
H  H12  1  0.94564190  0.41749166  0.14203226  1  0  0.447623  0  0.844627  0  0  0.419544  0  0.901364  0  0  0.430332  0  0.885725  0  0  0.306858  0.411853  0  0.912468  0
H  H13  1  0.05435939  0.58250836  0.85796490  1  0  0.447532  0  0.844754  0  0  0.419466  0  0.901472  0  0  0.430254  0  0.885832  0  0  0.306815  0.41177  0  0.91258  0
H  H14  1  0.24266312  0.16431952  0.57882166  1  0  0.101644  0  0.987437  0  0  0.108598  0  1.054476  0  0  0.112074  0  1.052084  0  0  0.110579  0.106069  0  1.056277  0
H  H15  1  0.75732348  0.83568977  0.42118259  1  0  0.101661  0  0.987382  0  0  0.108644  0  1.054388  0  0  0.112123  0  1.051994  0  0  0.110565  0.106115  0  1.056193  0
H  H16  1  0.22864155  0.35930538  0.70306625  1  0  0.103191  0  0.952462  0  0  0.11097  0  1.014159  0  0  0.115193  0  1.011168  0  0  0.106248  0.107893  0  1.016478  0
H  H17  1  0.77135399  0.64070389  0.29693408  1  0  0.103202  0  0.952503  0  0  0.110962  0  1.014214  0  0  0.115185  0  1.011224  0  0  0.106225  0.107887  0  1.016534  0
H  H18  1  0.24445418  0.66066188  0.58720057  1  0  0.093965  0  0.984425  0  0  0.101627  0  1.049948  0  0  0.105208  0  1.047525  0  0  0.10394  0.098972  0  1.051865  0
H  H19  1  0.75554656  0.33934342  0.41279701  1  0  0.093928  0  0.984434  0  0  0.101598  0  1.049945  0  0  0.105178  0  1.047526  0  0  0.10392  0.098942  0  1.051864  0
H  H20  1  0.27727013  0.75999056  0.34745211  1  0  0.103488  0  0.950014  0  0  0.110608  0  1.013545  0  0  0.114467  0  1.011101  0  0  0.105826  0.107749  0  1.015491  0
H  H21  1  0.72273691  0.24000414  0.65254816  1  0  0.103528  0  0.949974  0  0  0.110652  0  1.013501  0  0  0.114511  0  1.011057  0  0  0.105854  0.107791  0  1.015447  0
C  C22  1  0.31318302  0.58734026  0.18381257  1  0  0.698884  0  3.857422  0  0  0.648491  0  4.155391  0  0  0.685298  0  4.146307  0  0  0.231991  0.623268  0  4.160485  0
C  C23  1  0.68682146  0.41265446  0.81618870  1  0  0.698966  0  3.857493  0  0  0.64855  0  4.155485  0  0  0.685358  0  4.146398  0  0  0.231987  0.623318  0  4.160596  0
C  C24  1  0.28418683  0.51718311  0.32625949  1  0  -0.065403  0  3.725647  0  0  -0.05129  0  3.957926  0  0  -0.05622  0  3.978692  0  0  -0.006188  -0.048152  0  3.944076  0
C  C25  1  0.71581419  0.48281425  0.67374392  1  0  -0.06549  0  3.725813  0  0  -0.051379  0  3.958113  0  0  -0.056311  0  3.978881  0  0  -0.006184  -0.048235  0  3.944262  0
C  C26  1  0.27423266  0.34757201  0.39342152  1  0  -0.137951  0  3.702333  0  0  -0.119849  0  3.950548  0  0  -0.125874  0  3.972517  0  0  -0.011653  -0.116031  0  3.936018  0
C  C27  1  0.72576311  0.65242933  0.60658095  1  0  -0.137822  0  3.702218  0  0  -0.119709  0  3.950418  0  0  -0.125732  0  3.972395  0  0  -0.01161  -0.115892  0  3.935885  0
C  C28  1  0.25256103  0.29372501  0.52787654  1  0  -0.053304  0  3.739791  0  0  -0.081083  0  3.992333  0  0  -0.08106  0  4.012615  0  0  -0.079263  -0.080967  0  3.978632  0
C  C29  1  0.74742729  0.70628296  0.47212618  1  0  -0.053412  0  3.739589  0  0  -0.081209  0  3.992121  0  0  -0.08119  0  4.012405  0  0  -0.079287  -0.081093  0  3.978423  0
C  C30  1  0.24333682  0.40531717  0.59785967  1  0  -0.038713  0  3.70922  0  0  -0.052821  0  3.962018  0  0  -0.054945  0  3.981809  0  0  -0.07591  -0.051424  0  3.948465  0
C  C31  1  0.75665671  0.59468682  0.40214122  1  0  -0.03869  0  3.709236  0  0  -0.052783  0  3.962029  0  0  -0.054902  0  3.981813  0  0  -0.075866  -0.051387  0  3.948477  0
C  C32  1  0.25209392  0.57310506  0.53283293  1  0  -0.050214  0  3.734303  0  0  -0.067452  0  3.988859  0  0  -0.068689  0  4.009459  0  0  -0.082033  -0.066407  0  3.974634  0
C  C33  1  0.74790348  0.42689893  0.46716786  1  0  -0.05018  0  3.734304  0  0  -0.067421  0  3.988847  0  0  -0.068659  0  4.009447  0  0  -0.082015  -0.066376  0  3.974621  0
C  C34  1  0.27002441  0.62878392  0.39812105  1  0  -0.05799  0  3.69898  0  0  -0.079862  0  3.946829  0  0  -0.08123  0  3.966969  0  0  -0.076106  -0.078706  0  3.933093  0
C  C35  1  0.72998036  0.37121739  0.60188119  1  0  -0.057988  0  3.698957  0  0  -0.079871  0  3.946819  0  0  -0.081236  0  3.966959  0  0  -0.076118  -0.078713  0  3.933081  0
C  C36  1  0.58340220  0.91563844  0.03628818  1  0  0.556441  0  3.913364  0  0  0.511136  0  4.218029  0  0  0.542217  0  4.211165  0  0  0.225996  0.489773  0  4.221998  0
C  C37  1  0.41659624  0.08435498  0.96370900  1  0  0.556397  0  3.913554  0  0  0.511054  0  4.218255  0  0  0.542138  0  4.21139  0  0  0.226029  0.489696  0  4.222217  0
S  S38  1  0.28321813  0.19501285  0.31272416  1  0  1.34071  0  5.573568  0  0  1.234641  0  6.098655  0  0  1.283998  0  6.074512  0  0  0.542057  1.200517  0  6.114275  0
S  S39  1  0.71678326  0.80498715  0.68727945  1  0  1.340617  0  5.573683  0  0  1.234569  0  6.098769  0  0  1.283923  0  6.07463  0  0  0.541968  1.200446  0  6.114384  0
O  O40  1  0.42396914  0.48818745  0.12962486  1  0  -0.745158  0  2.070313  0  0  -0.6967  0  2.336433  0  0  -0.733645  0  2.329022  0  0  -0.391301  -0.669634  0  2.340229  0
O  O41  1  0.57603279  0.51180727  0.87037832  1  0  -0.745242  0  2.07033  0  0  -0.696773  0  2.336453  0  0  -0.733718  0  2.329038  0  0  -0.391338  -0.669701  0  2.340254  0
O  O42  1  0.22997621  0.75017012  0.11766762  1  0  -0.67617  0  2.028431  0  0  -0.622619  0  2.2633  0  0  -0.653836  0  2.253638  0  0  -0.340539  -0.600217  0  2.269132  0
O  O43  1  0.77002433  0.24982462  0.88232821  1  0  -0.676177  0  2.02845  0  0  -0.622608  0  2.263309  0  0  -0.653824  0  2.253649  0  0  -0.340516  -0.600205  0  2.269148  0
O  O44  1  0.47716182  0.11325986  0.29527356  1  0  -0.719457  0  2.01314  0  0  -0.669531  0  2.287052  0  0  -0.698494  0  2.274786  0  0  -0.379895  -0.648375  0  2.29454  0
O  O45  1  0.52284048  0.88674144  0.70473520  1  0  -0.719484  0  2.013194  0  0  -0.669553  0  2.287101  0  0  -0.698517  0  2.274835  0  0  -0.37988  -0.648396  0  2.294587  0
O  O46  1  0.17032927  0.29475657  0.18585360  1  0  -0.679534  0  2.048808  0  0  -0.615159  0  2.285784  0  0  -0.637398  0  2.271606  0  0  -0.311882  -0.599521  0  2.295094  0
O  O47  1  0.82967643  0.70524209  0.81414932  1  0  -0.679473  0  2.048889  0  0  -0.615106  0  2.285851  0  0  -0.637345  0  2.271675  0  0  -0.31183  -0.599463  0  2.295155  0
O  O48  1  0.21031460  0.06178813  0.39952204  1  0  -0.684029  0  2.007085  0  0  -0.618575  0  2.245247  0  0  -0.63992  0  2.228137  0  0  -0.324469  -0.603692  0  2.257013  0
O  O49  1  0.78968628  0.93821320  0.60047845  1  0  -0.684006  0  2.007072  0  0  -0.618603  0  2.245281  0  0  -0.639948  0  2.228172  0  0  -0.324468  -0.603721  0  2.257047  0
O  O50  1  0.70124239  0.92981639  0.10508710  1  0  -0.607679  0  1.991985  0  0  -0.567818  0  2.232798  0  0  -0.59694  0  2.224017  0  0  -0.353271  -0.546833  0  2.238124  0
O  O51  1  0.29876286  0.07017965  0.89491010  1  0  -0.607529  0  1.992154  0  0  -0.567683  0  2.233017  0  0  -0.596806  0  2.224236  0  0  -0.353214  -0.546696  0  2.238335  0
O  O52  1  0.58674768  0.77540430  0.01884672  1  0  -0.642756  0  2.132202  0  0  -0.592079  0  2.374423  0  0  -0.623172  0  2.366998  0  0  -0.337773  -0.569926  0  2.37903  0
O  O53  1  0.41325318  0.22459309  0.98114655  1  0  -0.642851  0  2.132196  0  0  -0.59214  0  2.37442  0  0  -0.623235  0  2.366995  0  0  -0.337839  -0.569994  0  2.37903  0
O  O54  1  0.01558093  0.06640462  0.12642810  1  0  -0.884324  0  1.835291  0  0  -0.83547  0  2.026093  0  0  -0.860415  0  1.993109  0  0  -0.632317  -0.817229  0  2.049298  0
O  O55  1  0.98442344  0.93359406  0.87357210  1  0  -0.884328  0  1.835328  0  0  -0.835477  0  2.026109  0  0  -0.860425  0  1.993123  0  0  -0.632279  -0.817236  0  2.049314  0
O  O56  1  0.83578246  0.10240518  0.34905229  1  0  -0.891541  0  1.863076  0  0  -0.841323  0  2.053125  0  0  -0.866295  0  2.020734  0  0  -0.631607  -0.823028  0  2.075787  0
O  O57  1  0.16421757  0.89759484  0.65094674  1  0  -0.891535  0  1.86308  0  0  -0.84131  0  2.053129  0  0  -0.866286  0  2.020733  0  0  -0.631573  -0.823016  0  2.075789  0
O  O58  1  0.81464537  0.44510343  0.11828921  1  0  -0.906974  0  1.815658  0  0  -0.859558  0  2.010547  0  0  -0.88636  0  1.976276  0  0  -0.650693  -0.83988  0  2.034441  0
O  O59  1  0.18536088  0.55488601  0.88170699  1  0  -0.906882  0  1.815743  0  0  -0.859443  0  2.010586  0  0  -0.886247  0  1.976312  0  0  -0.650631  -0.839759  0  2.034482  0
