# generated using pymatgen
data_CdH28C31N4O5
_symmetry_space_group_name_H-M   'P 1'
_cell_length_a   9.42417919
_cell_length_b   12.98039364
_cell_length_c   12.37337338
_cell_angle_alpha   78.96906307
_cell_angle_beta   76.93606179
_cell_angle_gamma   73.92864657
_symmetry_Int_Tables_number   1
_chemical_formula_structural   CdH28C31N4O5
_chemical_formula_sum   'Cd2 H56 C62 N8 O10'
_cell_volume   1403.35966101
_cell_formula_units_Z   2
loop_
 _symmetry_equiv_pos_site_id
 _symmetry_equiv_pos_as_xyz
  1  'x, y, z'
loop_
 _atom_site_type_symbol
 _atom_site_label
 _atom_site_symmetry_multiplicity
 _atom_site_fract_x
 _atom_site_fract_y
 _atom_site_fract_z
 _atom_site_occupancy
 _atom_site_hle17_bader_spin_density
 _atom_site_hle17_ddec_charge
 _atom_site_hle17_ddec_spin_density
 _atom_site_hle17_ddec_sum_bond_order
 _atom_site_hle17_magmom
 _atom_site_hse06_10hf_bader_spin_density
 _atom_site_hse06_10hf_ddec_charge
 _atom_site_hse06_10hf_ddec_spin_density
 _atom_site_hse06_10hf_ddec_sum_bond_order
 _atom_site_hse06_10hf_magmom
 _atom_site_hse06_bader_spin_density
 _atom_site_hse06_ddec_charge
 _atom_site_hse06_ddec_spin_density
 _atom_site_hse06_ddec_sum_bond_order
 _atom_site_hse06_magmom
 _atom_site_pbe_bader_spin_density
 _atom_site_pbe_cm5_charge
 _atom_site_pbe_ddec_charge
 _atom_site_pbe_ddec_spin_density
 _atom_site_pbe_ddec_sum_bond_order
 _atom_site_pbe_magmom
Cd  Cd0  1  0.35587619  0.26549716  0.72172073  1  0  1.078121  0  1.715523  0  0  0.886729  0  2.159699  0  0  0.944438  0  2.109062  0  0  0.77  0.845631  0  2.195146  0
Cd  Cd1  1  0.64412857  0.73450143  0.27828369  1  0  1.0781  0  1.715618  0  0  0.886713  0  2.159759  0  0  0.944422  0  2.109122  0  0  0.770028  0.845618  0  2.195209  0
H  H2  1  0.95378606  0.56498857  0.75945465  1  0  0.106544  0  0.982763  0  0  0.113372  0  1.05274  0  0  0.117448  0  1.04984  0  0  0.100362  0.110439  0  1.054993  0
H  H3  1  0.04621488  0.43500841  0.24055236  1  0  0.106461  0  0.982764  0  0  0.113278  0  1.052774  0  0  0.117346  0  1.049886  0  0  0.100309  0.110359  0  1.05501  0
H  H4  1  0.81063308  0.77783017  0.01415138  1  0  0.110546  0  0.949605  0  0  0.122608  0  1.010128  0  0  0.126309  0  1.007605  0  0  0.107937  0.119885  0  1.012244  0
H  H5  1  0.18935912  0.22216359  0.98585937  1  0  0.110531  0  0.949668  0  0  0.122548  0  1.01024  0  0  0.126247  0  1.007719  0  0  0.107969  0.119825  0  1.012353  0
H  H6  1  0.05048079  0.69825399  0.07997557  1  0  0.09444  0  0.932607  0  0  0.109084  0  0.982994  0  0  0.112338  0  0.98124  0  0  0.103485  0.10673  0  0.984421  0
H  H7  1  0.94952044  0.30175189  0.92002965  1  0  0.094344  0  0.93275  0  0  0.109004  0  0.983125  0  0  0.112253  0  0.981374  0  0  0.10345  0.106651  0  0.98456  0
H  H8  1  0.24518722  0.55001259  0.98445845  1  0  0.09753  0  0.945035  0  0  0.107399  0  1.005294  0  0  0.11152  0  1.002308  0  0  0.09911  0.104363  0  1.007658  0
H  H9  1  0.75482466  0.44999733  0.01553527  1  0  0.097465  0  0.945027  0  0  0.107332  0  1.005307  0  0  0.111448  0  1.002326  0  0  0.099091  0.104298  0  1.007671  0
H  H10  1  0.69625519  0.60921954  0.77756239  1  0  0.054789  0  0.91568  0  0  0.070179  0  0.976259  0  0  0.070825  0  0.974615  0  0  0.101268  0.069321  0  0.977804  0
H  H11  1  0.30374192  0.39077263  0.22243975  1  0  0.054768  0  0.915781  0  0  0.070117  0  0.976371  0  0  0.070762  0  0.974727  0  0  0.101253  0.069277  0  0.977887  0
H  H12  1  0.78632776  0.70326521  0.67972889  1  0  0.060875  0  0.923522  0  0  0.075973  0  0.987369  0  0  0.076904  0  0.985644  0  0  0.103993  0.075044  0  0.988824  0
H  H13  1  0.21367290  0.29673257  0.32027962  1  0  0.060896  0  0.923604  0  0  0.075946  0  0.987438  0  0  0.076873  0  0.985719  0  0  0.103999  0.075013  0  0.988896  0
H  H14  1  0.64315402  0.87057965  0.59584410  1  0  0.094871  0  0.979928  0  0  0.104652  0  1.04483  0  0  0.107959  0  1.042197  0  0  0.099892  0.102849  0  1.045597  0
H  H15  1  0.35685018  0.12941410  0.40416056  1  0  0.094913  0  0.97995  0  0  0.104683  0  1.044861  0  0  0.10799  0  1.042229  0  0  0.099933  0.10288  0  1.045628  0
H  H16  1  0.39771875  0.99199824  0.56501764  1  0  0.093997  0  0.966235  0  0  0.106385  0  1.02593  0  0  0.108491  0  1.025876  0  0  0.101823  0.104884  0  1.026143  0
H  H17  1  0.60229391  0.00799632  0.43497733  1  0  0.094017  0  0.966362  0  0  0.10643  0  1.026013  0  0  0.108534  0  1.025963  0  0  0.101853  0.104929  0  1.026222  0
H  H18  1  0.17251092  0.78249296  0.81605494  1  0  0.086421  0  0.985619  0  0  0.093715  0  1.05575  0  0  0.095429  0  1.056938  0  0  0.096907  0.092505  0  1.054747  0
H  H19  1  0.82748704  0.21750976  0.18393690  1  0  0.0865  0  0.985462  0  0  0.093715  0  1.055683  0  0  0.095428  0  1.056873  0  0  0.096904  0.092503  0  1.054679  0
H  H20  1  0.41711543  0.66602325  0.85215098  1  0  0.094354  0  0.94662  0  0  0.105732  0  1.006495  0  0  0.108638  0  1.004945  0  0  0.101665  0.103524  0  1.007885  0
H  H21  1  0.58287543  0.33397463  0.14784221  1  0  0.09434  0  0.946563  0  0  0.105733  0  1.00644  0  0  0.108638  0  1.004891  0  0  0.101665  0.103534  0  1.007815  0
H  H22  1  0.03452240  0.82731505  0.67146250  1  0  0.08406  0  0.960743  0  0  0.093913  0  1.025446  0  0  0.096397  0  1.024976  0  0  0.095444  0.09221  0  1.025609  0
H  H23  1  0.96546931  0.17269013  0.32852347  1  0  0.084024  0  0.960789  0  0  0.09392  0  1.025451  0  0  0.096409  0  1.024974  0  0  0.095443  0.092214  0  1.025611  0
H  H24  1  0.78716017  0.93415154  0.63023552  1  0  0.077606  0  0.983518  0  0  0.088951  0  1.045199  0  0  0.091269  0  1.044136  0  0  0.095244  0.088115  0  1.044748  0
H  H25  1  0.21282964  0.06585925  0.36976099  1  0  0.07758  0  0.98355  0  0  0.088976  0  1.04517  0  0  0.091291  0  1.044114  0  0  0.095255  0.088139  0  1.044725  0
H  H26  1  0.73172909  0.13559208  0.59571369  1  0  0.083872  0  0.970209  0  0  0.095031  0  1.032341  0  0  0.0972  0  1.032303  0  0  0.095214  0.09327  0  1.032799  0
H  H27  1  0.26826726  0.86441870  0.40428170  1  0  0.083869  0  0.970264  0  0  0.09501  0  1.032415  0  0  0.097185  0  1.032357  0  0  0.095226  0.09325  0  1.032878  0
H  H28  1  0.92452527  0.22816523  0.60782166  1  0  0.08615  0  0.965594  0  0  0.095184  0  1.031199  0  0  0.097873  0  1.030295  0  0  0.096019  0.0934  0  1.031813  0
H  H29  1  0.07548496  0.77183663  0.39216826  1  0  0.086071  0  0.965481  0  0  0.095096  0  1.031126  0  0  0.097784  0  1.030225  0  0  0.096018  0.093328  0  1.031715  0
H  H30  1  0.56121333  0.26158174  0.44409667  1  0  0.093917  0  1.01285  0  0  0.102679  0  1.076462  0  0  0.103389  0  1.078986  0  0  0.109792  0.102116  0  1.074908  0
H  H31  1  0.43877482  0.73842419  0.55590592  1  0  0.093985  0  1.012753  0  0  0.102742  0  1.076372  0  0  0.10345  0  1.078894  0  0  0.109811  0.102179  0  1.074835  0
H  H32  1  0.77123445  0.38502397  0.35991485  1  0  0.115234  0  0.971439  0  0  0.123367  0  1.036464  0  0  0.125484  0  1.036194  0  0  0.120717  0.121874  0  1.036589  0
H  H33  1  0.22874989  0.61498039  0.64008061  1  0  0.115305  0  0.971318  0  0  0.123471  0  1.036333  0  0  0.125591  0  1.03606  0  0  0.120785  0.121979  0  1.036474  0
H  H34  1  0.56614473  0.44078216  0.69284477  1  0  0.102688  0  0.942758  0  0  0.111464  0  1.00711  0  0  0.11437  0  1.003424  0  0  0.134664  0.109181  0  1.009912  0
H  H35  1  0.43385132  0.55921971  0.30715727  1  0  0.102676  0  0.942804  0  0  0.111452  0  1.00716  0  0  0.114358  0  1.003472  0  0  0.134656  0.109152  0  1.009945  0
H  H36  1  0.74082129  0.55527500  0.58984690  1  0  0.069658  0  0.927971  0  0  0.088391  0  0.988184  0  0  0.088227  0  0.989105  0  0  0.111256  0.08849  0  0.987606  0
H  H37  1  0.25917094  0.44472851  0.41015304  1  0  0.06957  0  0.928017  0  0  0.088312  0  0.988251  0  0  0.08814  0  0.989167  0  0  0.111226  0.088409  0  0.987667  0
H  H38  1  0.77129096  0.56944260  0.44168351  1  0  0.085883  0  0.962487  0  0  0.09748  0  1.032902  0  0  0.098792  0  1.03185  0  0  0.109197  0.096285  0  1.034531  0
H  H39  1  0.22870700  0.43056010  0.55831157  1  0  0.085863  0  0.962662  0  0  0.097474  0  1.033081  0  0  0.098784  0  1.032026  0  0  0.109195  0.096276  0  1.034715  0
H  H40  1  0.99213924  0.40513203  0.44573954  1  0  0.068271  0  0.934449  0  0  0.087597  0  0.996354  0  0  0.088297  0  0.996388  0  0  0.092478  0.086657  0  0.996868  0
H  H41  1  0.00785652  0.59486418  0.55426203  1  0  0.068248  0  0.934452  0  0  0.08756  0  0.996401  0  0  0.08826  0  0.996434  0  0  0.092472  0.086618  0  0.996923  0
H  H42  1  0.97389754  0.40477196  0.59106973  1  0  0.080722  0  0.925409  0  0  0.100337  0  0.980896  0  0  0.101447  0  0.98085  0  0  0.095863  0.099179  0  0.981534  0
H  H43  1  0.02609413  0.59522668  0.40893531  1  0  0.080779  0  0.925345  0  0  0.100419  0  0.980832  0  0  0.101524  0  0.980789  0  0  0.095896  0.099262  0  0.981466  0
H  H44  1  0.59036895  0.24645695  0.91131249  1  0  0.100674  0  0.924045  0  0  0.113078  0  0.982254  0  0  0.115739  0  0.978587  0  0  0.137748  0.111043  0  0.984904  0
H  H45  1  0.40963116  0.75354245  0.08869742  1  0  0.100758  0  0.923957  0  0  0.113138  0  0.982187  0  0  0.11581  0  0.978509  0  0  0.137742  0.111099  0  0.984831  0
H  H46  1  0.48584658  0.00062567  0.78756428  1  0  0.098728  0  0.982071  0  0  0.107533  0  1.044837  0  0  0.109033  0  1.045675  0  0  0.111918  0.106401  0  1.044537  0
H  H47  1  0.51415519  0.99937859  0.21243955  1  0  0.098692  0  0.982028  0  0  0.107509  0  1.044775  0  0  0.109009  0  1.045614  0  0  0.11191  0.106382  0  1.044475  0
H  H48  1  0.70701339  0.90638522  0.91438462  1  0  0.111985  0  0.987828  0  0  0.117697  0  1.057036  0  0  0.120532  0  1.055054  0  0  0.119578  0.115613  0  1.058682  0
H  H49  1  0.29298620  0.09361582  0.08561859  1  0  0.111967  0  0.987897  0  0  0.117707  0  1.057058  0  0  0.120544  0  1.055072  0  0  0.119596  0.115621  0  1.058706  0
H  H50  1  0.77966900  0.14276042  0.02434951  1  0  0.06477  0  0.942523  0  0  0.081426  0  1.006549  0  0  0.081167  0  1.007777  0  0  0.106327  0.081458  0  1.00588  0
H  H51  1  0.22033603  0.85723737  0.97565422  1  0  0.064759  0  0.942409  0  0  0.081479  0  1.006399  0  0  0.08122  0  1.007627  0  0  0.106356  0.081509  0  1.00573  0
H  H52  1  0.74985116  0.01401627  0.08751319  1  0  0.087931  0  0.944177  0  0  0.100672  0  1.010099  0  0  0.102034  0  1.009511  0  0  0.10797  0.099512  0  1.011083  0
H  H53  1  0.25017130  0.98597502  0.91248399  1  0  0.087873  0  0.944125  0  0  0.100651  0  1.010018  0  0  0.102014  0  1.009427  0  0  0.107927  0.099495  0  1.011006  0
H  H54  1  0.98760486  0.05624101  0.87991566  1  0  0.079054  0  0.952975  0  0  0.093213  0  1.017053  0  0  0.094271  0  1.017805  0  0  0.090504  0.092315  0  1.016809  0
H  H55  1  0.01240210  0.94376087  0.12007401  1  0  0.079093  0  0.952943  0  0  0.0932  0  1.017105  0  0  0.094259  0  1.017856  0  0  0.090484  0.092302  0  1.016859  0
H  H56  1  0.95222913  0.92807180  0.93667349  1  0  0.06466  0  0.946101  0  0  0.082489  0  1.009891  0  0  0.082366  0  1.011693  0  0  0.088902  0.082568  0  1.008694  0
H  H57  1  0.04778165  0.07193489  0.06332186  1  0  0.064661  0  0.946134  0  0  0.082535  0  1.009846  0  0  0.082411  0  1.01165  0  0  0.088934  0.082615  0  1.00865  0
C  C58  1  0.21661963  0.45615313  0.81650447  1  0  0.617301  0  3.958215  0  0  0.57046  0  4.248342  0  0  0.603566  0  4.24403  0  0  0.184944  0.548  0  4.250249  0
C  C59  1  0.78338839  0.54384865  0.18350847  1  0  0.617369  0  3.958496  0  0  0.570472  0  4.248627  0  0  0.603577  0  4.244316  0  0  0.184895  0.548001  0  4.250526  0
C  C60  1  0.10963976  0.55188195  0.86595813  1  0  -0.035803  0  3.7842  0  0  -0.008825  0  4.011534  0  0  -0.014572  0  4.035717  0  0  -0.020195  -0.005027  0  3.995282  0
C  C61  1  0.89036637  0.44811907  0.13404477  1  0  -0.036158  0  3.784395  0  0  -0.008993  0  4.011508  0  0  -0.014737  0  4.035687  0  0  -0.020256  -0.005188  0  3.995247  0
C  C62  1  0.97413492  0.59887793  0.82675370  1  0  -0.227028  0  3.756068  0  0  -0.257509  0  4.008489  0  0  -0.262097  0  4.028403  0  0  -0.110762  -0.254578  0  3.995164  0
C  C63  1  0.02586736  0.40111501  0.17325226  1  0  -0.226829  0  3.756243  0  0  -0.257343  0  4.008627  0  0  -0.261921  0  4.028532  0  0  -0.110689  -0.25442  0  3.995281  0
C  C64  1  0.86777368  0.68217538  0.87810865  1  0  0.264302  0  3.823024  0  0  0.258201  0  4.082683  0  0  0.26826  0  4.09961  0  0  0.079569  0.251344  0  4.070844  0
C  C65  1  0.13222260  0.31781596  0.12189864  1  0  0.26413  0  3.823162  0  0  0.258086  0  4.082851  0  0  0.268152  0  4.099779  0  0  0.07959  0.251228  0  4.071017  0
C  C66  1  0.89668816  0.71732348  0.96982888  1  0  -0.165127  0  3.715925  0  0  -0.191244  0  3.975027  0  0  -0.194414  0  3.991898  0  0  -0.097197  -0.188578  0  3.963305  0
C  C67  1  0.10330567  0.28266544  0.03017769  1  0  -0.165101  0  3.715928  0  0  -0.191163  0  3.975018  0  0  -0.194332  0  3.991886  0  0  -0.097295  -0.188498  0  3.963306  0
C  C68  1  0.03224059  0.67142927  0.00701587  1  0  -0.04904  0  3.783954  0  0  -0.061796  0  4.041023  0  0  -0.061802  0  4.060128  0  0  -0.090891  -0.061824  0  4.027863  0
C  C69  1  0.96775954  0.32857015  0.99298918  1  0  -0.048986  0  3.784091  0  0  -0.061761  0  4.041186  0  0  -0.061753  0  4.060267  0  0  -0.090847  -0.061792  0  4.028039  0
C  C70  1  0.13995524  0.58908301  0.95502428  1  0  -0.101614  0  3.756994  0  0  -0.128719  0  4.010548  0  0  -0.130814  0  4.0318  0  0  -0.097136  -0.127269  0  3.996286  0
C  C71  1  0.86004489  0.41091965  0.04497852  1  0  -0.10137  0  3.756795  0  0  -0.128536  0  4.010345  0  0  -0.130627  0  4.031594  0  0  -0.097069  -0.12709  0  3.99609  0
C  C72  1  0.69794901  0.69542985  0.75423125  1  0  0.061447  0  3.64679  0  0  -0.006284  0  3.915559  0  0  0.002763  0  3.919262  0  0  -0.058457  -0.012195  0  3.91265  0
C  C73  1  0.30204892  0.30456632  0.24577967  1  0  0.061392  0  3.647016  0  0  -0.006096  0  3.91564  0  0  0.002957  0  3.919337  0  0  -0.058456  -0.012019  0  3.912716  0
C  C74  1  0.54823086  0.76361893  0.73074582  1  0  0.04713  0  3.761227  0  0  0.066836  0  4.002223  0  0  0.06559  0  4.025597  0  0  -0.019614  0.068385  0  3.986016  0
C  C75  1  0.45176600  0.23638051  0.26925494  1  0  0.047185  0  3.761292  0  0  0.066831  0  4.002301  0  0  0.065586  0  4.025672  0  0  -0.019592  0.068376  0  3.986098  0
C  C76  1  0.53994829  0.85478169  0.64862381  1  0  -0.103321  0  3.746119  0  0  -0.123979  0  3.994537  0  0  -0.124882  0  4.012986  0  0  -0.087243  -0.123861  0  3.98202  0
C  C77  1  0.46005047  0.14521532  0.35137791  1  0  -0.103291  0  3.746039  0  0  -0.123957  0  3.994513  0  0  -0.124857  0  4.012956  0  0  -0.087244  -0.123842  0  3.981998  0
C  C78  1  0.40172027  0.92169403  0.62959395  1  0  -0.118341  0  3.735083  0  0  -0.135204  0  3.980433  0  0  -0.138122  0  4.000403  0  0  -0.09145  -0.13419  0  3.968163  0
C  C79  1  0.59828503  0.07830296  0.37040584  1  0  -0.118419  0  3.735238  0  0  -0.135315  0  3.980562  0  0  -0.138234  0  4.000528  0  0  -0.091464  -0.134301  0  3.968302  0
C  C80  1  0.26668103  0.89801001  0.69022261  1  0  0.064845  0  3.776584  0  0  0.077595  0  4.009453  0  0  0.078609  0  4.032467  0  0  -0.001474  0.076499  0  3.994322  0
C  C81  1  0.73331829  0.10199188  0.30976997  1  0  0.06483  0  3.776739  0  0  0.077645  0  4.009488  0  0  0.078674  0  4.032511  0  0  -0.001545  0.076529  0  3.99437  0
C  C82  1  0.27558922  0.80372835  0.76898439  1  0  -0.116392  0  3.745311  0  0  -0.131574  0  3.990863  0  0  -0.134574  0  4.012925  0  0  -0.089414  -0.128537  0  3.975032  0
C  C83  1  0.72440410  0.19627194  0.23101034  1  0  -0.116419  0  3.745493  0  0  -0.13156  0  3.991032  0  0  -0.134561  0  4.013093  0  0  -0.089334  -0.128522  0  3.975204  0
C  C84  1  0.41397065  0.73822914  0.78980346  1  0  -0.107854  0  3.745983  0  0  -0.128659  0  3.992158  0  0  -0.130711  0  4.013579  0  0  -0.08867  -0.127383  0  3.977204  0
C  C85  1  0.58602457  0.26176549  0.21019044  1  0  -0.107845  0  3.745946  0  0  -0.128649  0  3.992114  0  0  -0.130703  0  4.013536  0  0  -0.0887  -0.127385  0  3.977151  0
C  C86  1  0.11955715  0.96617421  0.66760592  1  0  0.027824  0  3.756135  0  0  0.035768  0  3.987702  0  0  0.036034  0  4.011156  0  0  -0.006565  0.035477  0  3.971919  0
C  C87  1  0.88044353  0.03382363  0.33238723  1  0  0.027868  0  3.756012  0  0  0.035802  0  3.98755  0  0  0.036016  0  4.011069  0  0  -0.006514  0.035533  0  3.971742  0
C  C88  1  0.00922995  0.91548934  0.66000894  1  0  -0.105821  0  3.74992  0  0  -0.123752  0  3.997875  0  0  -0.126288  0  4.01884  0  0  -0.089948  -0.122087  0  3.983722  0
C  C89  1  0.99076856  0.08451500  0.33998007  1  0  -0.10577  0  3.749685  0  0  -0.123743  0  3.997662  0  0  -0.126261  0  4.018636  0  0  -0.089998  -0.122079  0  3.983497  0
C  C90  1  0.87057527  0.97546130  0.63549200  1  0  -0.058547  0  3.794852  0  0  -0.074159  0  4.045995  0  0  -0.075316  0  4.067561  0  0  -0.092445  -0.073777  0  4.031126  0
C  C91  1  0.12942162  0.02454466  0.36449697  1  0  -0.058589  0  3.794802  0  0  -0.074272  0  4.045974  0  0  -0.075429  0  4.067538  0  0  -0.092435  -0.073884  0  4.03109  0
C  C92  1  0.83950661  0.08809163  0.61606121  1  0  -0.059454  0  3.776987  0  0  -0.075277  0  4.029613  0  0  -0.077015  0  4.051696  0  0  -0.093508  -0.073888  0  4.015112  0
C  C93  1  0.16049300  0.91191590  0.38393506  1  0  -0.059388  0  3.777028  0  0  -0.07516  0  4.029603  0  0  -0.076895  0  4.051687  0  0  -0.093509  -0.073775  0  4.015119  0
C  C94  1  0.94783209  0.14003505  0.62233168  1  0  -0.090859  0  3.756862  0  0  -0.113446  0  4.007473  0  0  -0.114667  0  4.027759  0  0  -0.093461  -0.11286  0  3.993877  0
C  C95  1  0.05217815  0.85997006  0.37765679  1  0  -0.090766  0  3.756785  0  0  -0.113379  0  4.007421  0  0  -0.114602  0  4.027712  0  0  -0.093438  -0.112795  0  3.993798  0
C  C96  1  0.08680788  0.08051052  0.64929877  1  0  -0.084404  0  3.713747  0  0  -0.066962  0  3.949294  0  0  -0.072614  0  3.969071  0  0  -0.013261  -0.062997  0  3.935597  0
C  C97  1  0.91319879  0.91948891  0.35069628  1  0  -0.084449  0  3.713791  0  0  -0.067004  0  3.949326  0  0  -0.072641  0  3.969117  0  0  -0.013323  -0.063051  0  3.935631  0
C  C98  1  0.18932724  0.14314669  0.66841163  1  0  0.632572  0  3.953034  0  0  0.582286  0  4.250502  0  0  0.61654  0  4.243807  0  0  0.189078  0.559137  0  4.253799  0
C  C99  1  0.81069169  0.85684549  0.33156980  1  0  0.632248  0  3.953469  0  0  0.581957  0  4.250952  0  0  0.616211  0  4.244262  0  0  0.189026  0.558813  0  4.25424  0
C  C100  1  0.59473011  0.31645877  0.48346387  1  0  -0.00323  0  3.772507  0  0  -0.037219  0  4.038311  0  0  -0.03448  0  4.059372  0  0  -0.006938  -0.038858  0  4.023697  0
C  C101  1  0.40525667  0.68354152  0.51653763  1  0  -0.003291  0  3.772651  0  0  -0.037273  0  4.038456  0  0  -0.034531  0  4.059519  0  0  -0.006944  -0.038917  0  4.023876  0
C  C102  1  0.69912447  0.37658639  0.44105712  1  0  -0.061738  0  3.653843  0  0  -0.101876  0  3.913309  0  0  -0.101103  0  3.93284  0  0  4.5e-05  -0.102188  0  3.8996  0
C  C103  1  0.30087074  0.62341144  0.55894424  1  0  -0.06188  0  3.653763  0  0  -0.102064  0  3.913231  0  0  -0.101294  0  3.932761  0  0  -2.1e-05  -0.102381  0  3.899558  0
C  C104  1  0.59479474  0.40689119  0.61478676  1  0  0.150364  0  3.681574  0  0  0.087989  0  3.946738  0  0  0.101787  0  3.960735  0  0  0.137027  0.079395  0  3.936377  0
C  C105  1  0.40519859  0.59311231  0.38521300  1  0  0.150316  0  3.681387  0  0  0.087928  0  3.946562  0  0  0.101724  0  3.96056  0  0  0.136975  0.079361  0  3.936151  0
C  C106  1  0.78724340  0.51116860  0.51733374  1  0  0.000689  0  3.623462  0  0  -0.064099  0  3.883345  0  0  -0.059939  0  3.895253  0  0  -0.053896  -0.066826  0  3.875739  0
C  C107  1  0.21275155  0.48883004  0.48266750  1  0  0.000816  0  3.62346  0  0  -0.06401  0  3.883429  0  0  -0.059828  0  3.895306  0  0  -0.053881  -0.066736  0  3.875819  0
C  C108  1  0.95413325  0.45754398  0.51218178  1  0  -0.118963  0  3.670418  0  0  -0.160443  0  3.932549  0  0  -0.161705  0  3.945861  0  0  -0.159953  -0.159683  0  3.924476  0
C  C109  1  0.04585897  0.54245627  0.48782284  1  0  -0.11901  0  3.670317  0  0  -0.160566  0  3.932545  0  0  -0.161824  0  3.945839  0  0  -0.159979  -0.159806  0  3.924472  0
C  C110  1  0.59241623  0.16757936  0.89294640  1  0  0.157422  0  3.677326  0  0  0.092963  0  3.945113  0  0  0.106755  0  3.959322  0  0  0.139962  0.084462  0  3.934483  0
C  C111  1  0.40758281  0.83242329  0.10705821  1  0  0.157222  0  3.677391  0  0  0.092799  0  3.945166  0  0  0.106578  0  3.959371  0  0  0.139927  0.084298  0  3.934531  0
C  C112  1  0.54084246  0.03778942  0.83202242  1  0  0.003586  0  3.760188  0  0  -0.030411  0  4.028825  0  0  -0.028079  0  4.049104  0  0  -0.006207  -0.031985  0  4.015607  0
C  C113  1  0.45915930  0.96221160  0.16798284  1  0  0.003569  0  3.760055  0  0  -0.030437  0  4.028706  0  0  -0.028109  0  4.048992  0  0  -0.006211  -0.032013  0  4.015484  0
C  C114  1  0.65030968  0.99031638  0.89504137  1  0  -0.047036  0  3.666738  0  0  -0.090045  0  3.930771  0  0  -0.088063  0  3.948952  0  0  0.004089  -0.091584  0  3.919018  0
C  C115  1  0.34968802  0.00969034  0.10495782  1  0  -0.046984  0  3.666526  0  0  -0.089994  0  3.930507  0  0  -0.088011  0  3.948685  0  0  0.00404  -0.091527  0  3.918755  0
C  C116  1  0.78728127  0.06122334  0.00758386  1  0  -0.000633  0  3.623998  0  0  -0.063357  0  3.880613  0  0  -0.059267  0  3.892088  0  0  -0.054458  -0.066157  0  3.873359  0
C  C117  1  0.21273302  0.93877283  0.99241295  1  0  -0.00056  0  3.623666  0  0  -0.063372  0  3.880374  0  0  -0.059277  0  3.891831  0  0  -0.054471  -0.066177  0  3.873123  0
C  C118  1  0.94826924  0.00743512  0.95813355  1  0  -0.119874  0  3.659735  0  0  -0.156756  0  3.914101  0  0  -0.158175  0  3.927513  0  0  -0.164692  -0.155726  0  3.905163  0
C  C119  1  0.05173744  0.99256756  0.04185843  1  0  -0.119903  0  3.659537  0  0  -0.156822  0  3.913972  0  0  -0.15824  0  3.927383  0  0  -0.164717  -0.155794  0  3.905033  0
N  N120  1  0.53070692  0.33594684  0.59186336  1  0  -0.397392  0  3.285803  0  0  -0.319663  0  3.572723  0  0  -0.341398  0  3.589197  0  0  -0.364772  -0.304755  0  3.561095  0
N  N121  1  0.46928477  0.66405503  0.40814103  1  0  -0.397418  0  3.285845  0  0  -0.319685  0  3.572752  0  0  -0.34142  0  3.589226  0  0  -0.364786  -0.30478  0  3.561113  0
N  N122  1  0.69733462  0.43371463  0.52522805  1  0  -0.056976  0  3.572025  0  0  0.038871  0  3.789243  0  0  0.024072  0  3.816557  0  0  -0.240785  0.04872  0  3.770195  0
N  N123  1  0.30265597  0.56628403  0.47477070  1  0  -0.056821  0  3.571521  0  0  0.039046  0  3.788747  0  0  0.024249  0  3.816045  0  0  -0.24076  0.048887  0  3.769707  0
N  N124  1  0.50569596  0.14834823  0.83136446  1  0  -0.406659  0  3.320918  0  0  -0.328117  0  3.613112  0  0  -0.350864  0  3.63132  0  0  -0.371348  -0.312407  0  3.600349  0
N  N125  1  0.49430035  0.85165281  0.16864254  1  0  -0.406605  0  3.320987  0  0  -0.328083  0  3.613179  0  0  -0.350831  0  3.631391  0  0  -0.371336  -0.312373  0  3.600418  0
N  N126  1  0.68180192  0.07329039  0.93302155  1  0  -0.058804  0  3.580523  0  0  0.037985  0  3.796892  0  0  0.02319  0  3.824418  0  0  -0.238745  0.047859  0  3.778019  0
N  N127  1  0.31819385  0.92670904  0.06698263  1  0  -0.058788  0  3.580415  0  0  0.037998  0  3.796789  0  0  0.023203  0  3.824313  0  0  -0.238711  0.047871  0  3.777914  0
O  O128  1  0.16620240  0.41341381  0.75139123  1  0  -0.650858  0  1.984047  0  0  -0.581313  0  2.231324  0  0  -0.610618  0  2.221284  0  0  -0.343575  -0.56048  0  2.237511  0
O  O129  1  0.83381732  0.58657904  0.24862146  1  0  -0.650808  0  1.984086  0  0  -0.581272  0  2.231378  0  0  -0.61057  0  2.22133  0  0  -0.343568  -0.560476  0  2.237663  0
O  O130  1  0.34638493  0.42029327  0.84043140  1  0  -0.643605  0  1.886021  0  0  -0.594756  0  2.108259  0  0  -0.619175  0  2.099027  0  0  -0.345481  -0.577391  0  2.114013  0
O  O131  1  0.65362093  0.57971497  0.15958387  1  0  -0.643555  0  1.886154  0  0  -0.594696  0  2.108397  0  0  -0.61912  0  2.099166  0  0  -0.345418  -0.577335  0  2.114164  0
O  O132  1  0.73187804  0.73233721  0.84650815  1  0  -0.289403  0  2.283886  0  0  -0.2177  0  2.514885  0  0  -0.235325  0  2.517191  0  0  -0.181785  -0.205133  0  2.512325  0
O  O133  1  0.26811360  0.26765170  0.15350445  1  0  -0.289261  0  2.283881  0  0  -0.217763  0  2.514967  0  0  -0.235397  0  2.517277  0  0  -0.181819  -0.205205  0  2.51242  0
O  O134  1  0.24324064  0.20671092  0.58775081  1  0  -0.645031  0  1.895747  0  0  -0.585137  0  2.126766  0  0  -0.613313  0  2.117945  0  0  -0.338184  -0.565374  0  2.132239  0
O  O135  1  0.75673883  0.79330803  0.41223940  1  0  -0.64486  0  1.89607  0  0  -0.585006  0  2.127138  0  0  -0.613184  0  2.11832  0  0  -0.338157  -0.565242  0  2.132609  0
O  O136  1  0.21269764  0.13263477  0.76815014  1  0  -0.63204  0  1.948505  0  0  -0.566977  0  2.183362  0  0  -0.595947  0  2.175089  0  0  -0.327431  -0.546479  0  2.188367  0
O  O137  1  0.78733354  0.86735010  0.23183064  1  0  -0.631915  0  1.948657  0  0  -0.566771  0  2.18338  0  0  -0.595735  0  2.17511  0  0  -0.327406  -0.546272  0  2.188376  0
