# generated using pymatgen
data_Zr3H17C27O16
_symmetry_space_group_name_H-M   'P 1'
_cell_length_a   14.74617801
_cell_length_b   14.75286823
_cell_length_c   14.75273302
_cell_angle_alpha   60.18209354
_cell_angle_beta   60.07243711
_cell_angle_gamma   60.07185410
_symmetry_Int_Tables_number   1
_chemical_formula_structural   Zr3H17C27O16
_chemical_formula_sum   'Zr6 H34 C54 O32'
_cell_volume   2275.00081607
_cell_formula_units_Z   2
loop_
 _symmetry_equiv_pos_site_id
 _symmetry_equiv_pos_as_xyz
  1  'x, y, z'
loop_
 _atom_site_type_symbol
 _atom_site_label
 _atom_site_symmetry_multiplicity
 _atom_site_fract_x
 _atom_site_fract_y
 _atom_site_fract_z
 _atom_site_occupancy
 _atom_site_pbe_bader_charge
 _atom_site_pbe_bader_spin_density
 _atom_site_pbe_cm5_charge
 _atom_site_pbe_ddec_charge
 _atom_site_pbe_ddec_spin_density
 _atom_site_pbe_ddec_sum_bond_order
 _atom_site_pbe_magmom
Zr  Zr0  1  0.87926625  0.88037469  0.62084095  1  2.634798  0  1.628807  2.373675  0  2.759607  0
Zr  Zr1  1  0.11918197  0.11917848  0.38137533  1  2.629548  0  1.625979  2.371661  0  2.75505  0
Zr  Zr2  1  0.11923472  0.87967983  0.62077001  1  2.633646  0  1.627051  2.37225  0  2.757851  0
Zr  Zr3  1  0.87915931  0.11914459  0.38213199  1  2.631473  0  1.627867  2.373154  0  2.757057  0
Zr  Zr4  1  0.11959657  0.87974228  0.38136971  1  2.63523  0  1.627183  2.374297  0  2.757828  0
Zr  Zr5  1  0.87957067  0.11946705  0.62126990  1  2.634021  0  1.626583  2.375842  0  2.75504  0
H  H6  1  0.09572948  0.71709152  0.59445597  1  0.620553  0  0.329668  0.420831  0  0.86165  0
H  H7  1  0.09554309  0.09300365  0.21870725  1  0.603472  0  0.329031  0.419656  0  0.864507  0
H  H8  1  0.09443571  0.09373140  0.59519740  1  0.588767  0  0.331189  0.423798  0  0.854728  0
H  H9  1  0.71615053  0.09422560  0.59590519  1  0.623061  0  0.333238  0.42691  0  0.852421  0
H  H10  1  0.15587586  0.40065858  0.37188811  1  0.11195  0  0.110577  0.114815  0  0.991194  0
H  H11  1  0.82834340  0.61469983  0.61336812  1  0.063782  0  0.111471  0.116454  0  0.989257  0
H  H12  1  0.15563396  0.57163828  0.37170231  1  0.076873  0  0.110045  0.11551  0  0.992413  0
H  H13  1  0.82839089  0.44393044  0.61335604  1  0.110509  0  0.110566  0.11608  0  0.990891  0
H  H14  1  0.42270739  0.13672311  0.09558064  1  0.100977  0  0.110105  0.116132  0  0.991634  0
H  H15  1  0.60112069  0.83845109  0.93178133  1  0.09937  0  0.111198  0.117319  0  0.98853  0
H  H16  1  0.59323926  0.13663819  0.92524844  1  0.087015  0  0.108366  0.11235  0  0.995518  0
H  H17  1  0.43068721  0.83848278  0.10218636  1  0.082096  0  0.108749  0.113261  0  0.994894  0
H  H18  1  0.82890608  0.11158278  0.94520856  1  0.091045  0  0.110745  0.115969  0  0.991462  0
H  H19  1  0.15553417  0.86918191  0.07379489  1  0.129378  0  0.110139  0.115806  0  0.993215  0
H  H20  1  0.82863962  0.11160917  0.11606541  1  0.070896  0  0.11158  0.116452  0  0.988617  0
H  H21  1  0.15593943  0.86934132  0.90276299  1  0.105737  0  0.110522  0.114346  0  0.99137  0
H  H22  1  0.43021135  0.59973312  0.34101912  1  0.087892  0  0.10872  0.113236  0  0.994866  0
H  H23  1  0.59263682  0.42341379  0.63922848  1  0.109835  0  0.108701  0.11333  0  0.995092  0
H  H24  1  0.60083621  0.42941394  0.34111982  1  0.096877  0  0.111106  0.117034  0  0.989362  0
H  H25  1  0.42206586  0.59371766  0.63905094  1  0.109495  0  0.110219  0.11557  0  0.991618  0
H  H26  1  0.99696612  0.57171476  0.73718909  1  0.076953  0  0.095031  0.096789  0  1.053907  0
H  H27  1  0.00871898  0.40180624  0.73360259  1  0.043675  0  0.094025  0.091229  0  1.021966  0
H  H28  1  0.99705988  0.23564633  0.07296809  1  0.073339  0  0.095226  0.097859  0  1.051448  0
H  H29  1  0.00889466  0.23234124  0.90289574  1  0.038355  0  0.093875  0.091503  0  1.021533  0
H  H30  1  0.42544555  0.84239013  0.63520333  1  0.109239  0  0.109126  0.114345  0  0.993917  0
H  H31  1  0.59571167  0.13320194  0.34538392  1  0.087809  0  0.1094  0.114283  0  0.99385  0
H  H32  1  0.59586316  0.84270546  0.63555425  1  0.116876  0  0.109595  0.114854  0  0.993404  0
H  H33  1  0.42526001  0.13284587  0.34506706  1  0.082355  0  0.108969  0.113645  0  0.994185  0
H  H34  1  0.90607897  0.58115506  0.22907892  1  0.058209  0  0.093605  0.127392  0  0.998006  0
H  H35  1  0.97275944  0.43535648  0.27671541  1  0.08086  0  0.093381  0.137086  0  1.028515  0
H  H36  1  0.05187623  0.52502103  0.19217940  1  0.033527  0  0.094476  0.131192  0  0.99003  0
H  H37  1  0.05121721  0.69103315  0.02699458  1  0.038429  0  0.094536  0.131222  0  0.990419  0
H  H38  1  0.97340450  0.77505079  0.93611785  1  0.043775  0  0.09352  0.137168  0  1.029163  0
H  H39  1  0.90531371  0.72848941  0.08171512  1  0.048926  0  0.093507  0.127359  0  0.996837  0
C  C40  1  0.99484593  0.70040178  0.49587084  1  1.55848  0  0.237016  0.637093  0  4.103044  0
C  C41  1  0.31017207  0.99336731  0.20308053  1  1.549936  0  0.236751  0.638122  0  4.097046  0
C  C42  1  0.99495146  0.30847865  0.49665012  1  1.556923  0  0.236257  0.634201  0  4.109474  0
C  C43  1  0.70111896  0.99393815  0.81177645  1  1.543582  0  0.236945  0.638667  0  4.100551  0
C  C44  1  0.99442151  0.69936922  0.80877436  1  1.528355  0  0.240883  0.660898  0  4.082778  0
C  C45  1  0.70073996  0.99347034  0.49574108  1  1.559415  0  0.236777  0.63884  0  4.102454  0
C  C46  1  0.99419050  0.30730911  0.20102902  1  1.542226  0  0.240751  0.661446  0  4.084889  0
C  C47  1  0.30938241  0.99345173  0.49567082  1  1.562077  0  0.236242  0.63803  0  4.102403  0
C  C48  1  0.31004618  0.70124926  0.49523292  1  1.55984  0  0.237244  0.639399  0  4.098957  0
C  C49  1  0.99522227  0.99463250  0.81016483  1  1.550918  0  0.237048  0.63595  0  4.108113  0
C  C50  1  0.70094606  0.30995193  0.49617235  1  1.547457  0  0.236826  0.638927  0  4.098506  0
C  C51  1  0.99479630  0.99398586  0.20216035  1  1.553633  0  0.236705  0.63633  0  4.104134  0
C  C52  1  0.99256681  0.41243581  0.49336019  1  -0.053919  0  -0.011476  -0.035075  0  3.960656  0
C  C53  1  0.99233026  0.60197297  0.49296549  1  -0.014527  0  -0.011085  -0.033192  0  3.957174  0
C  C54  1  0.08467466  0.44847902  0.42403943  1  0.004326  0  -0.078549  -0.089998  0  3.972043  0
C  C55  1  0.89935056  0.56715749  0.56082695  1  0.029233  0  -0.076386  -0.088653  0  3.967457  0
C  C56  1  0.08453190  0.54282988  0.42388124  1  -0.091428  0  -0.07937  -0.093114  0  3.969822  0
C  C57  1  0.89948234  0.47275363  0.56094607  1  -0.040706  0  -0.077763  -0.09158  0  3.967436  0
C  C58  1  0.41608587  0.98870315  0.10711479  1  -0.085357  0  -0.011952  -0.032094  0  3.955578  0
C  C59  1  0.60530762  0.98881324  0.91782777  1  -0.02041  0  -0.012096  -0.034117  0  3.958591  0
C  C60  1  0.46268333  0.07184768  0.05903393  1  -0.028491  0  -0.079413  -0.092543  0  3.968382  0
C  C61  1  0.56123775  0.90328276  0.96838184  1  -0.015447  0  -0.078498  -0.088677  0  3.964851  0
C  C62  1  0.55688977  0.07178260  0.96489580  1  -0.057427  0  -0.079802  -0.08985  0  3.971822  0
C  C63  1  0.46709283  0.90328758  0.06260016  1  0.055218  0  -0.079621  -0.092112  0  3.970995  0
C  C64  1  0.99281619  0.99116429  0.91419624  1  0.010404  0  -0.011419  -0.035692  0  3.960926  0
C  C65  1  0.99239683  0.99084809  0.10377803  1  0.050352  0  -0.011396  -0.033067  0  3.956695  0
C  C66  1  0.89981518  0.05896180  0.97429945  1  -0.019749  0  -0.077802  -0.091003  0  3.965545  0
C  C67  1  0.08450831  0.92146986  0.04487955  1  -0.109056  0  -0.079078  -0.093253  0  3.971376  0
C  C68  1  0.89958823  0.05886149  0.06872752  1  -0.028329  0  -0.076548  -0.088756  0  3.965346  0
C  C69  1  0.08476028  0.92160739  0.95048731  1  -0.083328  0  -0.078172  -0.088765  0  3.973549  0
C  C70  1  0.41566333  0.60498469  0.49103870  1  -0.027313  0  -0.012063  -0.034202  0  3.959592  0
C  C71  1  0.60489667  0.41578038  0.49137704  1  -0.0265  0  -0.012449  -0.034713  0  3.958579  0
C  C72  1  0.46661662  0.56027582  0.40579674  1  -0.072158  0  -0.080086  -0.092004  0  3.971  0
C  C73  1  0.55635466  0.46288833  0.57434873  1  -0.075349  0  -0.080078  -0.092153  0  3.971884  0
C  C74  1  0.56081864  0.46613118  0.40588155  1  -0.003129  0  -0.078297  -0.087984  0  3.96336  0
C  C75  1  0.46212158  0.55702225  0.57426414  1  -0.001762  0  -0.07864  -0.089057  0  3.966637  0
C  C76  1  0.99176320  0.59916122  0.91107175  1  -0.000247  0  -0.013698  -0.140875  0  3.911843  0
C  C77  1  0.99507167  0.50252998  0.90704418  1  -0.045743  0  -0.004305  0.060238  0  3.975485  0
C  C78  1  0.98650801  0.60179109  0.00653707  1  0.010944  0  -0.00136  0.101985  0  3.916277  0
C  C79  1  0.00039256  0.49786592  0.81033329  1  -0.065049  0  -0.099664  -0.137307  0  3.983416  0
C  C80  1  0.00570589  0.40272648  0.80856611  1  -0.022413  0  -0.100077  -0.084896  0  4.048638  0
C  C81  1  0.99165402  0.40958132  0.10072523  1  -0.026382  0  -0.013276  -0.140181  0  3.909608  0
C  C82  1  0.98647639  0.50506731  0.10327746  1  0.046584  0  -0.001408  0.102506  0  3.917003  0
C  C83  1  0.99500486  0.40557324  0.00403221  1  0.008485  0  -0.004366  0.059967  0  3.974433  0
C  C84  1  0.00042899  0.30888577  0.99920123  1  -0.013552  0  -0.099519  -0.13716  0  3.981118  0
C  C85  1  0.00576923  0.30728029  0.90395304  1  -0.041094  0  -0.100075  -0.086758  0  4.050078  0
C  C86  1  0.41495088  0.98878336  0.49126570  1  -0.08204  0  -0.012809  -0.033718  0  3.959237  0
C  C87  1  0.60406918  0.98898884  0.49144872  1  -0.039181  0  -0.012511  -0.03454  0  3.960144  0
C  C88  1  0.46357556  0.90553625  0.57230236  1  -0.005229  0  -0.079594  -0.091756  0  3.972169  0
C  C89  1  0.55764286  0.07000584  0.40820135  1  -0.036786  0  -0.079544  -0.090471  0  3.971934  0
C  C90  1  0.55776106  0.90564410  0.57239971  1  -0.023262  0  -0.079815  -0.091351  0  3.971081  0
C  C91  1  0.46350718  0.06987735  0.40809393  1  -0.002434  0  -0.079443  -0.090404  0  3.971818  0
C  C92  1  0.97853434  0.51115406  0.20599972  1  -0.106043  0  -0.240199  -0.406703  0  3.971577  0
C  C93  1  0.97837455  0.70474819  0.01236856  1  -0.062624  0  -0.240232  -0.406514  0  3.96997  0
O  O94  1  0.91911504  0.73839862  0.57438699  1  -1.18665  0  -0.35262  -0.618163  0  2.291709  0
O  O95  1  0.26770208  0.07291902  0.24021808  1  -1.183196  0  -0.355448  -0.617605  0  2.285511  0
O  O96  1  0.07357658  0.26697236  0.42133753  1  -1.185851  0  -0.355067  -0.622298  0  2.293799  0
O  O97  1  0.73733267  0.92023688  0.76903220  1  -1.177357  0  -0.354171  -0.615837  0  2.285021  0
O  O98  1  0.07411609  0.73583276  0.76761590  1  -1.174215  0  -0.351688  -0.615942  0  2.258169  0
O  O99  1  0.73773502  0.07279173  0.42134410  1  -1.183502  0  -0.355579  -0.6193  0  2.285101  0
O  O100  1  0.91730616  0.26715114  0.24193121  1  -1.174476  0  -0.35526  -0.619464  0  2.28623  0
O  O101  1  0.26730111  0.91922615  0.57505747  1  -1.190461  0  -0.355426  -0.618758  0  2.290049  0
O  O102  1  0.26817057  0.73796746  0.42069041  1  -1.180808  0  -0.356304  -0.622268  0  2.282623  0
O  O103  1  0.91976518  0.07326787  0.76947800  1  -1.181687  0  -0.35397  -0.617639  0  2.285881  0
O  O104  1  0.73828496  0.26810403  0.57543234  1  -1.17604  0  -0.357486  -0.623399  0  2.283521  0
O  O105  1  0.07386777  0.91935976  0.23949365  1  -1.186008  0  -0.355074  -0.617955  0  2.288637  0
O  O106  1  0.07381720  0.91938357  0.76857714  1  -1.186662  0  -0.355306  -0.623141  0  2.294891  0
O  O107  1  0.73733297  0.26741174  0.42225144  1  -1.175035  0  -0.353863  -0.615666  0  2.28382  0
O  O108  1  0.91895608  0.07244718  0.24021046  1  -1.18486  0  -0.352447  -0.618479  0  2.29052  0
O  O109  1  0.26764445  0.73860426  0.57460068  1  -1.185165  0  -0.355443  -0.617598  0  2.288862  0
O  O110  1  0.91740044  0.74042276  0.76876569  1  -1.175322  0  -0.355439  -0.618403  0  2.285628  0
O  O111  1  0.26743290  0.07288613  0.42135582  1  -1.182299  0  -0.355747  -0.619545  0  2.287203  0
O  O112  1  0.07373936  0.26628742  0.23765922  1  -1.179526  0  -0.351617  -0.616963  0  2.257858  0
O  O113  1  0.73795343  0.91903869  0.57489743  1  -1.185639  0  -0.35543  -0.619254  0  2.286842  0
O  O114  1  0.73843111  0.07319652  0.77000494  1  -1.185426  0  -0.357326  -0.623145  0  2.284315  0
O  O115  1  0.07375365  0.73787769  0.42101817  1  -1.184588  0  -0.354901  -0.617603  0  2.287107  0
O  O116  1  0.26813883  0.91896213  0.23976509  1  -1.181096  0  -0.355804  -0.621208  0  2.28252  0
O  O117  1  0.91948801  0.26778227  0.57522181  1  -1.172628  0  -0.353086  -0.616532  0  2.285363  0
O  O118  1  0.79662009  0.06732045  0.56904647  1  -1.250847  0  -0.695602  -1.070736  0  2.35914  0
O  O119  1  0.06686244  0.06717555  0.56878078  1  -1.218161  0  -0.69399  -1.067472  0  2.354268  0
O  O120  1  0.06694143  0.06661956  0.29902940  1  -1.234378  0  -0.695014  -1.068551  0  2.366981  0
O  O121  1  0.06703032  0.79740569  0.56813912  1  -1.252418  0  -0.696267  -1.071203  0  2.366249  0
O  O122  1  0.14880389  0.94989214  0.45145930  1  -1.196252  0  -0.791942  -1.147362  0  2.131669  0
O  O123  1  0.94984910  0.94989216  0.45153874  1  -1.200543  0  -0.790928  -1.148544  0  2.123832  0
O  O124  1  0.94968180  0.14852319  0.45192903  1  -1.197091  0  -0.792217  -1.149742  0  2.13171  0
O  O125  1  0.94970470  0.95020676  0.65026657  1  -1.194365  0  -0.792729  -1.150197  0  2.132368  0
