# generated using pymatgen
data_YbH21C36(NO4)2
_symmetry_space_group_name_H-M   'P 1'
_cell_length_a   10.81355942
_cell_length_b   12.06048767
_cell_length_c   12.26296992
_cell_angle_alpha   94.28957159
_cell_angle_beta   106.20480751
_cell_angle_gamma   101.09386716
_symmetry_Int_Tables_number   1
_chemical_formula_structural   YbH21C36(NO4)2
_chemical_formula_sum   'Yb2 H42 C72 N4 O16'
_cell_volume   1492.98249280
_cell_formula_units_Z   2
loop_
 _symmetry_equiv_pos_site_id
 _symmetry_equiv_pos_as_xyz
  1  'x, y, z'
loop_
 _atom_site_type_symbol
 _atom_site_label
 _atom_site_symmetry_multiplicity
 _atom_site_fract_x
 _atom_site_fract_y
 _atom_site_fract_z
 _atom_site_occupancy
 _atom_site_pbe_bader_charge
 _atom_site_pbe_bader_spin_density
 _atom_site_pbe_cm5_charge
 _atom_site_pbe_ddec_charge
 _atom_site_pbe_ddec_spin_density
 _atom_site_pbe_ddec_sum_bond_order
 _atom_site_pbe_magmom
Yb  Yb0  1  0.08449295  0.80882673  0.99759390  1  2.138685  0  1.621497  1.921267  0  2.295833  0
Yb  Yb1  1  0.91550665  0.19118178  0.00240256  1  2.138619  0  1.621492  1.921106  0  2.296169  0
H  H2  1  0.26543451  0.07362342  0.01409965  1  0.136523  0  0.124188  0.095878  0  0.999993  0
H  H3  1  0.73457480  0.92638164  0.98589491  1  0.136154  0  0.12419  0.095901  0  1.000051  0
H  H4  1  0.49875316  0.18835810  0.08379335  1  0.095171  0  0.108978  0.11748  0  1.006662  0
H  H5  1  0.50126112  0.81164012  0.91619872  1  0.095144  0  0.10894  0.117377  0  1.006734  0
H  H6  1  0.67662246  0.10086549  0.19351369  1  0.167342  0  0.114216  0.125839  0  1.00764  0
H  H7  1  0.32338380  0.89912423  0.80648392  1  0.16735  0  0.114284  0.125948  0  1.007615  0
H  H8  1  0.74053301  0.92984349  0.28175884  1  0.087807  0  0.102575  0.107403  0  1.029378  0
H  H9  1  0.25946546  0.07014966  0.71823952  1  0.087754  0  0.102599  0.107438  0  1.029343  0
H  H10  1  0.67586833  0.72992479  0.31648517  1  0.090695  0  0.107916  0.111698  0  0.991259  0
H  H11  1  0.32412244  0.27006838  0.68351208  1  0.090678  0  0.10794  0.111675  0  0.991211  0
H  H12  1  0.49655075  0.55479182  0.29743862  1  0.09853  0  0.115731  0.122852  0  0.978951  0
H  H13  1  0.50344172  0.44520049  0.70255818  1  0.09885  0  0.115721  0.122812  0  0.979058  0
H  H14  1  0.25832468  0.45828785  0.21938557  1  0.092821  0  0.11048  0.122059  0  1.018508  0
H  H15  1  0.74166540  0.54170615  0.78060015  1  0.092703  0  0.11047  0.121964  0  1.018592  0
H  H16  1  0.09942588  0.56189617  0.10486266  1  0.134894  0  0.125166  0.101343  0  1.001447  0
H  H17  1  0.90057044  0.43809951  0.89511903  1  0.134563  0  0.125157  0.101289  0  1.001469  0
H  H18  1  0.27372108  0.70904703  0.69172981  1  0.085008  0  0.106757  0.111142  0  1.011678  0
H  H19  1  0.72627895  0.29095209  0.30826936  1  0.084977  0  0.106773  0.11118  0  1.011623  0
H  H20  1  0.25203697  0.60824613  0.50113475  1  0.08051  0  0.101927  0.103902  0  1.032344  0
H  H21  1  0.74796194  0.39174872  0.49886302  1  0.080483  0  0.101905  0.103861  0  1.032396  0
H  H22  1  0.88247990  0.52858288  0.67244218  1  0.089678  0  0.106163  0.112214  0  1.027274  0
H  H23  1  0.11752035  0.47141709  0.32755548  1  0.089668  0  0.106138  0.11221  0  1.027254  0
H  H24  1  0.83733657  0.54857623  0.17915352  1  0.093657  0  0.102747  0.108479  0  1.020165  0
H  H25  1  0.16267801  0.45142714  0.82085774  1  0.093482  0  0.102793  0.108557  0  1.02016  0
H  H26  1  0.63851780  0.40772581  0.18526152  1  0.088838  0  0.101624  0.104301  0  1.032329  0
H  H27  1  0.36149997  0.59227500  0.81474791  1  0.089092  0  0.101642  0.104351  0  1.032286  0
H  H28  1  0.60167837  0.67418684  0.89162956  1  0.105804  0  0.103834  0.104291  0  1.050944  0
H  H29  1  0.39833508  0.32581228  0.10838519  1  0.105682  0  0.103854  0.104249  0  1.050986  0
H  H30  1  0.02695523  0.80383180  0.27542965  1  0.077899  0  0.106546  0.115532  0  1.025219  0
H  H31  1  0.97304119  0.19619036  0.72456699  1  0.077568  0  0.106491  0.115409  0  1.025156  0
H  H32  1  0.02516671  0.77430352  0.47399202  1  0.079442  0  0.098262  0.100075  0  1.023838  0
H  H33  1  0.97483792  0.22572802  0.52600896  1  0.079082  0  0.098262  0.100105  0  1.023709  0
H  H34  1  0.98285357  0.14823035  0.33505034  1  0.086729  0  0.106989  0.112714  0  1.018409  0
H  H35  1  0.01714519  0.85179691  0.66493746  1  0.087054  0  0.106882  0.112472  0  1.018675  0
H  H36  1  0.22153489  0.22300920  0.17770499  1  0.65858  0  0.314747  0.377159  0  0.956349  0
H  H37  1  0.77844786  0.77696436  0.82229295  1  0.658438  0  0.314656  0.376995  0  0.956511  0
H  H38  1  0.57854415  0.30444000  0.50216346  1  0.056754  0  0.100544  0.098427  0  1.036064  0
H  H39  1  0.42144509  0.69555490  0.49784495  1  0.056584  0  0.100566  0.098461  0  1.036081  0
H  H40  1  0.70080925  0.18228347  0.62904052  1  0.089719  0  0.104284  0.108782  0  1.003486  0
H  H41  1  0.29919997  0.81771392  0.37095919  1  0.089829  0  0.104338  0.108825  0  1.003444  0
H  H42  1  0.28544928  0.00876451  0.31423380  1  0.138643  0  0.107907  0.117637  0  1.025183  0
H  H43  1  0.71455151  0.99121928  0.68577671  1  0.139427  0  0.107964  0.117701  0  1.025272  0
C  C44  1  0.34521590  0.03647471  0.06149637  1  0.510299  0  0.064675  0.128255  0  3.933302  0
C  C45  1  0.65479275  0.96352779  0.93849785  1  0.510794  0  0.064696  0.128237  0  3.933103  0
C  C46  1  0.47587850  0.10127406  0.10249688  1  -0.090454  0  -0.083174  -0.126254  0  3.955259  0
C  C47  1  0.52413138  0.89872589  0.89750154  1  -0.090192  0  -0.083121  -0.12605  0  3.955142  0
C  C48  1  0.57438612  0.05255171  0.16386659  1  -0.026777  0  -0.057878  -0.061372  0  3.891195  0
C  C49  1  0.42561817  0.94744141  0.83612343  1  -0.026936  0  -0.05802  -0.061676  0  3.891246  0
C  C50  1  0.54172801  0.93863522  0.18481618  1  -0.007264  0  0.000595  0.042533  0  4.002264  0
C  C51  1  0.45827018  0.06136049  0.81517984  1  -0.007278  0  0.000588  0.042625  0  4.002102  0
C  C52  1  0.63806485  0.88249492  0.24854149  1  -0.043845  0  -0.08203  -0.111031  0  3.962127  0
C  C53  1  0.36193215  0.11749994  0.75145499  1  -0.044003  0  -0.082032  -0.111107  0  3.962071  0
C  C54  1  0.60238313  0.77241749  0.26757069  1  -0.024183  0  -0.08129  -0.116067  0  3.988477  0
C  C55  1  0.39761030  0.22757482  0.73242636  1  -0.02411  0  -0.081348  -0.115966  0  3.988326  0
C  C56  1  0.46773983  0.71058515  0.22492896  1  -0.010714  0  0.000306  0.04403  0  4.004808  0
C  C57  1  0.53225519  0.28941312  0.77506400  1  -0.010806  0  0.000344  0.04397  0  4.004864  0
C  C58  1  0.42552551  0.59870756  0.24740479  1  -0.011818  0  -0.057283  -0.063679  0  3.906806  0
C  C59  1  0.57446815  0.40128560  0.75259074  1  -0.011828  0  -0.057338  -0.063788  0  3.907047  0
C  C60  1  0.29355373  0.54501919  0.20468041  1  0.014942  0  -0.081595  -0.12726  0  3.963431  0
C  C61  1  0.70644374  0.45497736  0.79530897  1  0.014934  0  -0.081536  -0.127075  0  3.96347  0
C  C62  1  0.20403905  0.60263376  0.13916984  1  0.488551  0  0.063537  0.133827  0  3.916648  0
C  C63  1  0.79595726  0.39736194  0.86081593  1  0.488947  0  0.063568  0.133837  0  3.916819  0
C  C64  1  0.37006658  0.76307398  0.15928402  1  0.474382  0  0.120457  0.134343  0  3.977449  0
C  C65  1  0.62993182  0.23692258  0.84071374  1  0.474415  0  0.120459  0.134392  0  3.977447  0
C  C66  1  0.40753054  0.87906330  0.13904524  1  0.460165  0  0.12044  0.132827  0  3.975567  0
C  C67  1  0.59246491  0.12093668  0.86095040  1  0.459763  0  0.120382  0.132765  0  3.975631  0
C  C68  1  0.09273412  0.68007933  0.81028889  1  1.538867  0  0.18356  0.559366  0  4.243967  0
C  C69  1  0.90726806  0.31992064  0.18971169  1  1.538924  0  0.183571  0.559415  0  4.243829  0
C  C70  1  0.07873086  0.62286349  0.69389010  1  -0.036531  0  -0.016186  -0.027608  0  3.9845  0
C  C71  1  0.92126900  0.37713137  0.30611199  1  -0.036609  0  -0.016214  -0.027632  0  3.984383  0
C  C72  1  0.18363841  0.64673571  0.64458273  1  -0.027928  0  -0.08369  -0.101143  0  3.989392  0
C  C73  1  0.81636094  0.35326086  0.35541772  1  -0.027714  0  -0.083654  -0.101099  0  3.989369  0
C  C74  1  0.17124588  0.59138573  0.53855749  1  -0.043258  0  -0.085679  -0.127799  0  3.981273  0
C  C75  1  0.82875176  0.40861170  0.46144423  1  -0.043245  0  -0.085725  -0.127846  0  3.981298  0
C  C76  1  0.96246400  0.54567541  0.63400270  1  -0.042175  0  -0.073622  -0.127959  0  3.904837  0
C  C77  1  0.03753411  0.45432371  0.36599354  1  -0.041998  0  -0.073638  -0.128021  0  3.904593  0
C  C78  1  0.05348458  0.51139787  0.47564153  1  -0.069973  0  -0.005523  0.071871  0  4.014507  0
C  C79  1  0.94650961  0.48860468  0.52435398  1  -0.012176  0  -0.005542  0.071915  0  4.014609  0
C  C80  1  0.85171210  0.69638367  0.02728692  1  1.510315  0  0.199118  0.587444  0  4.175827  0
C  C81  1  0.14830248  0.30361970  0.97272352  1  1.510207  0  0.19914  0.5874  0  4.17544  0
C  C82  1  0.72990153  0.62101844  0.03587409  1  -0.052458  0  -0.018439  -0.033671  0  3.991195  0
C  C83  1  0.27011519  0.37898579  0.96413939  1  -0.052368  0  -0.018429  -0.03346  0  3.990726  0
C  C84  1  0.74052810  0.54480241  0.11921015  1  -0.017227  0  -0.085102  -0.092699  0  3.96609  0
C  C85  1  0.25948314  0.45519927  0.88080260  1  -0.016498  0  -0.085296  -0.093063  0  3.966353  0
C  C86  1  0.63085055  0.46674654  0.12183819  1  -0.022037  0  -0.084547  -0.118093  0  3.960467  0
C  C87  1  0.36915921  0.53325685  0.87817431  1  -0.02287  0  -0.08445  -0.117932  0  3.960533  0
C  C88  1  0.60857710  0.61888640  0.95831707  1  -0.053379  0  -0.076436  -0.134939  0  3.934513  0
C  C89  1  0.39143495  0.38111101  0.04169639  1  -0.053523  0  -0.076489  -0.13501  0  3.934395  0
C  C90  1  0.50570602  0.46069954  0.04130830  1  0.001982  0  -0.003862  0.074527  0  3.991134  0
C  C91  1  0.49430565  0.53930386  0.95870794  1  -0.066088  0  -0.004026  0.074323  0  3.991342  0
C  C92  1  0.00814385  0.99537254  0.17568064  1  1.60083  0  0.245121  0.689402  0  4.114005  0
C  C93  1  0.99185406  0.00463681  0.82431220  1  1.599925  0  0.244991  0.68903  0  4.114013  0
C  C94  1  0.00567423  0.97879202  0.29466011  1  -0.029884  0  -0.016502  -0.047863  0  3.978695  0
C  C95  1  0.99432960  0.02123268  0.70533611  1  -0.028386  0  -0.016475  -0.047379  0  3.97767  0
C  C96  1  0.01842496  0.87240842  0.33411468  1  -0.07113  0  -0.087721  -0.105376  0  3.979389  0
C  C97  1  0.98158006  0.12761713  0.66588108  1  -0.071609  0  -0.087651  -0.105284  0  3.979124  0
C  C98  1  0.01684930  0.85622535  0.44366247  1  -0.013727  0  -0.087898  -0.122718  0  3.973739  0
C  C99  1  0.98315653  0.14380704  0.55633724  1  -0.0136  0  -0.088013  -0.123058  0  3.973807  0
C  C100  1  0.99278350  0.06718430  0.36636702  1  -0.047215  0  -0.075005  -0.131454  0  3.923639  0
C  C101  1  0.00721961  0.93284125  0.63362582  1  -0.047083  0  -0.074994  -0.13131  0  3.92329  0
C  C102  1  0.00589908  0.94609306  0.51976189  1  -0.02321  0  -0.005319  0.071837  0  4.005592  0
C  C103  1  0.99410448  0.05393419  0.48023118  1  0.026971  0  -0.005104  0.072304  0  4.0055  0
C  C104  1  0.36776319  0.23665545  0.31824053  1  1.520242  0  0.224787  0.570674  0  4.152905  0
C  C105  1  0.63219869  0.76331221  0.68176646  1  1.519755  0  0.225013  0.57119  0  4.152522  0
C  C106  1  0.42661587  0.16280423  0.40048206  1  0.074667  0  -0.021066  -0.04429  0  4.012234  0
C  C107  1  0.57337446  0.83718385  0.59952859  1  0.074665  0  -0.021193  -0.044492  0  4.012181  0
C  C108  1  0.54373478  0.21223776  0.49060100  1  -0.016435  0  -0.08902  -0.105315  0  4.012944  0
C  C109  1  0.45626463  0.78775540  0.50940412  1  -0.016362  0  -0.089008  -0.105359  0  4.013005  0
C  C110  1  0.60965351  0.14500442  0.56055498  1  -0.092536  0  -0.086266  -0.123755  0  3.979539  0
C  C111  1  0.39035219  0.85498702  0.43945240  1  -0.092376  0  -0.086285  -0.123764  0  3.979473  0
C  C112  1  0.37496286  0.04631943  0.38409618  1  -0.154825  0  -0.074897  -0.127211  0  3.906852  0
C  C113  1  0.62504266  0.95366776  0.61591656  1  -0.15468  0  -0.074934  -0.127159  0  3.90699  0
C  C114  1  0.56020851  0.02499528  0.54471117  1  0.044182  0  -0.002636  0.077562  0  3.987128  0
C  C115  1  0.43979530  0.97499276  0.45530121  1  -0.010263  0  -0.002751  0.077612  0  3.987003  0
N  N116  1  0.31151808  0.92813818  0.07801655  1  -1.243365  0  -0.38951  -0.375948  0  3.506034  0
N  N117  1  0.68848886  0.07186518  0.92197893  1  -1.243115  0  -0.389457  -0.375932  0  3.505898  0
N  N118  1  0.24023747  0.70882383  0.11705214  1  -1.260112  0  -0.394572  -0.391339  0  3.507132  0
N  N119  1  0.75976111  0.29117699  0.88294027  1  -1.260154  0  -0.394581  -0.391257  0  3.507194  0
O  O120  1  0.19740490  0.75410663  0.86529187  1  -1.181471  0  -0.373397  -0.623906  0  2.238787  0
O  O121  1  0.80258780  0.24589763  0.13470420  1  -1.181499  0  -0.373401  -0.623946  0  2.238671  0
O  O122  1  0.99683385  0.65553381  0.85322943  1  -1.187082  0  -0.404975  -0.637625  0  2.227074  0
O  O123  1  0.00316712  0.34446532  0.14677405  1  -1.187129  0  -0.404962  -0.637574  0  2.227098  0
O  O124  1  0.96407674  0.68656515  0.08960451  1  -1.178178  0  -0.380294  -0.622556  0  2.27998  0
O  O125  1  0.03593466  0.31344079  0.91040451  1  -1.17787  0  -0.38034  -0.622521  0  2.279814  0
O  O126  1  0.84635360  0.77001028  0.95632889  1  -1.177632  0  -0.368189  -0.629805  0  2.304185  0
O  O127  1  0.15365078  0.22998713  0.04367451  1  -1.177747  0  -0.368133  -0.629781  0  2.304068  0
O  O128  1  0.06648532  0.93288335  0.12922693  1  -1.206524  0  -0.427322  -0.687426  0  2.397674  0
O  O129  1  0.93350340  0.06712773  0.87076456  1  -1.206824  0  -0.427232  -0.687295  0  2.397638  0
O  O130  1  0.95194769  0.07026195  0.12811916  1  -1.208187  0  -0.424636  -0.676964  0  2.337501  0
O  O131  1  0.04803987  0.92974827  0.87186953  1  -1.207894  0  -0.424554  -0.676891  0  2.337541  0
O  O132  1  0.24879774  0.18437384  0.24804326  1  -1.175508  0  -0.327872  -0.485196  0  2.3604  0
O  O133  1  0.75118130  0.81559291  0.75195327  1  -1.17562  0  -0.328082  -0.485396  0  2.360115  0
O  O134  1  0.42583011  0.33405436  0.31331221  1  -1.159315  0  -0.30209  -0.510705  0  2.110209  0
O  O135  1  0.57412885  0.66592443  0.68670300  1  -1.15882  0  -0.30195  -0.51072  0  2.11059  0
