# generated using pymatgen
data_ZnSiH12C24(N2F5)2
_symmetry_space_group_name_H-M   'P 1'
_cell_length_a   7.76371807
_cell_length_b   14.14892333
_cell_length_c   14.17181480
_cell_angle_alpha   94.36584703
_cell_angle_beta   99.68606786
_cell_angle_gamma   99.69776004
_symmetry_Int_Tables_number   1
_chemical_formula_structural   ZnSiH12C24(N2F5)2
_chemical_formula_sum   'Zn1 Si1 H12 C24 N4 F10'
_cell_volume   1503.86019401
_cell_formula_units_Z   1
loop_
 _symmetry_equiv_pos_site_id
 _symmetry_equiv_pos_as_xyz
  1  'x, y, z'
loop_
 _atom_site_type_symbol
 _atom_site_label
 _atom_site_symmetry_multiplicity
 _atom_site_fract_x
 _atom_site_fract_y
 _atom_site_fract_z
 _atom_site_occupancy
 _atom_site_pbe_bader_charge
 _atom_site_pbe_bader_spin_density
 _atom_site_pbe_cm5_charge
 _atom_site_pbe_ddec_charge
 _atom_site_pbe_ddec_spin_density
 _atom_site_pbe_ddec_sum_bond_order
 _atom_site_pbe_magmom
Zn  Zn0  1  0.49999945  0.50018766  0.49979362  1  1.340523  0  0.704235  0.824109  0  2.169263  0
Si  Si1  1  0.00000578  0.49894262  0.50108344  1  3.221936  0  0.264704  1.73346  0  3.889511  0
H  H2  1  0.25288348  0.63419626  0.44082727  1  0.230435  0  0.115961  0.108214  0  1.070257  0
H  H3  1  0.22907874  0.80511995  0.43633489  1  0.109358  0  0.118605  0.133432  0  0.973465  0
H  H4  1  0.79041366  0.87820180  0.56376009  1  0.101784  0  0.122096  0.154717  0  0.971713  0
H  H5  1  0.21117267  0.12233651  0.43059840  1  0.109467  0  0.121696  0.154833  0  0.971978  0
H  H6  1  0.74429404  0.36583430  0.56418678  1  0.236123  0  0.115897  0.10767  0  1.066467  0
H  H7  1  0.76652110  0.19475107  0.56979216  1  0.103614  0  0.119263  0.132929  0  0.973543  0
H  H8  1  0.25523383  0.43757550  0.63474815  1  0.199382  0  0.115855  0.107731  0  1.068354  0
H  H9  1  0.23244626  0.43247365  0.80547069  1  0.096236  0  0.11886  0.132894  0  0.973066  0
H  H10  1  0.79060452  0.56661143  0.87790499  1  0.100479  0  0.121571  0.155041  0  0.971868  0
H  H11  1  0.20798370  0.43901821  0.12162936  1  0.095948  0  0.121388  0.154201  0  0.972667  0
H  H12  1  0.74747354  0.55735143  0.36515196  1  0.234952  0  0.115636  0.108191  0  1.071687  0
H  H13  1  0.77167691  0.56138658  0.19457762  1  0.110095  0  0.118071  0.133135  0  0.974774  0
C  C14  1  0.36983394  0.68994329  0.46670007  1  0.455272  0  0.054033  0.126733  0  3.904507  0
C  C15  1  0.35665167  0.78617380  0.46435425  1  -0.016318  0  -0.076343  -0.180126  0  3.892928  0
C  C16  1  0.50813908  0.85786450  0.49979506  1  0.137757  0  0.021583  0.200688  0  4.12521  0
C  C17  1  0.66744196  0.82755105  0.53548031  1  0.018262  0  -0.089163  -0.302313  0  3.904478  0
C  C18  1  0.66487368  0.72905971  0.53450599  1  1.053861  0  0.238173  0.448048  0  4.085991  0
C  C19  1  0.50137872  0.95722352  0.50008375  1  -0.255115  0  -0.027378  -0.087668  0  4.070936  0
C  C20  1  0.49648621  0.04294856  0.50088837  1  -0.031105  0  -0.028641  -0.089155  0  4.069918  0
C  C21  1  0.49014218  0.14233896  0.50083781  1  0.023981  0  0.021835  0.201175  0  4.122794  0
C  C22  1  0.33303687  0.17284701  0.46143562  1  0.130469  0  -0.088896  -0.302603  0  3.901748  0
C  C23  1  0.33692492  0.27138790  0.46141703  1  1.05528  0  0.238171  0.447462  0  4.083537  0
C  C24  1  0.62820574  0.31015978  0.53620300  1  0.429774  0  0.054814  0.128884  0  3.905174  0
C  C25  1  0.64042929  0.21385914  0.53916082  1  -0.006116  0  -0.077094  -0.179444  0  3.893747  0
C  C26  1  0.37175604  0.46470677  0.69031032  1  0.47303  0  0.05434  0.126647  0  3.906411  0
C  C27  1  0.35919245  0.46201848  0.78643874  1  0.00177  0  -0.077128  -0.179387  0  3.893302  0
C  C28  1  0.51008915  0.49912454  0.85788668  1  0.131637  0  0.021544  0.200515  0  4.124823  0
C  C29  1  0.66816186  0.53693387  0.82744305  1  0.017796  0  -0.089175  -0.302644  0  3.903718  0
C  C30  1  0.66469667  0.53659270  0.72905881  1  1.081955  0  0.238493  0.446666  0  4.086762  0
C  C31  1  0.50355185  0.49920698  0.95710521  1  -0.031941  0  -0.028226  -0.088445  0  4.070143  0
C  C32  1  0.49846291  0.49994004  0.04267440  1  -0.258445  0  -0.027429  -0.08816  0  4.069596  0
C  C33  1  0.49152295  0.50032530  0.14186183  1  0.085565  0  0.020429  0.200973  0  4.124815  0
C  C34  1  0.33144566  0.46619801  0.17215743  1  0.070613  0  -0.088765  -0.302134  0  3.905242  0
C  C35  1  0.33382108  0.46748894  0.27050459  1  1.061446  0  0.237277  0.445409  0  4.088547  0
C  C36  1  0.63014789  0.53238225  0.30953962  1  0.46237  0  0.05396  0.126228  0  3.903684  0
C  C37  1  0.64353331  0.53448296  0.21344515  1  -0.022744  0  -0.075785  -0.18028  0  3.893148  0
N  N38  1  0.52271879  0.66017865  0.50224589  1  -1.23529  0  -0.309859  -0.331143  0  3.444664  0
N  N39  1  0.47765974  0.34010493  0.49695338  1  -1.230301  0  -0.309575  -0.332096  0  3.443953  0
N  N40  1  0.52327560  0.50243865  0.66040937  1  -1.250291  0  -0.309807  -0.331324  0  3.439459  0
N  N41  1  0.47648079  0.49834938  0.33928227  1  -1.242761  0  -0.310018  -0.331526  0  3.440319  0
F  F42  1  0.22435980  0.48876791  0.49115736  1  -0.819536  0  -0.215713  -0.515918  0  1.330739  0
F  F43  1  0.77565701  0.50928429  0.51072848  1  -0.819682  0  -0.215122  -0.516416  0  1.331544  0
F  F44  1  0.00006390  0.58117072  0.41824089  1  -0.826837  0  -0.223529  -0.515547  0  1.144762  0
F  F45  1  0.99977516  0.41679895  0.58395358  1  -0.828811  0  -0.223981  -0.516474  0  1.136529  0
F  F46  1  0.08256773  0.58838625  0.58972149  1  -0.827487  0  -0.251565  -0.541757  0  1.116099  0
F  F47  1  0.91766090  0.40943443  0.41247870  1  -0.827277  0  -0.251757  -0.542079  0  1.115078  0
F  F48  1  0.81694209  0.70080969  0.56887361  1  -0.613432  0  -0.063131  -0.120999  0  1.428362  0
F  F49  1  0.18797688  0.29987082  0.42189927  1  -0.612032  0  -0.063381  -0.120205  0  1.424215  0
F  F50  1  0.81502952  0.57405444  0.70067457  1  -0.611817  0  -0.064132  -0.12144  0  1.427066  0
F  F51  1  0.18070693  0.43511706  0.29867522  1  -0.613837  0  -0.062897  -0.120701  0  1.429583  0
