# generated using pymatgen
data_ZnH12C16SN2O5
_symmetry_space_group_name_H-M   'P 1'
_cell_length_a   7.53758151
_cell_length_b   9.88330899
_cell_length_c   12.71312775
_cell_angle_alpha   65.20510580
_cell_angle_beta   83.63445276
_cell_angle_gamma   70.22031212
_symmetry_Int_Tables_number   1
_chemical_formula_structural   ZnH12C16SN2O5
_chemical_formula_sum   'Zn2 H24 C32 S2 N4 O10'
_cell_volume   808.51315350
_cell_formula_units_Z   2
loop_
 _symmetry_equiv_pos_site_id
 _symmetry_equiv_pos_as_xyz
  1  'x, y, z'
loop_
 _atom_site_type_symbol
 _atom_site_label
 _atom_site_symmetry_multiplicity
 _atom_site_fract_x
 _atom_site_fract_y
 _atom_site_fract_z
 _atom_site_occupancy
 _atom_site_pbe_bader_spin_density
 _atom_site_pbe_cm5_charge
 _atom_site_pbe_ddec_charge
 _atom_site_pbe_ddec_spin_density
 _atom_site_pbe_ddec_sum_bond_order
 _atom_site_pbe_magmom
Zn  Zn0  1  0.55983238  0.05353088  0.79259772  1  0  0.682768  0.805331  0  2.324338  0
Zn  Zn1  1  0.44017202  0.94646430  0.20739628  1  0  0.682693  0.805194  0  2.324417  0
H  H2  1  0.85960321  0.92792352  0.90449095  1  0  0.304906  0.383562  0  0.915446  0
H  H3  1  0.14040340  0.07206875  0.09551324  1  0  0.304884  0.383605  0  0.915309  0
H  H4  1  0.73118917  0.98560573  0.99134541  1  0  0.29221  0.390141  0  0.946401  0
H  H5  1  0.26880204  0.01440584  0.00864527  1  0  0.292216  0.390242  0  0.94633  0
H  H6  1  0.58344926  0.39464513  0.35781258  1  0  0.115983  0.136111  0  0.995459  0
H  H7  1  0.41654289  0.60535999  0.64218940  1  0  0.115973  0.136142  0  0.99545  0
H  H8  1  0.14531737  0.15850117  0.37351812  1  0  0.102709  0.10233  0  1.036567  0
H  H9  1  0.85467094  0.84149699  0.62648377  1  0  0.102729  0.102355  0  1.036734  0
H  H10  1  0.38055397  0.28823971  0.35772184  1  0  0.112241  0.121992  0  1.009735  0
H  H11  1  0.61942844  0.71176700  0.64227234  1  0  0.112281  0.122065  0  1.009667  0
H  H12  1  0.94103888  0.43329695  0.57828691  1  0  0.10572  0.109277  0  1.02202  0
H  H13  1  0.05894709  0.56673064  0.42170720  1  0  0.105683  0.109208  0  1.021991  0
H  H14  1  0.63400769  0.40674302  0.93923084  1  0  0.113274  0.146746  0  0.997024  0
H  H15  1  0.36601323  0.59321981  0.06078204  1  0  0.113286  0.146737  0  0.997174  0
H  H16  1  0.81216690  0.50826283  0.37701182  1  0  0.104344  0.099037  0  1.03606  0
H  H17  1  0.18781441  0.49175299  0.62298524  1  0  0.104379  0.099039  0  1.036192  0
H  H18  1  0.06816027  0.98276473  0.57417450  1  0  0.10727  0.11242  0  1.020584  0
H  H19  1  0.93182643  0.01724753  0.42582411  1  0  0.107235  0.112383  0  1.020664  0
H  H20  1  0.24414230  0.94307424  0.74693174  1  0  0.125474  0.108514  0  0.983549  0
H  H21  1  0.75588111  0.05691890  0.25307834  1  0  0.125423  0.108446  0  0.983583  0
H  H22  1  0.94071285  0.18168019  0.93238941  1  0  0.105437  0.121619  0  1.03529  0
H  H23  1  0.05928866  0.81832537  0.06760562  1  0  0.105452  0.121714  0  1.035173  0
H  H24  1  0.83217160  0.23783296  0.74857001  1  0  0.121146  0.098842  0  1.021198  0
H  H25  1  0.16781879  0.76216946  0.25143838  1  0  0.121158  0.098889  0  1.021161  0
C  C26  1  0.43792382  0.18371416  0.54369078  1  0  0.120137  0.161301  0  3.992745  0
C  C27  1  0.56208661  0.81628899  0.45630604  1  0  0.120134  0.16129  0  3.992302  0
C  C28  1  0.64030425  0.35933408  0.44391463  1  0  -0.074697  -0.150906  0  3.9108  0
C  C29  1  0.35968258  0.64067096  0.55608846  1  0  -0.074725  -0.151004  0  3.910907  0
C  C30  1  0.21298447  0.13914148  0.45244518  1  0  -0.069148  -0.028449  0  3.967874  0
C  C31  1  0.78700521  0.86087651  0.54755472  1  0  -0.069187  -0.028511  0  3.968122  0
C  C32  1  0.58402491  0.25340737  0.54397627  1  0  0.120271  0.161411  0  3.982951  0
C  C33  1  0.41597481  0.74657575  0.45602549  1  0  0.120358  0.161512  0  3.982815  0
C  C34  1  0.34724966  0.21168127  0.44276187  1  0  -0.075913  -0.145853  0  3.912979  0
C  C35  1  0.65276213  0.78831807  0.55724073  1  0  -0.075944  -0.145926  0  3.913053  0
C  C36  1  0.28358051  0.27186730  0.84812828  1  0  0.19305  0.566916  0  4.249517  0
C  C37  1  0.71643200  0.72814441  0.15186117  1  0  0.193008  0.566722  0  4.24936  0
C  C38  1  0.08983315  0.35492653  0.87075863  1  0  -0.036544  -0.151729  0  4.021638  0
C  C39  1  0.91017817  0.64507809  0.12923299  1  0  -0.036629  -0.151759  0  4.021565  0
C  C40  1  0.79930139  0.56762576  0.87181618  1  0  -0.029071  -0.134486  0  3.991622  0
C  C41  1  0.20069767  0.43236510  0.12819200  1  0  -0.029026  -0.134418  0  3.991686  0
C  C42  1  0.84112125  0.38375384  0.56503396  1  0  -0.084373  -0.133451  0  3.97338  0
C  C43  1  0.15887152  0.61626676  0.43496105  1  0  -0.08431  -0.133243  0  3.973389  0
C  C44  1  0.76950611  0.42355784  0.91037677  1  0  -0.091976  -0.096796  0  3.950287  0
C  C45  1  0.23051954  0.57641331  0.08963260  1  0  -0.091965  -0.096746  0  3.950655  0
C  C46  1  0.77072069  0.42462914  0.45516492  1  0  -0.067652  -0.025658  0  3.975675  0
C  C47  1  0.22925995  0.57537482  0.54483647  1  0  -0.067716  -0.025759  0  3.975637  0
C  C48  1  0.17199668  0.04169041  0.56213474  1  0  -0.085479  -0.13593  0  3.979316  0
C  C49  1  0.82800382  0.95832089  0.43786101  1  0  -0.085409  -0.135897  0  3.979279  0
C  C50  1  0.66177910  0.72365186  0.85705187  1  0  0.188567  0.56925  0  4.280354  0
C  C51  1  0.33819778  0.27633760  0.14295952  1  0  0.188572  0.56939  0  4.281069  0
C  C52  1  0.26666734  0.01995614  0.65888783  1  0  0.057024  0.108142  0  3.933791  0
C  C53  1  0.73333369  0.98005035  0.34111089  1  0  0.057023  0.108236  0  3.933724  0
C  C54  1  0.93551085  0.30230422  0.90934355  1  0  -0.103247  -0.122451  0  4.007498  0
C  C55  1  0.06452117  0.69768514  0.09065222  1  0  -0.10321  -0.122617  0  4.007432  0
C  C56  1  0.78202531  0.27521050  0.66047329  1  0  0.057987  0.116914  0  3.917134  0
C  C57  1  0.21797458  0.72478541  0.33952784  1  0  0.057926  0.116746  0  3.917247  0
S  S58  1  0.03041574  0.55335902  0.83640658  1  0  0.094764  0.157382  0  2.971082  0
S  S59  1  0.96957876  0.44664040  0.16359381  1  0  0.094735  0.157318  0  2.970952  0
N  N60  1  0.65834553  0.21116828  0.64960718  1  0  -0.317396  -0.252254  0  3.53061  0
N  N61  1  0.34167011  0.78881852  0.35039183  1  0  -0.317341  -0.252129  0  3.530517  0
N  N62  1  0.39567208  0.08966922  0.64911677  1  0  -0.316784  -0.265548  0  3.522374  0
N  N63  1  0.60433530  0.91033174  0.35087772  1  0  -0.316803  -0.265593  0  3.522125  0
O  O64  1  0.77651075  0.02526097  0.90980670  1  0  -0.561741  -0.716783  0  2.089007  0
O  O65  1  0.22349354  0.97474153  0.09018121  1  0  -0.561735  -0.716902  0  2.088846  0
O  O66  1  0.49317562  0.73983411  0.88106095  1  0  -0.316337  -0.522293  0  2.085987  0
O  O67  1  0.50679785  0.26015108  0.11894403  1  0  -0.316407  -0.522444  0  2.08628  0
O  O68  1  0.32938646  0.11918784  0.87898811  1  0  -0.32965  -0.563446  0  2.327952  0
O  O69  1  0.67064030  0.88081735  0.12101429  1  0  -0.329526  -0.563239  0  2.327867  0
O  O70  1  0.73501699  0.83806870  0.81475046  1  0  -0.351572  -0.605071  0  2.349363  0
O  O71  1  0.26495909  0.16191599  0.18526318  1  0  -0.351507  -0.605046  0  2.349678  0
O  O72  1  0.39238145  0.34848399  0.79672382  1  0  -0.313687  -0.526119  0  2.144491  0
O  O73  1  0.60763787  0.65152077  0.20326574  1  0  -0.313723  -0.526015  0  2.144408  0
