# generated using pymatgen
data_Cd3H22C24(N2O9)2
_symmetry_space_group_name_H-M   'P 1'
_cell_length_a   6.32913454
_cell_length_b   9.67173471
_cell_length_c   12.56759250
_cell_angle_alpha   104.10887504
_cell_angle_beta   98.11314431
_cell_angle_gamma   97.76179842
_symmetry_Int_Tables_number   1
_chemical_formula_structural   Cd3H22C24(N2O9)2
_chemical_formula_sum   'Cd3 H22 C24 N4 O18'
_cell_volume   727.03933526
_cell_formula_units_Z   1
loop_
 _symmetry_equiv_pos_site_id
 _symmetry_equiv_pos_as_xyz
  1  'x, y, z'
loop_
 _atom_site_type_symbol
 _atom_site_label
 _atom_site_symmetry_multiplicity
 _atom_site_fract_x
 _atom_site_fract_y
 _atom_site_fract_z
 _atom_site_occupancy
 _atom_site_hle17_bader_spin_density
 _atom_site_hle17_ddec_charge
 _atom_site_hle17_ddec_spin_density
 _atom_site_hle17_ddec_sum_bond_order
 _atom_site_hle17_magmom
 _atom_site_hse06_10hf_bader_spin_density
 _atom_site_hse06_10hf_ddec_charge
 _atom_site_hse06_10hf_ddec_spin_density
 _atom_site_hse06_10hf_ddec_sum_bond_order
 _atom_site_hse06_10hf_magmom
 _atom_site_hse06_bader_spin_density
 _atom_site_hse06_ddec_charge
 _atom_site_hse06_ddec_spin_density
 _atom_site_hse06_ddec_sum_bond_order
 _atom_site_hse06_magmom
 _atom_site_pbe_bader_spin_density
 _atom_site_pbe_cm5_charge
 _atom_site_pbe_ddec_charge
 _atom_site_pbe_ddec_spin_density
 _atom_site_pbe_ddec_sum_bond_order
 _atom_site_pbe_magmom
Cd  Cd0  1  0.49171041  0.94759993  0.17276660  1  0  1.226163  0  1.562483  0  0  1.039134  0  2.0045  0  0  1.095773  0  1.948575  0  0  0.785257  0.998729  0  2.042808  0
Cd  Cd1  1  0.50828987  0.05239952  0.82723296  1  0  1.226179  0  1.56248  0  0  1.039162  0  2.004491  0  0  1.095799  0  1.948568  0  0  0.78526  0.998758  0  2.042793  0
Cd  Cd2  1  0.50000252  0.49999972  0.49999954  1  0  1.146447  0  1.680715  0  0  0.961178  0  2.119976  0  0  1.012946  0  2.072041  0  0  0.789969  0.923638  0  2.153085  0
H  H3  1  0.05194423  0.60383142  0.33327106  1  0  0.090593  0  0.970015  0  0  0.101304  0  1.033458  0  0  0.104668  0  1.031127  0  0  0.10078  0.09889  0  1.035252  0
H  H4  1  0.94805883  0.39617238  0.66672796  1  0  0.090623  0  0.969996  0  0  0.101367  0  1.033396  0  0  0.104731  0  1.031063  0  0  0.10079  0.098953  0  1.035191  0
H  H5  1  0.22124307  0.34113587  0.97301310  1  0  0.095926  0  0.950698  0  0  0.106253  0  1.013351  0  0  0.109655  0  1.010837  0  0  0.10564  0.103815  0  1.015191  0
H  H6  1  0.77875273  0.65886469  0.02698639  1  0  0.095947  0  0.950711  0  0  0.106275  0  1.013358  0  0  0.109677  0  1.010844  0  0  0.10565  0.103836  0  1.015198  0
H  H7  1  0.50031956  0.53607232  0.10554926  1  0  0.097987  0  0.953867  0  0  0.10824  0  1.018374  0  0  0.110774  0  1.017728  0  0  0.103756  0.106366  0  1.019079  0
H  H8  1  0.49968359  0.46392604  0.89444948  1  0  0.097953  0  0.953946  0  0  0.108214  0  1.018443  0  0  0.110746  0  1.017798  0  0  0.103759  0.10634  0  1.019153  0
H  H9  1  0.77758966  0.40534088  0.20276519  1  0  0.096801  0  0.948519  0  0  0.109074  0  1.006704  0  0  0.112057  0  1.005034  0  0  0.105178  0.106734  0  1.008312  0
H  H10  1  0.22241083  0.59466508  0.79723568  1  0  0.09676  0  0.948509  0  0  0.10906  0  1.006665  0  0  0.112032  0  1.005008  0  0  0.105188  0.106719  0  1.008273  0
H  H11  1  0.35098085  0.21665510  0.22105425  1  0  0.432627  0  0.859384  0  0  0.401169  0  0.922912  0  0  0.411829  0  0.907619  0  0  0.295823  0.393582  0  0.933748  0
H  H12  1  0.64901625  0.78334434  0.77894669  1  0  0.432631  0  0.859382  0  0  0.401166  0  0.922926  0  0  0.411825  0  0.907631  0  0  0.295802  0.393577  0  0.933767  0
H  H13  1  0.47607515  0.20654119  0.11413983  1  0  0.435335  0  0.863148  0  0  0.40326  0  0.9284  0  0  0.414242  0  0.91261  0  0  0.293139  0.395471  0  0.93956  0
H  H14  1  0.52392166  0.79345717  0.88586087  1  0  0.435305  0  0.863196  0  0  0.403229  0  0.928453  0  0  0.41421  0  0.912664  0  0  0.293106  0.395437  0  0.939616  0
H  H15  1  0.91976885  0.92309782  0.10971711  1  0  0.441981  0  0.849247  0  0  0.411873  0  0.909959  0  0  0.423203  0  0.89355  0  0  0.295676  0.403827  0  0.921604  0
H  H16  1  0.08023073  0.07690490  0.89028226  1  0  0.441966  0  0.849261  0  0  0.411865  0  0.909957  0  0  0.423192  0  0.893553  0  0  0.295685  0.403819  0  0.9216  0
H  H17  1  0.94207201  0.03492990  0.22328950  1  0  0.42817  0  0.861362  0  0  0.395705  0  0.93058  0  0  0.406532  0  0.91484  0  0  0.292924  0.387956  0  0.941848  0
H  H18  1  0.05792889  0.96507168  0.77671212  1  0  0.428194  0  0.861327  0  0  0.395736  0  0.930538  0  0  0.406563  0  0.914796  0  0  0.292946  0.387987  0  0.941805  0
H  H19  1  0.77407830  0.30243985  0.40578787  1  0  0.432187  0  0.867823  0  0  0.397751  0  0.935725  0  0  0.409596  0  0.918685  0  0  0.289294  0.388878  0  0.948476  0
H  H20  1  0.22592138  0.69755743  0.59421122  1  0  0.432089  0  0.867923  0  0  0.397644  0  0.935847  0  0  0.40949  0  0.918806  0  0  0.289268  0.388771  0  0.948596  0
H  H21  1  0.91061258  0.41995882  0.51003705  1  0  0.410862  0  0.860332  0  0  0.384923  0  0.933061  0  0  0.393989  0  0.922331  0  0  0.302319  0.378275  0  0.941012  0
H  H22  1  0.08939056  0.58003957  0.48996010  1  0  0.410818  0  0.860319  0  0  0.38486  0  0.933063  0  0  0.393924  0  0.922343  0  0  0.302314  0.378215  0  0.941009  0
H  H23  1  0.84773145  0.05073239  0.58935096  1  0  0.390824  0  0.907505  0  0  0.356993  0  0.989119  0  0  0.369951  0  0.977014  0  0  0.295152  0.34803  0  0.997318  0
H  H24  1  0.15226945  0.94926918  0.41065145  1  0  0.39086  0  0.907473  0  0  0.357031  0  0.989088  0  0  0.36999  0  0.976982  0  0  0.295164  0.348068  0  0.997289  0
C  C25  1  0.81518092  0.24737602  0.99642229  1  0  0.655832  0  3.901164  0  0  0.600507  0  4.193563  0  0  0.635203  0  4.1881  0  0  0.207081  0.577019  0  4.196328  0
C  C26  1  0.18481677  0.75262562  0.00357753  1  0  0.655791  0  3.901206  0  0  0.600448  0  4.193586  0  0  0.635141  0  4.188128  0  0  0.20709  0.576954  0  4.196354  0
C  C27  1  0.45527471  0.69399366  0.31320475  1  0  0.364936  0  3.73784  0  0  0.333866  0  4.005229  0  0  0.349088  0  4.020295  0  0  0.221714  0.323456  0  3.994618  0
C  C28  1  0.54472776  0.30600794  0.68679539  1  0  0.365066  0  3.737943  0  0  0.33399  0  4.005372  0  0  0.34921  0  4.020436  0  0  0.221764  0.323574  0  3.99477  0
C  C29  1  0.73578089  0.05622939  0.43537669  1  0  0.634356  0  3.869596  0  0  0.574871  0  4.180863  0  0  0.609222  0  4.173137  0  0  0.221292  0.551796  0  4.185333  0
C  C30  1  0.26421681  0.94377224  0.56462313  1  0  0.634197  0  3.869689  0  0  0.574742  0  4.180964  0  0  0.60909  0  4.173242  0  0  0.221256  0.551662  0  4.185439  0
C  C31  1  0.29522111  0.58132152  0.22896007  1  0  0.008867  0  3.769633  0  0  0.025827  0  4.007169  0  0  0.025041  0  4.029238  0  0  -0.002838  0.026489  0  3.992006  0
C  C32  1  0.70478075  0.41867793  0.77103880  1  0  0.008917  0  3.769639  0  0  0.025815  0  4.007284  0  0  0.02503  0  4.029353  0  0  -0.002837  0.026482  0  3.992122  0
C  C33  1  0.09056370  0.54355326  0.25536990  1  0  -0.086468  0  3.713705  0  0  -0.109017  0  3.963826  0  0  -0.112039  0  3.983512  0  0  -0.085588  -0.107003  0  3.950342  0
C  C34  1  0.90943179  0.45644623  0.74462855  1  0  -0.086574  0  3.713511  0  0  -0.109129  0  3.963665  0  0  -0.112152  0  3.983345  0  0  -0.0856  -0.107114  0  3.950176  0
C  C35  1  0.98234185  0.36033913  0.07937473  1  0  -0.061118  0  3.747353  0  0  -0.036606  0  3.97856  0  0  -0.044636  0  4.001282  0  0  -0.013435  -0.031289  0  3.962924  0
C  C36  1  0.01765902  0.63966248  0.92062530  1  0  -0.061173  0  3.747409  0  0  -0.036566  0  3.978475  0  0  -0.044594  0  4.001194  0  0  -0.013426  -0.031243  0  3.962833  0
C  C37  1  0.18620792  0.39839872  0.05271403  1  0  -0.048473  0  3.721442  0  0  -0.074942  0  3.973328  0  0  -0.073982  0  3.99302  0  0  -0.077534  -0.075431  0  3.959777  0
C  C38  1  0.81379078  0.60160071  0.94728702  1  0  -0.048506  0  3.721443  0  0  -0.074997  0  3.973299  0  0  -0.074038  0  3.992991  0  0  -0.077553  -0.075483  0  3.959747  0
C  C39  1  0.34178391  0.50814409  0.12663855  1  0  -0.099199  0  3.72821  0  0  -0.121732  0  3.981517  0  0  -0.124935  0  4.002121  0  0  -0.086875  -0.119616  0  3.967603  0
C  C40  1  0.65821766  0.49185427  0.87336088  1  0  -0.09919  0  3.728355  0  0  -0.121713  0  3.981683  0  0  -0.124916  0  4.002286  0  0  -0.08689  -0.119605  0  3.967781  0
C  C41  1  0.64998615  0.90138776  0.40979843  1  0  -0.017432  0  3.799805  0  0  -0.025336  0  4.062117  0  0  -0.028638  0  4.083714  0  0  0.065227  -0.023536  0  4.047828  0
C  C42  1  0.35001444  0.09861275  0.59020215  1  0  -0.017279  0  3.799778  0  0  -0.02523  0  4.062153  0  0  -0.028521  0  4.083735  0  0  0.065259  -0.023428  0  4.047864  0
C  C43  1  0.65085495  0.80505039  0.47699382  1  0  0.002889  0  3.782275  0  0  -0.006827  0  4.041404  0  0  -0.006856  0  4.06103  0  0  0.069978  -0.006866  0  4.028143  0
C  C44  1  0.34914056  0.19494906  0.52300702  1  0  0.002829  0  3.782252  0  0  -0.006857  0  4.041399  0  0  -0.006888  0  4.061023  0  0  0.069957  -0.006896  0  4.028139  0
C  C45  1  0.74090084  0.82442666  0.59590595  1  0  0.642216  0  3.901528  0  0  0.583494  0  4.209169  0  0  0.618015  0  4.200172  0  0  0.211206  0.560135  0  4.214586  0
C  C46  1  0.25909755  0.17557170  0.40409407  1  0  0.642167  0  3.901627  0  0  0.583437  0  4.209289  0  0  0.617958  0  4.20029  0  0  0.211158  0.560082  0  4.214701  0
C  C47  1  0.93557779  0.43399489  0.18144116  1  0  -0.046808  0  3.713237  0  0  -0.071035  0  3.960111  0  0  -0.070103  0  3.979505  0  0  -0.076901  -0.071367  0  3.946951  0
C  C48  1  0.06442211  0.56600888  0.81856003  1  0  -0.046657  0  3.713061  0  0  -0.070946  0  3.959952  0  0  -0.070002  0  3.979345  0  0  -0.076886  -0.071277  0  3.946789  0
N  N49  1  0.52846767  0.82885317  0.30677117  1  0  -0.457243  0  3.186812  0  0  -0.389957  0  3.465773  0  0  -0.411525  0  3.481002  0  0  -0.350598  -0.37489  0  3.455142  0
N  N50  1  0.47153351  0.17114954  0.69322831  1  0  -0.457362  0  3.186925  0  0  -0.39006  0  3.465918  0  0  -0.411632  0  3.481143  0  0  -0.350639  -0.374993  0  3.455292  0
N  N51  1  0.52863496  0.67601831  0.41449585  1  0  -0.456926  0  3.233053  0  0  -0.383965  0  3.503094  0  0  -0.406893  0  3.520335  0  0  -0.361231  -0.367454  0  3.490503  0
N  N52  1  0.47136405  0.32398219  0.58550623  1  0  -0.456975  0  3.233153  0  0  -0.384023  0  3.503227  0  0  -0.406956  0  3.520478  0  0  -0.36124  -0.367506  0  3.490635  0
O  O53  1  0.38124506  0.15257246  0.15262191  1  0  -0.834639  0  1.886357  0  0  -0.764266  0  2.081552  0  0  -0.788316  0  2.047273  0  0  -0.582502  -0.747352  0  2.105416  0
O  O54  1  0.61875173  0.84742591  0.84737800  1  0  -0.834623  0  1.886411  0  0  -0.764232  0  2.081565  0  0  -0.788282  0  2.047292  0  0  -0.582439  -0.747318  0  2.105424  0
O  O55  1  0.81307853  0.41016457  0.44004005  1  0  -0.82536  0  1.85215  0  0  -0.767536  0  2.055298  0  0  -0.788839  0  2.025864  0  0  -0.582506  -0.752221  0  2.076892  0
O  O56  1  0.18692432  0.58983271  0.55995846  1  0  -0.82524  0  1.852175  0  0  -0.767362  0  2.055357  0  0  -0.788668  0  2.025928  0  0  -0.58247  -0.752052  0  2.076951  0
O  O57  1  0.84403105  0.99752662  0.15010741  1  0  -0.832585  0  1.840786  0  0  -0.76676  0  2.034478  0  0  -0.789543  0  1.998705  0  0  -0.58708  -0.750713  0  2.059451  0
O  O58  1  0.15597014  0.00247606  0.84989365  1  0  -0.832596  0  1.840776  0  0  -0.766785  0  2.034482  0  0  -0.789568  0  1.99871  0  0  -0.587118  -0.750743  0  2.059456  0
O  O59  1  0.87065289  0.17369604  0.90915792  1  0  -0.651118  0  2.022025  0  0  -0.580024  0  2.257275  0  0  -0.610139  0  2.247729  0  0  -0.31418  -0.55909  0  2.263166  0
O  O60  1  0.12934639  0.82630560  0.09084121  1  0  -0.651103  0  2.022084  0  0  -0.579998  0  2.257312  0  0  -0.610113  0  2.247767  0  0  -0.31419  -0.559061  0  2.263204  0
O  O61  1  0.61708151  0.23018122  0.00978403  1  0  -0.673407  0  1.996687  0  0  -0.602491  0  2.238798  0  0  -0.632944  0  2.229053  0  0  -0.320465  -0.581079  0  2.244698  0
O  O62  1  0.38291588  0.76981933  0.99021556  1  0  -0.673368  0  1.996644  0  0  -0.602468  0  2.238771  0  0  -0.63292  0  2.229027  0  0  -0.320464  -0.581051  0  2.244669  0
O  O63  1  0.84343661  0.12355624  0.53594872  1  0  -0.542566  0  2.115226  0  0  -0.489844  0  2.346747  0  0  -0.513645  0  2.33724  0  0  -0.317954  -0.473211  0  2.352534  0
O  O64  1  0.15656530  0.87644314  0.46405412  1  0  -0.542511  0  2.115238  0  0  -0.489823  0  2.346812  0  0  -0.513626  0  2.337307  0  0  -0.317944  -0.47318  0  2.352583  0
O  O65  1  0.70263050  0.12341712  0.36242208  1  0  -0.600319  0  2.042608  0  0  -0.531301  0  2.270827  0  0  -0.55724  0  2.261405  0  0  -0.286123  -0.51298  0  2.277043  0
O  O66  1  0.29736820  0.87658231  0.63757896  1  0  -0.600213  0  2.042527  0  0  -0.531235  0  2.270779  0  0  -0.557169  0  2.261349  0  0  -0.28609  -0.512901  0  2.276986  0
O  O67  1  0.84359731  0.95078784  0.65304640  1  0  -0.605895  0  2.035049  0  0  -0.539176  0  2.256731  0  0  -0.564649  0  2.246438  0  0  -0.299819  -0.521613  0  2.263467  0
O  O68  1  0.15640080  0.04920941  0.34695496  1  0  -0.605904  0  2.035108  0  0  -0.539195  0  2.256843  0  0  -0.56467  0  2.246549  0  0  -0.2998  -0.521638  0  2.263581  0
O  O69  1  0.70878717  0.71788795  0.63756789  1  0  -0.62226  0  1.977464  0  0  -0.55403  0  2.212689  0  0  -0.580394  0  2.201902  0  0  -0.310813  -0.535578  0  2.219436  0
O  O70  1  0.29121250  0.28210934  0.36243120  1  0  -0.622204  0  1.977489  0  0  -0.553997  0  2.21275  0  0  -0.580361  0  2.201962  0  0  -0.310795  -0.535543  0  2.219492  0
