# generated using pymatgen
data_MgH16C16(NO5)2
_symmetry_space_group_name_H-M   'P 1'
_cell_length_a   7.05963741
_cell_length_b   9.97563493
_cell_length_c   11.08766707
_cell_angle_alpha   90.00046040
_cell_angle_beta   92.83766295
_cell_angle_gamma   89.99920845
_symmetry_Int_Tables_number   1
_chemical_formula_structural   MgH16C16(NO5)2
_chemical_formula_sum   'Mg2 H32 C32 N4 O20'
_cell_volume   779.88445837
_cell_formula_units_Z   2
loop_
 _symmetry_equiv_pos_site_id
 _symmetry_equiv_pos_as_xyz
  1  'x, y, z'
loop_
 _atom_site_type_symbol
 _atom_site_label
 _atom_site_symmetry_multiplicity
 _atom_site_fract_x
 _atom_site_fract_y
 _atom_site_fract_z
 _atom_site_occupancy
 _atom_site_pbe_bader_spin_density
 _atom_site_pbe_cm5_charge
 _atom_site_pbe_ddec_charge
 _atom_site_pbe_ddec_spin_density
 _atom_site_pbe_ddec_sum_bond_order
 _atom_site_pbe_magmom
Mg  Mg0  1  0.25000531  0.72106993  0.74999931  1  0  0.807244  1.431297  0  1.346264  0
Mg  Mg1  1  0.74999730  0.27892998  0.25000004  1  0  0.807224  1.431304  0  1.34627  0
H  H2  1  0.16575903  0.03340882  0.96904803  1  0  0.113756  0.131263  0  1.015579  0
H  H3  1  0.33423601  0.03340706  0.53094657  1  0  0.11375  0.131236  0  1.015629  0
H  H4  1  0.83423934  0.96658609  0.03095115  1  0  0.113752  0.131203  0  1.015604  0
H  H5  1  0.66576375  0.96659286  0.46905356  1  0  0.113743  0.131209  0  1.015654  0
H  H6  1  0.13306588  0.46326821  0.93845467  1  0  0.116099  0.129335  0  1.019249  0
H  H7  1  0.36692963  0.46326639  0.56154409  1  0  0.116119  0.129426  0  1.019228  0
H  H8  1  0.86693248  0.53672670  0.06154451  1  0  0.116106  0.129401  0  1.019201  0
H  H9  1  0.63306437  0.53673353  0.43845942  1  0  0.11607  0.129369  0  1.019247  0
H  H10  1  0.91946493  0.21250503  0.64618795  1  0  0.105177  0.099988  0  1.056807  0
H  H11  1  0.58053906  0.21250763  0.85380794  1  0  0.105177  0.099996  0  1.056698  0
H  H12  1  0.08053058  0.78749188  0.35381201  1  0  0.105188  0.100008  0  1.056778  0
H  H13  1  0.41946068  0.78749329  0.14619310  1  0  0.10519  0.100019  0  1.056752  0
H  H14  1  0.16477660  0.64990083  0.49433357  1  0  0.296088  0.400047  0  0.934468  0
H  H15  1  0.33522875  0.64990385  0.00566297  1  0  0.296116  0.400088  0  0.934424  0
H  H16  1  0.83522030  0.35010309  0.50566735  1  0  0.296068  0.39998  0  0.934555  0
H  H17  1  0.66477674  0.35009807  0.99433470  1  0  0.296089  0.400068  0  0.934451  0
H  H18  1  0.26459586  0.79011309  0.52236915  1  0  0.317416  0.39889  0  0.905732  0
H  H19  1  0.23541634  0.79012125  0.97762915  1  0  0.317418  0.398927  0  0.905716  0
H  H20  1  0.73540534  0.20988984  0.47763015  1  0  0.317418  0.398918  0  0.905718  0
H  H21  1  0.76458767  0.20988068  0.02237116  1  0  0.317393  0.398896  0  0.905747  0
H  H22  1  0.32871023  0.17906314  0.11018204  1  0  0.301993  0.308378  0  0.969002  0
H  H23  1  0.17127820  0.17905914  0.38981748  1  0  0.301952  0.308246  0  0.969093  0
H  H24  1  0.67128951  0.82093578  0.88981900  1  0  0.301986  0.308345  0  0.969043  0
H  H25  1  0.82872021  0.82094279  0.61017990  1  0  0.301917  0.308279  0  0.969082  0
H  H26  1  0.13201019  0.26402529  0.14867557  1  0  0.315972  0.315215  0  0.925653  0
H  H27  1  0.36798806  0.26400596  0.35132228  1  0  0.315936  0.315109  0  0.925718  0
H  H28  1  0.86799101  0.73597964  0.85132372  1  0  0.315983  0.315196  0  0.92564  0
H  H29  1  0.63201163  0.73599797  0.64868056  1  0  0.315959  0.31515  0  0.925634  0
H  H30  1  0.31199850  0.35524443  0.09656598  1  0  0.3074  0.307314  0  0.952848  0
H  H31  1  0.18800241  0.35524439  0.40342816  1  0  0.30738  0.307239  0  0.95289  0
H  H32  1  0.68800420  0.64475449  0.90342977  1  0  0.307386  0.307281  0  0.952901  0
H  H33  1  0.81199589  0.64475754  0.59657372  1  0  0.307398  0.307285  0  0.952906  0
C  C34  1  0.00050249  0.97414176  0.74528324  1  0  0.218934  0.603006  0  4.187536  0
C  C35  1  0.49949938  0.97413832  0.75470790  1  0  0.218956  0.602996  0  4.187441  0
C  C36  1  0.99950156  0.02585615  0.25471527  1  0  0.218872  0.602923  0  4.187665  0
C  C37  1  0.50050184  0.02586060  0.24529049  1  0  0.219001  0.603146  0  4.187279  0
C  C38  1  0.03350901  0.10955929  0.80241038  1  0  -0.01491  -0.028576  0  3.969107  0
C  C39  1  0.46649585  0.10956169  0.69758971  1  0  -0.014867  -0.028489  0  3.969103  0
C  C40  1  0.96648364  0.89044163  0.19759036  1  0  -0.014893  -0.028556  0  3.969042  0
C  C41  1  0.53350241  0.89044024  0.30241398  1  0  -0.014912  -0.028685  0  3.96912  0
C  C42  1  0.12039140  0.12192550  0.91812562  1  0  -0.074409  -0.172447  0  3.898756  0
C  C43  1  0.37960339  0.12192473  0.58187054  1  0  -0.074466  -0.172533  0  3.898637  0
C  C44  1  0.87960701  0.87807041  0.08187175  1  0  -0.074427  -0.172377  0  3.898738  0
C  C45  1  0.62039214  0.87807519  0.41812852  1  0  -0.074466  -0.172469  0  3.89879  0
C  C46  1  0.15272126  0.24942319  0.96614371  1  0  0.087271  0.250505  0  3.93549  0
C  C47  1  0.34727813  0.24942835  0.53385811  1  0  0.087283  0.250531  0  3.935607  0
C  C48  1  0.84727568  0.75057672  0.03385540  1  0  0.087273  0.250447  0  3.935435  0
C  C49  1  0.65272013  0.75057558  0.46614558  1  0  0.087322  0.250588  0  3.935468  0
C  C50  1  0.10432187  0.36415570  0.90085692  1  0  -0.077407  -0.174601  0  3.908534  0
C  C51  1  0.39567280  0.36415793  0.59913475  1  0  -0.07749  -0.17481  0  3.908604  0
C  C52  1  0.89567653  0.63583821  0.09914046  1  0  -0.077424  -0.174657  0  3.908421  0
C  C53  1  0.60432270  0.63583998  0.40086521  1  0  -0.077426  -0.174715  0  3.908482  0
C  C54  1  0.01980521  0.35203507  0.78450282  1  0  -0.017673  -0.036232  0  3.998584  0
C  C55  1  0.48020086  0.35203148  0.71549644  1  0  -0.017565  -0.036132  0  3.998524  0
C  C56  1  0.98019169  0.64796284  0.21549810  1  0  -0.017723  -0.036354  0  3.998642  0
C  C57  1  0.51979881  0.64796544  0.28450730  1  0  -0.017607  -0.036167  0  3.99859  0
C  C58  1  0.98283643  0.22479105  0.73670956  1  0  -0.073201  -0.101641  0  3.941108  0
C  C59  1  0.51716593  0.22479649  0.76328544  1  0  -0.073206  -0.101617  0  3.941413  0
C  C60  1  0.01716051  0.77520586  0.26328955  1  0  -0.073142  -0.101576  0  3.941001  0
C  C61  1  0.48283101  0.77520343  0.23671367  1  0  -0.0732  -0.101605  0  3.94115  0
C  C62  1  0.97475413  0.47734735  0.71409809  1  0  0.222296  0.610744  0  4.1703  0
C  C63  1  0.52525630  0.47734489  0.78589915  1  0  0.222361  0.610771  0  4.170294  0
C  C64  1  0.02524972  0.52265759  0.28590943  1  0  0.222353  0.610889  0  4.170151  0
C  C65  1  0.47474351  0.52265904  0.21409918  1  0  0.222415  0.610861  0  4.170239  0
N  N66  1  0.23884010  0.26367965  0.08745478  1  0  -0.594755  -0.479478  0  3.403691  0
N  N67  1  0.26115668  0.26367596  0.41254571  1  0  -0.594674  -0.479146  0  3.403722  0
N  N68  1  0.76115687  0.73632027  0.91254344  1  0  -0.594748  -0.479372  0  3.403709  0
N  N69  1  0.73884304  0.73632597  0.58745622  1  0  -0.594711  -0.479343  0  3.403833  0
O  O70  1  0.90861253  0.96881985  0.64489892  1  0  -0.308976  -0.53026  0  2.18144  0
O  O71  1  0.59139450  0.96881734  0.85509827  1  0  -0.309028  -0.530341  0  2.181217  0
O  O72  1  0.09137887  0.03118208  0.35509456  1  0  -0.308959  -0.530231  0  2.181671  0
O  O73  1  0.40861231  0.03118459  0.14490396  1  0  -0.309003  -0.53031  0  2.181291  0
O  O74  1  0.06905917  0.87178829  0.80284168  1  0  -0.371384  -0.689868  0  2.290906  0
O  O75  1  0.43094306  0.87178603  0.69715412  1  0  -0.371372  -0.689819  0  2.291055  0
O  O76  1  0.93093792  0.12821263  0.19715113  1  0  -0.371342  -0.689846  0  2.290814  0
O  O77  1  0.56905949  0.12821590  0.30284794  1  0  -0.371418  -0.689909  0  2.290848  0
O  O78  1  0.88081343  0.47106607  0.61353796  1  0  -0.304436  -0.546605  0  2.199111  0
O  O79  1  0.61918989  0.47105453  0.88646435  1  0  -0.304496  -0.546688  0  2.199175  0
O  O80  1  0.11917784  0.52893686  0.38646092  1  0  -0.304464  -0.546698  0  2.19944  0
O  O81  1  0.38081552  0.52894338  0.11353692  1  0  -0.304491  -0.546694  0  2.199259  0
O  O82  1  0.03236044  0.58791964  0.76129762  1  0  -0.374077  -0.688608  0  2.300204  0
O  O83  1  0.46765547  0.58792038  0.73870201  1  0  -0.374122  -0.68861  0  2.300232  0
O  O84  1  0.96765213  0.41207125  0.23870123  1  0  -0.374097  -0.688658  0  2.299823  0
O  O85  1  0.53234855  0.41207853  0.26129830  1  0  -0.374163  -0.688685  0  2.300112  0
O  O86  1  0.19066662  0.71936423  0.55802984  1  0  -0.594784  -0.82197  0  2.061017  0
O  O87  1  0.30934264  0.71936433  0.94196780  1  0  -0.594773  -0.822006  0  2.061002  0
O  O88  1  0.80933454  0.28064170  0.44197125  1  0  -0.594771  -0.82195  0  2.061088  0
O  O89  1  0.69066283  0.28063660  0.05803076  1  0  -0.594741  -0.821974  0  2.060986  0
