# generated using pymatgen
data_GdH6C7SO8
_symmetry_space_group_name_H-M   'P 1'
_cell_length_a   9.72902054
_cell_length_b   10.91848166
_cell_length_c   12.49660031
_cell_angle_alpha   105.64699538
_cell_angle_beta   89.99832477
_cell_angle_gamma   116.45783156
_symmetry_Int_Tables_number   1
_chemical_formula_structural   GdH6C7SO8
_chemical_formula_sum   'Gd4 H24 C28 S4 O32'
_cell_volume   1133.22229213
_cell_formula_units_Z   4
loop_
 _symmetry_equiv_pos_site_id
 _symmetry_equiv_pos_as_xyz
  1  'x, y, z'
loop_
 _atom_site_type_symbol
 _atom_site_label
 _atom_site_symmetry_multiplicity
 _atom_site_fract_x
 _atom_site_fract_y
 _atom_site_fract_z
 _atom_site_occupancy
 _atom_site_pbe_bader_spin_density
 _atom_site_pbe_cm5_charge
 _atom_site_pbe_ddec_charge
 _atom_site_pbe_ddec_spin_density
 _atom_site_pbe_ddec_sum_bond_order
 _atom_site_pbe_magmom
Gd  Gd0  1  0.97678931  0.99999128  0.74999970  1  0  1.479231  2.041648  0  2.275931  0
Gd  Gd1  1  0.02320901  0.00000735  0.25000154  1  0  1.479213  2.041583  0  2.275869  0
Gd  Gd2  1  0.47968293  0.00004922  0.75003661  1  0  1.460293  2.13363  0  2.11459  0
Gd  Gd3  1  0.52031871  0.99995314  0.24996246  1  0  1.460266  2.133611  0  2.114676  0
H  H4  1  0.17642935  0.42089463  0.90747253  1  0  0.112276  0.12665  0  0.994116  0
H  H5  1  0.75548522  0.57927200  0.59262431  1  0  0.112504  0.126907  0  0.993842  0
H  H6  1  0.82357224  0.57910557  0.09252524  1  0  0.112276  0.126658  0  0.994098  0
H  H7  1  0.24451174  0.42072716  0.40737881  1  0  0.112503  0.126909  0  0.99375  0
H  H8  1  0.31693867  0.69401519  0.90696034  1  0  0.113173  0.128704  0  1.004996  0
H  H9  1  0.62304818  0.30615253  0.59314627  1  0  0.113137  0.128487  0  1.004888  0
H  H10  1  0.68306601  0.30598501  0.09303663  1  0  0.11316  0.128674  0  1.005061  0
H  H11  1  0.37695035  0.69384770  0.40685791  1  0  0.11315  0.128511  0  1.004849  0
H  H12  1  0.62537986  0.05802997  0.99456235  1  0  0.31899  0.419905  0  0.892628  0
H  H13  1  0.56735987  0.94201811  0.50550216  1  0  0.318666  0.419251  0  0.893361  0
H  H14  1  0.37462281  0.94197239  0.00543672  1  0  0.318983  0.419884  0  0.892664  0
H  H15  1  0.43264123  0.05798318  0.49449746  1  0  0.318673  0.419255  0  0.893366  0
H  H16  1  0.67611099  0.95717337  0.90849114  1  0  0.309944  0.407663  0  0.921844  0
H  H17  1  0.71896461  0.04293428  0.59155853  1  0  0.309642  0.407864  0  0.921717  0
H  H18  1  0.32388958  0.04282684  0.09150823  1  0  0.309944  0.407628  0  0.921885  0
H  H19  1  0.28103547  0.95706701  0.40844109  1  0  0.30967  0.407908  0  0.92165  0
H  H20  1  0.34712876  0.16748552  0.91865628  1  0  0.306301  0.405937  0  0.919551  0
H  H21  1  0.17973209  0.83258736  0.58137534  1  0  0.306714  0.406688  0  0.918631  0
H  H22  1  0.65287391  0.83251684  0.08134439  1  0  0.30631  0.405964  0  0.919509  0
H  H23  1  0.82026848  0.16741285  0.41862323  1  0  0.306708  0.406657  0  0.918663  0
H  H24  1  0.51272840  0.28306159  0.90292969  1  0  0.333913  0.418375  0  0.86038  0
H  H25  1  0.22969153  0.71698842  0.59712370  1  0  0.333528  0.417818  0  0.861111  0
H  H26  1  0.48727480  0.71694185  0.09707043  1  0  0.333923  0.418362  0  0.860476  0
H  H27  1  0.77031633  0.28301608  0.40287507  1  0  0.333501  0.417716  0  0.86126  0
C  C28  1  0.85121484  0.25673601  0.82179023  1  0  0.231809  0.669522  0  4.18933  0
C  C29  1  0.59440407  0.74333196  0.67828240  1  0  0.231474  0.66905  0  4.190396  0
C  C30  1  0.14878166  0.74326635  0.17820804  1  0  0.231783  0.6694  0  4.18963  0
C  C31  1  0.40559029  0.25666611  0.32171887  1  0  0.231408  0.669017  0  4.190407  0
C  C32  1  0.96269691  0.40940992  0.84287819  1  0  -0.018042  -0.123441  0  3.949617  0
C  C33  1  0.55325260  0.59066993  0.65726042  1  0  -0.017361  -0.123048  0  3.950483  0
C  C34  1  0.03730473  0.59059243  0.15712088  1  0  -0.018036  -0.123401  0  3.949744  0
C  C35  1  0.44674436  0.40932922  0.34274190  1  0  -0.017327  -0.12295  0  3.95038  0
C  C36  1  0.11972772  0.47728469  0.88276527  1  0  -0.092001  -0.109607  0  4.007703  0
C  C37  1  0.64243533  0.52284162  0.61735373  1  0  -0.092025  -0.109703  0  4.008977  0
C  C38  1  0.88027491  0.52271553  0.11723490  1  0  -0.091995  -0.10963  0  4.007711  0
C  C39  1  0.35756270  0.47715968  0.38264989  1  0  -0.092027  -0.109742  0  4.008914  0
C  C40  1  0.19345755  0.62132147  0.88253351  1  0  -0.091546  -0.104914  0  3.988335  0
C  C41  1  0.57223628  0.37883180  0.61762935  1  0  -0.091936  -0.104634  0  3.988305  0
C  C42  1  0.80654503  0.37867659  0.11746376  1  0  -0.091544  -0.104864  0  3.988346  0
C  C43  1  0.42776175  0.62116950  0.38237267  1  0  -0.091991  -0.104719  0  3.988269  0
C  C44  1  0.09141935  0.66086460  0.84168959  1  0  -0.027483  -0.140152  0  3.970967  0
C  C45  1  0.43065429  0.33924635  0.65849422  1  0  -0.027762  -0.140808  0  3.972174  0
C  C46  1  0.90858431  0.33913561  0.15830817  1  0  -0.027436  -0.140119  0  3.970926  0
C  C47  1  0.56934213  0.66075173  0.34150785  1  0  -0.027725  -0.140744  0  3.971989  0
C  C48  1  0.13083569  0.79687585  0.81791633  1  0  0.220875  0.6359  0  4.240234  0
C  C49  1  0.33404268  0.20319523  0.68217961  1  0  0.219865  0.632452  0  4.244006  0
C  C50  1  0.86916953  0.20312544  0.18208409  1  0  0.220875  0.635919  0  4.240205  0
C  C51  1  0.66595990  0.79680283  0.31781846  1  0  0.219802  0.632363  0  4.244118  0
C  C52  1  0.91127916  0.94853355  0.99172765  1  0  0.231135  0.51439  0  4.176475  0
C  C53  1  0.96272726  0.05146470  0.50827330  1  0  0.230759  0.514011  0  4.177797  0
C  C54  1  0.08872549  0.05146453  0.00827603  1  0  0.231203  0.514453  0  4.176746  0
C  C55  1  0.03727331  0.94853552  0.49172767  1  0  0.230801  0.514086  0  4.177634  0
S  S56  1  0.90527540  0.52235656  0.80644148  1  0  0.112269  0.185588  0  2.908094  0
S  S57  1  0.38294772  0.47771000  0.69374627  1  0  0.112371  0.186252  0  2.908175  0
S  S58  1  0.09472727  0.47764580  0.19355678  1  0  0.112245  0.185563  0  2.908108  0
S  S59  1  0.61704821  0.52228915  0.30625525  1  0  0.112314  0.186209  0  2.908062  0
O  O60  1  0.70907056  0.21856421  0.79207945  1  0  -0.397484  -0.666779  0  2.273349  0
O  O61  1  0.49035200  0.78145045  0.70793476  1  0  -0.397503  -0.666738  0  2.272225  0
O  O62  1  0.29093063  0.78144137  0.20792197  1  0  -0.397434  -0.666738  0  2.273284  0
O  O63  1  0.50964285  0.21854654  0.29206225  1  0  -0.397506  -0.66679  0  2.272158  0
O  O64  1  0.90388045  0.17225123  0.83226880  1  0  -0.410827  -0.678962  0  2.330037  0
O  O65  1  0.73152115  0.82784751  0.66782001  1  0  -0.410679  -0.678405  0  2.331747  0
O  O66  1  0.09611494  0.82774685  0.16773167  1  0  -0.41088  -0.678928  0  2.330289  0
O  O67  1  0.26847635  0.17215272  0.33218336  1  0  -0.410627  -0.678367  0  2.33181  0
O  O68  1  0.02484384  0.81106304  0.77148264  1  0  -0.382772  -0.65663  0  2.293574  0
O  O69  1  0.21379016  0.18894716  0.72854889  1  0  -0.382502  -0.655058  0  2.292973  0
O  O70  1  0.97515521  0.18893824  0.22851698  1  0  -0.382718  -0.65658  0  2.293701  0
O  O71  1  0.78620465  0.81104769  0.27145083  1  0  -0.382411  -0.654961  0  2.293235  0
O  O72  1  0.27306483  0.89305159  0.84432046  1  0  -0.403798  -0.686985  0  2.347678  0
O  O73  1  0.38008617  0.10702120  0.65575689  1  0  -0.403339  -0.684708  0  2.347704  0
O  O74  1  0.72693314  0.10694755  0.15567786  1  0  -0.403859  -0.687107  0  2.347664  0
O  O75  1  0.61991185  0.89298009  0.34424273  1  0  -0.403349  -0.684681  0  2.347556  0
O  O76  1  0.85682287  0.89942736  0.07177246  1  0  -0.345624  -0.583922  0  2.339894  0
O  O77  1  0.95737164  0.10055640  0.42821503  1  0  -0.345799  -0.584264  0  2.340863  0
O  O78  1  0.14318127  0.10057177  0.92822265  1  0  -0.345667  -0.583991  0  2.339671  0
O  O79  1  0.04262729  0.89943847  0.57179029  1  0  -0.345793  -0.584297  0  2.340714  0
O  O80  1  0.83435327  0.92260533  0.89980605  1  0  -0.343828  -0.574744  0  2.359135  0
O  O81  1  0.91175161  0.07742854  0.60019271  1  0  -0.34327  -0.574479  0  2.360135  0
O  O82  1  0.16564461  0.07738950  0.10018726  1  0  -0.343798  -0.574659  0  2.35962  0
O  O83  1  0.08825000  0.92257169  0.39981227  1  0  -0.343334  -0.574544  0  2.36015  0
O  O84  1  0.60148417  0.99682847  0.91648812  1  0  -0.636688  -0.852912  0  2.103029  0
O  O85  1  0.60467637  0.00325278  0.58356558  1  0  -0.63589  -0.852414  0  2.103398  0
O  O86  1  0.39851743  0.00317175  0.08351045  1  0  -0.636671  -0.852843  0  2.103114  0
O  O87  1  0.39532630  0.99674958  0.41643349  1  0  -0.635925  -0.852469  0  2.10336  0
O  O88  1  0.45415703  0.18492952  0.90495306  1  0  -0.61034  -0.821524  0  2.064514  0
O  O89  1  0.26929068  0.81511616  0.59507952  1  0  -0.61036  -0.821847  0  2.064084  0
O  O90  1  0.54584515  0.81507391  0.09504786  1  0  -0.610354  -0.821528  0  2.064665  0
O  O91  1  0.73071252  0.18488726  0.40491819  1  0  -0.610315  -0.821689  0  2.064239  0
