# generated using pymatgen
data_Zn2H7C11N3O7
_symmetry_space_group_name_H-M   'P 1'
_cell_length_a   8.75644934
_cell_length_b   9.75369202
_cell_length_c   15.33994020
_cell_angle_alpha   89.99990776
_cell_angle_beta   94.89643077
_cell_angle_gamma   89.99990460
_symmetry_Int_Tables_number   1
_chemical_formula_structural   Zn2H7C11N3O7
_chemical_formula_sum   'Zn8 H28 C44 N12 O28'
_cell_volume   1305.36792691
_cell_formula_units_Z   4
loop_
 _symmetry_equiv_pos_site_id
 _symmetry_equiv_pos_as_xyz
  1  'x, y, z'
loop_
 _atom_site_type_symbol
 _atom_site_label
 _atom_site_symmetry_multiplicity
 _atom_site_fract_x
 _atom_site_fract_y
 _atom_site_fract_z
 _atom_site_occupancy
 _atom_site_hle17_bader_spin_density
 _atom_site_hle17_ddec_charge
 _atom_site_hle17_ddec_spin_density
 _atom_site_hle17_ddec_sum_bond_order
 _atom_site_hle17_magmom
 _atom_site_hse06_10hf_bader_spin_density
 _atom_site_hse06_10hf_ddec_charge
 _atom_site_hse06_10hf_ddec_spin_density
 _atom_site_hse06_10hf_ddec_sum_bond_order
 _atom_site_hse06_10hf_magmom
 _atom_site_hse06_bader_spin_density
 _atom_site_hse06_ddec_charge
 _atom_site_hse06_ddec_spin_density
 _atom_site_hse06_ddec_sum_bond_order
 _atom_site_hse06_magmom
 _atom_site_pbe_bader_spin_density
 _atom_site_pbe_cm5_charge
 _atom_site_pbe_ddec_charge
 _atom_site_pbe_ddec_spin_density
 _atom_site_pbe_ddec_sum_bond_order
 _atom_site_pbe_magmom
Zn  Zn0  1  0.44485225  0.97914667  0.14091059  1  0  1.026758  0  1.906879  0  0  0.84345  0  2.379095  0  0  0.884948  0  2.329409  0  0  0.726552  0.814623  0  2.412962  0
Zn  Zn1  1  0.55514814  0.47914590  0.35908950  1  0  1.02676  0  1.906851  0  0  0.843458  0  2.379061  0  0  0.884958  0  2.329375  0  0  0.726551  0.814632  0  2.412929  0
Zn  Zn2  1  0.55514713  0.02085317  0.85908862  1  0  1.026769  0  1.906889  0  0  0.843444  0  2.379116  0  0  0.884943  0  2.329431  0  0  0.726566  0.814618  0  2.412984  0
Zn  Zn3  1  0.44485354  0.52085393  0.64091177  1  0  1.026758  0  1.906869  0  0  0.843451  0  2.379086  0  0  0.884952  0  2.329401  0  0  0.726576  0.814625  0  2.412952  0
Zn  Zn4  1  0.08220590  0.07145775  0.20394851  1  0  1.136602  0  1.703898  0  0  0.948336  0  2.177762  0  0  0.99978  0  2.114381  0  0  0.708429  0.911548  0  2.222184  0
Zn  Zn5  1  0.91779417  0.57145742  0.29605263  1  0  1.136592  0  1.703907  0  0  0.948337  0  2.17776  0  0  0.999787  0  2.114382  0  0  0.708434  0.91155  0  2.222183  0
Zn  Zn6  1  0.91779349  0.92854311  0.79605200  1  0  1.136641  0  1.703866  0  0  0.948383  0  2.177723  0  0  0.999831  0  2.114342  0  0  0.708443  0.911597  0  2.22215  0
Zn  Zn7  1  0.08220636  0.42854344  0.70394793  1  0  1.136633  0  1.703876  0  0  0.948371  0  2.17774  0  0  0.999822  0  2.114358  0  0  0.708437  0.911585  0  2.222166  0
H  H8  1  0.04272848  0.16246661  0.03274010  1  0  0.443919  0  0.85211  0  0  0.409937  0  0.919275  0  0  0.420575  0  0.904131  0  0  0.294964  0.402383  0  0.930021  0
H  H9  1  0.95727255  0.66246784  0.46726034  1  0  0.443947  0  0.852098  0  0  0.40997  0  0.919254  0  0  0.420607  0  0.904111  0  0  0.294991  0.402417  0  0.929998  0
H  H10  1  0.95727090  0.83753322  0.96725975  1  0  0.443916  0  0.852111  0  0  0.409938  0  0.919272  0  0  0.420574  0  0.90413  0  0  0.294976  0.402384  0  0.930018  0
H  H11  1  0.04273028  0.33753404  0.53274033  1  0  0.443933  0  0.852099  0  0  0.409952  0  0.919264  0  0  0.420589  0  0.904121  0  0  0.294987  0.402399  0  0.93001  0
H  H12  1  0.03077201  0.28460079  0.10752703  1  0  0.439837  0  0.86391  0  0  0.407572  0  0.929374  0  0  0.418656  0  0.913531  0  0  0.293166  0.399577  0  0.940733  0
H  H13  1  0.96923106  0.78460116  0.39247338  1  0  0.439844  0  0.863903  0  0  0.407583  0  0.929357  0  0  0.418667  0  0.913515  0  0  0.29317  0.399587  0  0.940718  0
H  H14  1  0.96922852  0.71540007  0.89247288  1  0  0.439872  0  0.863863  0  0  0.407605  0  0.929328  0  0  0.41869  0  0.913486  0  0  0.293183  0.39961  0  0.940688  0
H  H15  1  0.03077291  0.21540072  0.60752734  1  0  0.439871  0  0.863862  0  0  0.4076  0  0.929337  0  0  0.418684  0  0.913494  0  0  0.293182  0.399605  0  0.940696  0
H  H16  1  0.58461407  0.17266982  0.61058853  1  0  0.095552  0  0.955384  0  0  0.105397  0  1.016711  0  0  0.108496  0  1.014868  0  0  0.105387  0.103065  0  1.01811  0
H  H17  1  0.41538515  0.67267102  0.88941163  1  0  0.095472  0  0.955438  0  0  0.105338  0  1.016748  0  0  0.108436  0  1.014907  0  0  0.105359  0.103004  0  1.018149  0
H  H18  1  0.41538531  0.82732694  0.38941132  1  0  0.095548  0  0.95541  0  0  0.105396  0  1.016733  0  0  0.108494  0  1.014891  0  0  0.105392  0.103063  0  1.018133  0
H  H19  1  0.58461423  0.32732983  0.11058823  1  0  0.095525  0  0.955409  0  0  0.105363  0  1.016748  0  0  0.108461  0  1.014907  0  0  0.105365  0.103031  0  1.018147  0
H  H20  1  0.62883322  0.92831395  0.57260255  1  0  0.091981  0  0.96038  0  0  0.101417  0  1.019837  0  0  0.103709  0  1.020535  0  0  0.100789  0.099525  0  1.020049  0
H  H21  1  0.37116779  0.42831533  0.92739939  1  0  0.092015  0  0.960399  0  0  0.10145  0  1.019859  0  0  0.103742  0  1.020556  0  0  0.100806  0.099559  0  1.020065  0
H  H22  1  0.37117075  0.07168383  0.42739752  1  0  0.09198  0  0.960431  0  0  0.101413  0  1.019894  0  0  0.103706  0  1.020591  0  0  0.100812  0.099517  0  1.020118  0
H  H23  1  0.62883275  0.57168552  0.07260248  1  0  0.091973  0  0.960399  0  0  0.10141  0  1.019857  0  0  0.103702  0  1.020556  0  0  0.100789  0.099518  0  1.020068  0
H  H24  1  0.78228320  0.87282218  0.44851225  1  0  0.101567  0  0.959925  0  0  0.113779  0  1.017921  0  0  0.117633  0  1.014703  0  0  0.107772  0.110739  0  1.020713  0
H  H25  1  0.21771740  0.37282167  0.05148860  1  0  0.101587  0  0.959911  0  0  0.113766  0  1.017936  0  0  0.117619  0  1.014723  0  0  0.107767  0.110726  0  1.020729  0
H  H26  1  0.21771961  0.12717867  0.55148711  1  0  0.101572  0  0.959952  0  0  0.113786  0  1.017945  0  0  0.11764  0  1.014728  0  0  0.107775  0.110746  0  1.020737  0
H  H27  1  0.78228313  0.62717918  0.94851261  1  0  0.101543  0  0.959959  0  0  0.113757  0  1.017953  0  0  0.117612  0  1.014735  0  0  0.107762  0.110717  0  1.020744  0
H  H28  1  0.64106871  0.20855510  0.25151606  1  0  0.120041  0  0.938324  0  0  0.124772  0  1.005768  0  0  0.127762  0  1.00205  0  0  0.142468  0.122487  0  1.008492  0
H  H29  1  0.35893222  0.70855572  0.24848302  1  0  0.120039  0  0.938282  0  0  0.124775  0  1.005723  0  0  0.127765  0  1.002005  0  0  0.142477  0.122489  0  1.008449  0
H  H30  1  0.35893182  0.79144473  0.74848320  1  0  0.120026  0  0.938305  0  0  0.124757  0  1.005754  0  0  0.127748  0  1.002034  0  0  0.142455  0.122472  0  1.008479  0
H  H31  1  0.64106831  0.29144411  0.75151689  1  0  0.120048  0  0.938306  0  0  0.124776  0  1.005758  0  0  0.127765  0  1.002039  0  0  0.142474  0.122489  0  1.008485  0
H  H32  1  0.21912400  0.32976376  0.34164259  1  0  0.117176  0  0.936395  0  0  0.123356  0  1.00191  0  0  0.126293  0  0.998251  0  0  0.141541  0.121086  0  1.004773  0
H  H33  1  0.78087783  0.82976501  0.15835837  1  0  0.117228  0  0.936334  0  0  0.123402  0  1.001851  0  0  0.126339  0  0.998192  0  0  0.141542  0.121131  0  1.004717  0
H  H34  1  0.78087653  0.67023607  0.65835797  1  0  0.117236  0  0.936343  0  0  0.123409  0  1.001861  0  0  0.126346  0  0.998201  0  0  0.141552  0.121137  0  1.004727  0
H  H35  1  0.21912384  0.17023687  0.84164225  1  0  0.117132  0  0.936469  0  0  0.123341  0  1.001944  0  0  0.126278  0  0.998284  0  0  0.141517  0.12107  0  1.004808  0
C  C36  1  0.82402459  0.08394143  0.41676650  1  0  -0.083189  0  3.726625  0  0  -0.068049  0  3.966788  0  0  -0.076144  0  3.989129  0  0  -0.015142  -0.063013  0  3.951917  0
C  C37  1  0.17597315  0.58394172  0.08323256  1  0  -0.083238  0  3.726682  0  0  -0.068127  0  3.966878  0  0  -0.076221  0  3.989216  0  0  -0.015167  -0.06309  0  3.952011  0
C  C38  1  0.17597364  0.91605635  0.58323199  1  0  -0.083124  0  3.726659  0  0  -0.06803  0  3.966879  0  0  -0.076124  0  3.98922  0  0  -0.015119  -0.062996  0  3.952009  0
C  C39  1  0.82402509  0.41605606  0.91676789  1  0  -0.08318  0  3.726652  0  0  -0.068031  0  3.966836  0  0  -0.076126  0  3.989178  0  0  -0.015127  -0.062999  0  3.951968  0
C  C40  1  0.79664908  0.22254637  0.43708847  1  0  -0.06885  0  3.676933  0  0  -0.063847  0  3.913457  0  0  -0.064896  0  3.932551  0  0  -0.001436  -0.063086  0  3.900754  0
C  C41  1  0.20334954  0.72254668  0.06291179  1  0  -0.068758  0  3.67695  0  0  -0.063761  0  3.913463  0  0  -0.064811  0  3.93256  0  0  -0.001395  -0.063003  0  3.900761  0
C  C42  1  0.20334916  0.77745346  0.56291198  1  0  -0.068833  0  3.676952  0  0  -0.063861  0  3.913509  0  0  -0.06491  0  3.932603  0  0  -0.001444  -0.0631  0  3.900806  0
C  C43  1  0.79665099  0.27745213  0.93708746  1  0  -0.068761  0  3.676848  0  0  -0.063838  0  3.913426  0  0  -0.064887  0  3.93252  0  0  -0.001416  -0.063078  0  3.900726  0
C  C44  1  0.70868951  0.25332957  0.50759189  1  0  -0.1049  0  3.734169  0  0  -0.089309  0  3.972047  0  0  -0.097469  0  3.993418  0  0  -0.017372  -0.084259  0  3.957855  0
C  C45  1  0.29130725  0.75332762  0.99240807  1  0  -0.104996  0  3.734366  0  0  -0.08937  0  3.972173  0  0  -0.097529  0  3.993544  0  0  -0.017382  -0.08432  0  3.957979  0
C  C46  1  0.29130757  0.74667231  0.49240720  1  0  -0.104872  0  3.734158  0  0  -0.089298  0  3.972031  0  0  -0.097456  0  3.993401  0  0  -0.017352  -0.084251  0  3.957838  0
C  C47  1  0.70868983  0.24667118  0.00759102  1  0  -0.104947  0  3.734198  0  0  -0.089328  0  3.972051  0  0  -0.097487  0  3.993422  0  0  -0.017387  -0.084283  0  3.957858  0
C  C48  1  0.65112489  0.14635877  0.55622500  1  0  -0.026318  0  3.698395  0  0  -0.053041  0  3.948279  0  0  -0.050236  0  3.964937  0  0  -0.071825  -0.054513  0  3.936915  0
C  C49  1  0.34887438  0.64635789  0.94377454  1  0  -0.02615  0  3.698356  0  0  -0.052894  0  3.948209  0  0  -0.05009  0  3.964867  0  0  -0.071782  -0.054368  0  3.936844  0
C  C50  1  0.34887563  0.85364106  0.44377360  1  0  -0.026306  0  3.698448  0  0  -0.053016  0  3.948318  0  0  -0.050212  0  3.964976  0  0  -0.071827  -0.054487  0  3.936955  0
C  C51  1  0.65112501  0.35364091  0.05622532  1  0  -0.026266  0  3.698366  0  0  -0.052986  0  3.948235  0  0  -0.05018  0  3.964891  0  0  -0.071804  -0.054459  0  3.936871  0
C  C52  1  0.67654995  0.01024417  0.53522263  1  0  -0.059693  0  3.768829  0  0  -0.073814  0  4.028517  0  0  -0.076797  0  4.048449  0  0  -0.086799  -0.072008  0  4.015158  0
C  C53  1  0.32344960  0.51024430  0.96477837  1  0  -0.059797  0  3.768866  0  0  -0.073926  0  4.028557  0  0  -0.07691  0  4.048487  0  0  -0.086841  -0.07212  0  4.015199  0
C  C54  1  0.32345058  0.98975464  0.46477728  1  0  -0.059703  0  3.768896  0  0  -0.073834  0  4.02859  0  0  -0.076817  0  4.048523  0  0  -0.086842  -0.072031  0  4.015229  0
C  C55  1  0.67654979  0.48975553  0.03522214  1  0  -0.059674  0  3.768822  0  0  -0.073798  0  4.028509  0  0  -0.076781  0  4.048442  0  0  -0.086789  -0.071992  0  4.01515  0
C  C56  1  0.76254767  0.97931108  0.46578483  1  0  -0.048196  0  3.706463  0  0  -0.076093  0  3.955834  0  0  -0.074336  0  3.973688  0  0  -0.076843  -0.07698  0  3.943819  0
C  C57  1  0.23745272  0.47931059  0.03421590  1  0  -0.048211  0  3.706464  0  0  -0.076073  0  3.955841  0  0  -0.074313  0  3.973693  0  0  -0.076849  -0.076962  0  3.943834  0
C  C58  1  0.23745286  0.02068772  0.53421573  1  0  -0.048213  0  3.706489  0  0  -0.076094  0  3.955868  0  0  -0.074337  0  3.973723  0  0  -0.076827  -0.076981  0  3.943856  0
C  C59  1  0.76254781  0.52068924  0.96578466  1  0  -0.048182  0  3.706484  0  0  -0.076082  0  3.955853  0  0  -0.074324  0  3.973707  0  0  -0.076842  -0.076969  0  3.94384  0
C  C60  1  0.91851233  0.04364081  0.34382567  1  0  0.638628  0  3.922528  0  0  0.585707  0  4.216837  0  0  0.619622  0  4.211271  0  0  0.206601  0.562766  0  4.219693  0
C  C61  1  0.08148779  0.54364106  0.15617420  1  0  0.638665  0  3.922461  0  0  0.58576  0  4.216758  0  0  0.619674  0  4.21119  0  0  0.206615  0.56282  0  4.219617  0
C  C62  1  0.08148705  0.95635902  0.65617288  1  0  0.638582  0  3.922531  0  0  0.585689  0  4.216817  0  0  0.619603  0  4.211248  0  0  0.206598  0.56275  0  4.219676  0
C  C63  1  0.91851274  0.45635980  0.84382702  1  0  0.638546  0  3.922606  0  0  0.58563  0  4.216904  0  0  0.619544  0  4.211338  0  0  0.206575  0.562691  0  4.219761  0
C  C64  1  0.87756363  0.33702610  0.39301262  1  0  0.680262  0  3.875685  0  0  0.620143  0  4.179494  0  0  0.655011  0  4.171027  0  0  0.218434  0.596096  0  4.185177  0
C  C65  1  0.12243476  0.83702641  0.10698751  1  0  0.680277  0  3.875685  0  0  0.620166  0  4.179493  0  0  0.655027  0  4.171027  0  0  0.218449  0.59612  0  4.185177  0
C  C66  1  0.12243347  0.66297578  0.60698843  1  0  0.680173  0  3.875734  0  0  0.620133  0  4.179448  0  0  0.655001  0  4.170975  0  0  0.218401  0.596086  0  4.185133  0
C  C67  1  0.87756577  0.16297445  0.89301109  1  0  0.680207  0  3.875679  0  0  0.620164  0  4.179399  0  0  0.655032  0  4.170928  0  0  0.218433  0.596117  0  4.185088  0
C  C68  1  0.66986149  0.39701977  0.53380286  1  0  0.67746  0  3.859394  0  0  0.622726  0  4.153442  0  0  0.65833  0  4.144013  0  0  0.220693  0.598465  0  4.159272  0
C  C69  1  0.33013727  0.89701988  0.96619770  1  0  0.677527  0  3.859415  0  0  0.62282  0  4.153403  0  0  0.658424  0  4.143972  0  0  0.220718  0.598561  0  4.15923  0
C  C70  1  0.33013674  0.60298006  0.46619759  1  0  0.677483  0  3.859461  0  0  0.6228  0  4.153441  0  0  0.658403  0  4.144011  0  0  0.220714  0.598547  0  4.159261  0
C  C71  1  0.66986211  0.10297995  0.03380216  1  0  0.677455  0  3.85946  0  0  0.622742  0  4.153457  0  0  0.658346  0  4.144028  0  0  0.22071  0.598494  0  4.159267  0
C  C72  1  0.52068499  0.21300887  0.26341175  1  0  0.219471  0  3.682313  0  0  0.161215  0  3.952977  0  0  0.174783  0  3.966277  0  0  0.151511  0.152559  0  3.943605  0
C  C73  1  0.47931593  0.71300832  0.23658798  1  0  0.219514  0  3.682243  0  0  0.161255  0  3.952902  0  0  0.174823  0  3.966201  0  0  0.151522  0.152598  0  3.943535  0
C  C74  1  0.47931553  0.78699198  0.73658750  1  0  0.219495  0  3.68231  0  0  0.161245  0  3.952965  0  0  0.174813  0  3.966263  0  0  0.151525  0.152589  0  3.943595  0
C  C75  1  0.52068575  0.28699151  0.76341329  1  0  0.219478  0  3.682231  0  0  0.161213  0  3.952882  0  0  0.174782  0  3.966181  0  0  0.151509  0.152557  0  3.943516  0
C  C76  1  0.30558983  0.27484197  0.30861943  1  0  0.233522  0  3.650758  0  0  0.177741  0  3.917087  0  0  0.191504  0  3.929917  0  0  0.158675  0.168529  0  3.908529  0
C  C77  1  0.69441097  0.77484327  0.19138088  1  0  0.233467  0  3.650699  0  0  0.177697  0  3.917018  0  0  0.191461  0  3.929847  0  0  0.158673  0.168483  0  3.908461  0
C  C78  1  0.69441071  0.72515786  0.69138113  1  0  0.233489  0  3.650694  0  0  0.177713  0  3.917021  0  0  0.191476  0  3.929849  0  0  0.158662  0.1685  0  3.908468  0
C  C79  1  0.30558956  0.22515862  0.80862033  1  0  0.233572  0  3.650779  0  0  0.177768  0  3.917092  0  0  0.191532  0  3.929921  0  0  0.158696  0.168555  0  3.908538  0
N  N80  1  0.27768405  0.16492368  0.25858028  1  0  -0.287294  0  3.208486  0  0  -0.21942  0  3.499169  0  0  -0.237497  0  3.514413  0  0  -0.247527  -0.207268  0  3.488676  0
N  N81  1  0.72231697  0.66492378  0.24142016  1  0  -0.287256  0  3.208349  0  0  -0.219406  0  3.499062  0  0  -0.237483  0  3.514304  0  0  -0.247505  -0.207255  0  3.488571  0
N  N82  1  0.72231648  0.83507718  0.74142029  1  0  -0.287336  0  3.208462  0  0  -0.219465  0  3.499147  0  0  -0.237543  0  3.51439  0  0  -0.247529  -0.207315  0  3.488659  0
N  N83  1  0.27768356  0.33507708  0.75858040  1  0  -0.287325  0  3.208434  0  0  -0.219465  0  3.499139  0  0  -0.237542  0  3.514382  0  0  -0.247535  -0.207314  0  3.488649  0
N  N84  1  0.41476204  0.12590557  0.22942472  1  0  -0.283709  0  3.247119  0  0  -0.210188  0  3.536819  0  0  -0.227258  0  3.551863  0  0  -0.258072  -0.198608  0  3.526235  0
N  N85  1  0.58523907  0.62590682  0.27057642  1  0  -0.283754  0  3.247067  0  0  -0.210227  0  3.536775  0  0  -0.227297  0  3.551819  0  0  -0.258088  -0.198649  0  3.526194  0
N  N86  1  0.58523849  0.87409426  0.77057585  1  0  -0.28367  0  3.247195  0  0  -0.210142  0  3.536877  0  0  -0.227212  0  3.551921  0  0  -0.25806  -0.198564  0  3.526297  0
N  N87  1  0.41476146  0.37409403  0.72942414  1  0  -0.28367  0  3.247067  0  0  -0.210139  0  3.536755  0  0  -0.227209  0  3.551798  0  0  -0.25806  -0.19856  0  3.526174  0
N  N88  1  0.45678799  0.30782014  0.31338968  1  0  -0.438334  0  3.288072  0  0  -0.355449  0  3.59581  0  0  -0.378748  0  3.605527  0  0  -0.363553  -0.339798  0  3.588826  0
N  N89  1  0.54321389  0.80782167  0.18661065  1  0  -0.438367  0  3.28812  0  0  -0.355484  0  3.595868  0  0  -0.378782  0  3.605582  0  0  -0.363587  -0.339833  0  3.588886  0
N  N90  1  0.54321368  0.69217970  0.68661028  1  0  -0.43837  0  3.288131  0  0  -0.3555  0  3.595887  0  0  -0.378798  0  3.605602  0  0  -0.363575  -0.339849  0  3.588904  0
N  N91  1  0.45678664  0.19218022  0.81339057  1  0  -0.438387  0  3.288138  0  0  -0.355481  0  3.595859  0  0  -0.378778  0  3.605572  0  0  -0.363572  -0.339831  0  3.588879  0
O  O92  1  0.92757143  0.13207509  0.28173753  1  0  -0.624416  0  2.038007  0  0  -0.545535  0  2.301073  0  0  -0.575502  0  2.286385  0  0  -0.312246  -0.524213  0  2.310528  0
O  O93  1  0.07242966  0.63207417  0.21826295  1  0  -0.624435  0  2.038015  0  0  -0.545557  0  2.301073  0  0  -0.575527  0  2.286389  0  0  -0.312239  -0.524223  0  2.310493  0
O  O94  1  0.07242565  0.86792679  0.71826092  1  0  -0.624409  0  2.038091  0  0  -0.545533  0  2.301152  0  0  -0.575503  0  2.286465  0  0  -0.312239  -0.524201  0  2.31058  0
O  O95  1  0.92757432  0.36792669  0.78173908  1  0  -0.624388  0  2.038076  0  0  -0.54551  0  2.301148  0  0  -0.575481  0  2.286464  0  0  -0.312238  -0.524179  0  2.310576  0
O  O96  1  0.98494352  0.92923465  0.34362656  1  0  -0.616127  0  1.993309  0  0  -0.56089  0  2.221772  0  0  -0.5861  0  2.212618  0  0  -0.304112  -0.542853  0  2.227261  0
O  O97  1  0.01505697  0.42923418  0.15637358  1  0  -0.616137  0  1.993258  0  0  -0.560901  0  2.221714  0  0  -0.586111  0  2.212558  0  0  -0.304123  -0.542867  0  2.227204  0
O  O98  1  0.01505816  0.07076621  0.65637405  1  0  -0.616157  0  1.993296  0  0  -0.560907  0  2.22173  0  0  -0.586116  0  2.212573  0  0  -0.304138  -0.542874  0  2.227221  0
O  O99  1  0.98494356  0.57076668  0.84362698  1  0  -0.616146  0  1.993346  0  0  -0.560893  0  2.221781  0  0  -0.586101  0  2.212625  0  0  -0.304128  -0.542859  0  2.22727  0
O  O100  1  0.80392762  0.40338777  0.32953480  1  0  -0.665481  0  2.122093  0  0  -0.583292  0  2.412029  0  0  -0.613517  0  2.392747  0  0  -0.310223  -0.562044  0  2.425067  0
O  O101  1  0.19607178  0.90338678  0.17046597  1  0  -0.665486  0  2.122102  0  0  -0.583309  0  2.412031  0  0  -0.613521  0  2.392752  0  0  -0.310225  -0.562056  0  2.425054  0
O  O102  1  0.19607291  0.59661411  0.67046642  1  0  -0.665484  0  2.122112  0  0  -0.58332  0  2.411999  0  0  -0.61355  0  2.392737  0  0  -0.31023  -0.562072  0  2.425034  0
O  O103  1  0.80392531  0.09661510  0.82953313  1  0  -0.665499  0  2.122109  0  0  -0.583351  0  2.412034  0  0  -0.613568  0  2.392748  0  0  -0.310266  -0.562095  0  2.425054  0
O  O104  1  0.01138791  0.36664216  0.42269346  1  0  -0.588166  0  1.936454  0  0  -0.529556  0  2.151829  0  0  -0.554877  0  2.142733  0  0  -0.288742  -0.511679  0  2.157872  0
O  O105  1  0.98861156  0.86664227  0.07730670  1  0  -0.588187  0  1.936477  0  0  -0.529589  0  2.151865  0  0  -0.554907  0  2.142769  0  0  -0.288761  -0.511714  0  2.157908  0
O  O106  1  0.98861147  0.63335562  0.57730574  1  0  -0.588135  0  1.936442  0  0  -0.529552  0  2.151786  0  0  -0.554876  0  2.142693  0  0  -0.288723  -0.511671  0  2.157816  0
O  O107  1  0.01138554  0.13335346  0.92269631  1  0  -0.588139  0  1.936458  0  0  -0.529546  0  2.151788  0  0  -0.554872  0  2.142695  0  0  -0.288708  -0.511665  0  2.157824  0
O  O108  1  0.65975833  0.49390521  0.47715307  1  0  -0.633297  0  2.083591  0  0  -0.559098  0  2.351367  0  0  -0.58547  0  2.334918  0  0  -0.328045  -0.540744  0  2.362645  0
O  O109  1  0.34024202  0.99390541  0.02284700  1  0  -0.633303  0  2.083617  0  0  -0.559112  0  2.351377  0  0  -0.585488  0  2.334936  0  0  -0.328034  -0.540759  0  2.362654  0
O  O110  1  0.34024220  0.50609462  0.52284749  1  0  -0.633301  0  2.08359  0  0  -0.559114  0  2.351343  0  0  -0.585487  0  2.334896  0  0  -0.328046  -0.540763  0  2.362617  0
O  O111  1  0.65975735  0.00609442  0.97715221  1  0  -0.633285  0  2.083611  0  0  -0.559078  0  2.351359  0  0  -0.585455  0  2.334922  0  0  -0.328047  -0.540729  0  2.362631  0
O  O112  1  0.64337768  0.41578489  0.61285115  1  0  -0.621262  0  2.056575  0  0  -0.554563  0  2.319351  0  0  -0.581193  0  2.306669  0  0  -0.30972  -0.535896  0  2.327401  0
O  O113  1  0.35662219  0.91578619  0.88714879  1  0  -0.621321  0  2.056572  0  0  -0.554649  0  2.319364  0  0  -0.581277  0  2.30668  0  0  -0.309754  -0.535982  0  2.327412  0
O  O114  1  0.35662285  0.58421289  0.38714941  1  0  -0.621309  0  2.05662  0  0  -0.554636  0  2.319397  0  0  -0.581261  0  2.306711  0  0  -0.309747  -0.53597  0  2.327443  0
O  O115  1  0.64337605  0.08421364  0.11285101  1  0  -0.62129  0  2.056634  0  0  -0.554593  0  2.319384  0  0  -0.581221  0  2.3067  0  0  -0.309727  -0.535929  0  2.327426  0
O  O116  1  0.05494930  0.18577462  0.09623200  1  0  -0.873519  0  1.940351  0  0  -0.803372  0  2.17548  0  0  -0.827032  0  2.136554  0  0  -0.585324  -0.786455  0  2.203018  0
O  O117  1  0.94505741  0.68577397  0.40376869  1  0  -0.873543  0  1.940362  0  0  -0.803413  0  2.175522  0  0  -0.827075  0  2.136596  0  0  -0.585346  -0.786499  0  2.203062  0
O  O118  1  0.94505008  0.81422624  0.90376786  1  0  -0.873547  0  1.940314  0  0  -0.803409  0  2.175458  0  0  -0.827071  0  2.136531  0  0  -0.585352  -0.786496  0  2.202998  0
O  O119  1  0.05494885  0.31422688  0.59623214  1  0  -0.873567  0  1.9403  0  0  -0.803429  0  2.175447  0  0  -0.82709  0  2.13652  0  0  -0.585367  -0.786514  0  2.202987  0
