# generated using pymatgen
data_ZnH10C26(NO2)7
_symmetry_space_group_name_H-M   'P 1'
_cell_length_a   15.11608397
_cell_length_b   15.83960610
_cell_length_c   19.34904594
_cell_angle_alpha   87.19477492
_cell_angle_beta   75.45261078
_cell_angle_gamma   77.99850432
_symmetry_Int_Tables_number   1
_chemical_formula_structural   ZnH10C26(NO2)7
_chemical_formula_sum   'Zn2 H20 C52 N14 O28'
_cell_volume   4386.22725149
_cell_formula_units_Z   2
loop_
 _symmetry_equiv_pos_site_id
 _symmetry_equiv_pos_as_xyz
  1  'x, y, z'
loop_
 _atom_site_type_symbol
 _atom_site_label
 _atom_site_symmetry_multiplicity
 _atom_site_fract_x
 _atom_site_fract_y
 _atom_site_fract_z
 _atom_site_occupancy
 _atom_site_pbe_bader_charge
 _atom_site_pbe_bader_spin_density
 _atom_site_pbe_cm5_charge
 _atom_site_pbe_ddec_charge
 _atom_site_pbe_ddec_spin_density
 _atom_site_pbe_ddec_sum_bond_order
 _atom_site_pbe_magmom
Zn  Zn0  1  0.59750402  0.50412017  0.47371050  1  1.302587  0  0.676365  0.847426  0  2.369986  0
Zn  Zn1  1  0.40803482  0.48796359  0.50627774  1  1.297457  0  0.680027  0.845299  0  2.401078  0
H  H2  1  0.62471689  0.43095212  0.68665854  1  0.128627  0  0.110183  0.122781  0  1.006532  0
H  H3  1  0.37488003  0.57560049  0.29693944  1  0.123137  0  0.108935  0.114521  0  1.00754  0
H  H4  1  0.63028367  0.43122090  0.81513171  1  0.124576  0  0.111617  0.110246  0  1.007567  0
H  H5  1  0.36812581  0.58131717  0.16886402  1  0.113389  0  0.113742  0.113719  0  1.001806  0
H  H6  1  0.34100432  0.56003649  0.87174869  1  0.118886  0  0.121834  0.132674  0  0.993184  0
H  H7  1  0.64463170  0.42223253  0.11196320  1  0.131748  0  0.121173  0.13112  0  1.000226  0
H  H8  1  0.27332157  0.74261834  0.57517452  1  0.127684  0  0.112311  0.13432  0  1.001117  0
H  H9  1  0.74181247  0.24293215  0.47676884  1  0.104817  0  0.10926  0.12931  0  1.023684  0
H  H10  1  0.63937000  0.84495957  0.53015037  1  0.121476  0  0.118966  0.129594  0  1.007889  0
H  H11  1  0.37175495  0.14048608  0.57963816  1  0.130646  0  0.120395  0.13405  0  1.004728  0
H  H12  1  0.98023813  0.38508516  0.67204539  1  0.164343  0  0.123633  0.138348  0  1.004484  0
H  H13  1  0.96623493  0.72378751  0.41827151  1  0.138377  0  0.12478  0.139538  0  0.983249  0
H  H14  1  0.66753307  0.65614925  0.41028616  1  0.232062  0  0.144415  0.142608  0  0.988478  0
H  H15  1  0.31561042  0.37975773  0.61207633  1  0.207389  0  0.14297  0.133757  0  0.992277  0
H  H16  1  0.85734213  0.44837904  0.61454466  1  0.114078  0  0.117885  0.119872  0  1.015021  0
H  H17  1  0.09607119  0.64615900  0.46225157  1  0.114048  0  0.119138  0.122032  0  1.014458  0
H  H18  1  0.59533304  0.82511435  0.44529459  1  0.611705  0  0.317549  0.352993  0  0.935383  0
H  H19  1  0.41824371  0.16924480  0.47970159  1  0.608145  0  0.324957  0.353778  0  0.907914  0
H  H20  1  0.85211980  0.11911356  0.46540807  1  0.607733  0  0.349962  0.382789  0  0.847154  0
H  H21  1  0.16279388  0.86360436  0.61634480  1  0.611734  0  0.349916  0.380411  0  0.848439  0
C  C22  1  0.57176632  0.33304506  0.48522150  1  1.5917  0  0.221631  0.619532  0  4.126632  0
C  C23  1  0.43992368  0.65973109  0.50679244  1  1.596772  0  0.219876  0.617293  0  4.129113  0
C  C24  1  0.48210153  0.49345938  0.62925403  1  1.613736  0  0.217036  0.601374  0  4.181318  0
C  C25  1  0.51295318  0.49687644  0.35406495  1  1.600814  0  0.220061  0.605818  0  4.175286  0
C  C26  1  0.56335825  0.45894579  0.72788419  1  0.005162  0  -0.074109  -0.07521  0  3.946931  0
C  C27  1  0.43330654  0.54216265  0.25584073  1  1.8e-05  0  -0.072804  -0.071268  0  3.941619  0
C  C28  1  0.56639123  0.45902022  0.79898647  1  -0.023184  0  -0.072195  -0.095682  0  3.944683  0
C  C29  1  0.42956597  0.54547207  0.18472113  1  -0.046904  0  -0.06952  -0.089942  0  3.932088  0
C  C30  1  0.48680356  0.49653636  0.85133767  1  -0.032182  0  0.001584  0.032448  0  3.984539  0
C  C31  1  0.50554806  0.50229699  0.13217531  1  -0.008656  0  -6.9e-05  0.026216  0  3.993196  0
C  C32  1  0.40332862  0.53131152  0.83165602  1  0.093691  0  -0.066837  -0.148239  0  3.908739  0
C  C33  1  0.58516474  0.45598365  0.15201213  1  0.05948  0  -0.066581  -0.146373  0  3.917761  0
C  C34  1  0.40244835  0.53045395  0.76012949  1  0.111317  0  0.088079  0.064603  0  3.916882  0
C  C35  1  0.58645648  0.45263558  0.22354322  1  0.193526  0  0.087393  0.062921  0  3.919911  0
C  C36  1  0.48164212  0.49561790  0.70680185  1  0.053761  0  0.002897  -0.047996  0  3.912607  0
C  C37  1  0.51177909  0.49560148  0.27675195  1  0.028928  0  0.005702  -0.044175  0  3.904584  0
C  C38  1  0.50172466  0.50465280  0.05701162  1  0.981556  0  0.246112  0.253134  0  3.973853  0
C  C39  1  0.49224224  0.50129990  0.92577437  1  0.985506  0  0.24538  0.251409  0  3.976001  0
C  C40  1  0.59847659  0.23706219  0.48941062  1  0.001347  0  -0.019653  -0.102341  0  3.945456  0
C  C41  1  0.41365938  0.75359983  0.52548859  1  0.062785  0  -0.020655  -0.103186  0  3.946917  0
C  C42  1  0.72284488  0.11166231  0.49088752  1  0.494519  0  0.078918  0.261851  0  4.102988  0
C  C43  1  0.29080828  0.87358174  0.58065797  1  0.501268  0  0.077991  0.257081  0  4.102025  0
C  C44  1  0.69230638  0.19980043  0.48611269  1  0.000597  0  -0.097292  -0.221746  0  3.999544  0
C  C45  1  0.32126436  0.78721123  0.56263696  1  -0.024912  0  -0.097925  -0.221748  0  4.00878  0
C  C46  1  0.53360220  0.18329756  0.49718117  1  0.548381  0  0.091836  0.249684  0  4.004321  0
C  C47  1  0.47778280  0.80849479  0.50807336  1  0.518771  0  0.08945  0.252334  0  4.012244  0
C  C48  1  0.55992333  0.09413814  0.51290420  1  0.041848  0  -0.012386  -0.079992  0  3.956853  0
C  C49  1  0.45214096  0.89473133  0.53439972  1  -0.014797  0  -0.011491  -0.072321  0  3.954873  0
C  C50  1  0.65664689  0.05722344  0.50816432  1  0.028523  0  -0.006887  -0.052494  0  3.962359  0
C  C51  1  0.35599606  0.92917668  0.56816627  1  0.037551  0  -0.004549  -0.048242  0  3.960281  0
C  C52  1  0.49143437  0.03970329  0.53177473  1  0.015456  0  0.001149  0.065375  0  3.977468  0
C  C53  1  0.52050131  0.94876662  0.52602012  1  0.026308  0  -0.001863  0.056427  0  3.972453  0
C  C54  1  0.61639596  0.91364909  0.52182086  1  0.026213  0  -0.085653  -0.201517  0  3.981641  0
C  C55  1  0.39540572  0.07290336  0.56378111  1  -0.027573  0  -0.092072  -0.22583  0  3.994158  0
C  C56  1  0.67913756  0.96609765  0.51824767  1  0.16389  0  0.084797  0.07076  0  3.900018  0
C  C57  1  0.33321694  0.01902785  0.58460157  1  0.191333  0  0.089562  0.077448  0  3.917234  0
C  C58  1  0.16834859  0.39221225  0.62117413  1  0.224764  0  0.09365  -0.011181  0  3.840279  0
C  C59  1  0.80509176  0.66351258  0.42071329  1  0.221936  0  0.094963  -0.009263  0  3.86234  0
C  C60  1  0.25608653  0.40816757  0.59074918  1  0.522976  0  0.076914  0.086702  0  3.860126  0
C  C61  1  0.72788674  0.62651972  0.43029656  1  0.507482  0  0.074472  0.076794  0  3.840645  0
C  C62  1  0.20119331  0.49500388  0.50574661  1  0.800505  0  0.2396  0.202774  0  3.884943  0
C  C63  1  0.79491943  0.51419638  0.49245446  1  0.797994  0  0.238151  0.198936  0  3.880779  0
C  C64  1  0.10684724  0.49192113  0.53654221  1  0.032013  0  0.015053  -0.053851  0  3.914929  0
C  C65  1  0.87169370  0.55126694  0.49397616  1  0.048723  0  0.015081  -0.050267  0  3.910113  0
C  C66  1  0.08970090  0.43388954  0.59574516  1  0.027611  0  0.030482  0.094036  0  3.938564  0
C  C67  1  0.88014290  0.62762977  0.45183950  1  -0.012976  0  0.029686  0.090609  0  3.949491  0
C  C68  1  0.03002021  0.53992940  0.50974798  1  0.036765  0  0.01287  0.061108  0  3.945436  0
C  C69  1  0.94317719  0.51385770  0.53042031  1  0.001437  0  0.011946  0.05788  0  3.94996  0
C  C70  1  0.92740509  0.45885184  0.59079562  1  -0.013006  0  -0.068986  -0.093395  0  3.944145  0
C  C71  1  0.03492610  0.61756067  0.46970806  1  -0.028065  0  -0.067678  -0.095423  0  3.933938  0
C  C72  1  0.99618208  0.42341040  0.62426892  1  0.029795  0  -0.069386  -0.100829  0  3.92354  0
C  C73  1  0.96151523  0.66231392  0.44483797  1  0.089162  0  -0.06545  -0.089122  0  3.918604  0
N  N74  1  0.41728265  0.54521572  0.97361135  1  -0.575496  0  -0.151529  -0.143714  0  3.207203  0
N  N75  1  0.57945856  0.46727965  0.00799895  1  -0.56466  0  -0.150081  -0.140127  0  3.210045  0
N  N76  1  0.42203405  0.54672025  0.04051663  1  -0.537346  0  -0.150779  -0.14471  0  3.206617  0
N  N77  1  0.57452831  0.46542567  0.94129660  1  -0.547516  0  -0.151605  -0.14601  0  3.217526  0
N  N78  1  0.27252935  0.45834229  0.53211674  1  -1.225362  0  -0.295428  -0.220558  0  3.462314  0
N  N79  1  0.72493861  0.54959914  0.46406050  1  -1.214813  0  -0.290149  -0.218004  0  3.445003  0
N  N80  1  0.79455075  0.42289367  0.51629440  1  0.409676  0  0.066284  0.473449  0  4.241483  0
N  N81  1  0.22909131  0.53284125  0.43309436  1  0.43407  0  0.064503  0.470858  0  4.244362  0
N  N82  1  0.16322757  0.32895791  0.68075168  1  0.405403  0  0.065908  0.515715  0  4.204253  0
N  N83  1  0.80860179  0.73941172  0.37320431  1  0.441457  0  0.068307  0.527427  0  4.20857  0
N  N84  1  0.31495314  0.57292773  0.74098782  1  0.421286  0  0.058842  0.522435  0  4.223635  0
N  N85  1  0.66828941  0.39681569  0.24247132  1  0.41689  0  0.057393  0.517406  0  4.222478  0
N  N86  1  0.76788375  0.92269385  0.53440627  1  0.396287  0  0.055603  0.526845  0  4.199806  0
N  N87  1  0.24149650  0.06088381  0.62965464  1  0.427764  0  0.058688  0.526392  0  4.214512  0
O  O88  1  0.63796421  0.37495012  0.47156232  1  -1.146519  0  -0.319599  -0.541217  0  2.331389  0
O  O89  1  0.37421318  0.61774947  0.51983042  1  -1.147402  0  -0.315484  -0.539658  0  2.347283  0
O  O90  1  0.48539513  0.36651030  0.49823394  1  -1.158881  0  -0.312096  -0.536206  0  2.391155  0
O  O91  1  0.52576265  0.62748927  0.48088210  1  -1.174331  0  -0.314926  -0.542128  0  2.406971  0
O  O92  1  0.55703792  0.50397442  0.58557828  1  -1.166396  0  -0.313185  -0.553853  0  2.344414  0
O  O93  1  0.43541775  0.49345054  0.39782885  1  -1.154875  0  -0.314738  -0.546779  0  2.361416  0
O  O94  1  0.40891957  0.48011055  0.61444592  1  -1.157573  0  -0.31157  -0.54142  0  2.328705  0
O  O95  1  0.58846914  0.50385232  0.36850111  1  -1.149728  0  -0.313179  -0.534898  0  2.293619  0
O  O96  1  0.84469376  0.36806242  0.47263506  1  -0.38638  0  -0.089608  -0.270007  0  1.878971  0
O  O97  1  0.74602706  0.41012543  0.57567492  1  -0.39695  0  -0.08463  -0.271718  0  1.985911  0
O  O98  1  0.22902958  0.48649238  0.38380019  1  -0.383747  0  -0.087502  -0.265406  0  1.867908  0
O  O99  1  0.24971298  0.60449768  0.42851976  1  -0.413264  0  -0.085755  -0.266868  0  1.956848  0
O  O100  1  0.23215820  0.31007332  0.70615687  1  -0.423473  0  -0.116973  -0.308845  0  1.872314  0
O  O101  1  0.09193660  0.29859693  0.70050607  1  -0.42668  0  -0.108721  -0.30293  0  1.917387  0
O  O102  1  0.73428030  0.79064102  0.37425679  1  -0.452529  0  -0.115925  -0.322518  0  1.944377  0
O  O103  1  0.88540847  0.74540546  0.33404002  1  -0.443131  0  -0.110524  -0.304108  0  1.8825  0
O  O104  1  0.24426500  0.54375354  0.76816657  1  -0.452867  0  -0.139275  -0.333571  0  1.85397  0
O  O105  1  0.31862937  0.63593514  0.70075104  1  -0.44403  0  -0.129733  -0.324284  0  1.901565  0
O  O106  1  0.74633596  0.40676636  0.20807975  1  -0.458627  0  -0.139632  -0.331119  0  1.845292  0
O  O107  1  0.65242516  0.34250428  0.28966595  1  -0.43127  0  -0.129816  -0.317946  0  1.881957  0
O  O108  1  0.80998429  0.85415503  0.50213242  1  -0.49032  0  -0.161832  -0.376903  0  1.90819  0
O  O109  1  0.79159277  0.95488347  0.58198957  1  -0.423933  0  -0.126155  -0.315457  0  1.880682  0
O  O110  1  0.22158859  0.03651520  0.69208316  1  -0.420702  0  -0.117476  -0.302761  0  1.86855  0
O  O111  1  0.19433855  0.12012285  0.60199705  1  -0.453617  0  -0.147098  -0.345873  0  1.859921  0
O  O112  1  0.56281843  0.77835162  0.46368718  1  -1.121266  0  -0.34372  -0.4379  0  2.433985  0
O  O113  1  0.44710139  0.21687999  0.48669565  1  -1.114866  0  -0.343134  -0.414236  0  2.319628  0
O  O114  1  0.81548515  0.07429299  0.47798069  1  -1.096131  0  -0.347416  -0.438197  0  2.290236  0
O  O115  1  0.19900968  0.90882930  0.60929353  1  -1.116459  0  -0.344554  -0.434697  0  2.295595  0
