# generated using pymatgen
data_CdPH17C21(NO2)2
_symmetry_space_group_name_H-M   'P 1'
_cell_length_a   11.34875413
_cell_length_b   12.34328432
_cell_length_c   26.41869933
_cell_angle_alpha   100.79339724
_cell_angle_beta   91.30634994
_cell_angle_gamma   112.13396116
_symmetry_Int_Tables_number   1
_chemical_formula_structural   CdPH17C21(NO2)2
_chemical_formula_sum   'Cd6 P6 H102 C126 N12 O24'
_cell_volume   3349.61388168
_cell_formula_units_Z   6
loop_
 _symmetry_equiv_pos_site_id
 _symmetry_equiv_pos_as_xyz
  1  'x, y, z'
loop_
 _atom_site_type_symbol
 _atom_site_label
 _atom_site_symmetry_multiplicity
 _atom_site_fract_x
 _atom_site_fract_y
 _atom_site_fract_z
 _atom_site_occupancy
 _atom_site_pbe_bader_charge
 _atom_site_pbe_bader_spin_density
 _atom_site_pbe_cm5_charge
 _atom_site_pbe_ddec_charge
 _atom_site_pbe_ddec_spin_density
 _atom_site_pbe_ddec_sum_bond_order
 _atom_site_pbe_magmom
Cd  Cd0  1  0.45841608  0.89073107  0.04034223  1  1.272615  0  0.783996  0.912363  0  2.170587  0
Cd  Cd1  1  0.54157632  0.10926975  0.95965777  1  1.272857  0  0.784016  0.91233  0  2.170701  0
Cd  Cd2  1  0.01210621  0.38458707  0.23486799  1  1.278381  0  0.781154  0.923981  0  2.175454  0
Cd  Cd3  1  0.98789221  0.61541546  0.76513187  1  1.27841  0  0.781174  0.924011  0  2.175362  0
Cd  Cd4  1  0.95941769  0.25319445  0.38973531  1  1.27181  0  0.779992  0.921053  0  2.195747  0
Cd  Cd5  1  0.04058780  0.74680800  0.61026276  1  1.271872  0  0.779947  0.921072  0  2.195655  0
P  P6  1  0.85743425  0.11734757  0.26918487  1  3.088119  0  0.266391  1.043336  0  5.222951  0
P  P7  1  0.14256452  0.88265585  0.73081659  1  3.088664  0  0.266443  1.043533  0  5.222947  0
P  P8  1  0.47051172  0.20293741  0.07257219  1  3.052673  0  0.259424  1.049705  0  5.219702  0
P  P9  1  0.52948845  0.79706509  0.92742808  1  3.0525  0  0.259418  1.049703  0  5.219597  0
P  P10  1  0.08800622  0.51527629  0.35594313  1  3.113564  0  0.258534  1.037133  0  5.241551  0
P  P11  1  0.91200499  0.48472517  0.64405568  1  3.113671  0  0.258545  1.037261  0  5.241334  0
H  H12  1  0.08809974  0.06311180  0.26573941  1  0.062213  0  0.099896  0.0944  0  1.034868  0
H  H13  1  0.91190228  0.93689331  0.73426717  1  0.062535  0  0.099928  0.094462  0  1.034765  0
H  H14  1  0.13269128  0.88899015  0.28165634  1  0.045085  0  0.093794  0.085942  0  1.030616  0
H  H15  1  0.86731160  0.11101678  0.71834738  1  0.048676  0  0.093807  0.085993  0  1.030556  0
H  H16  1  0.95576740  0.71078977  0.30128926  1  0.089244  0  0.102666  0.108704  0  1.012696  0
H  H17  1  0.04423328  0.28921183  0.69871018  1  0.08924  0  0.102681  0.108694  0  1.01261  0
H  H18  1  0.73703873  0.71016939  0.30487393  1  0.064441  0  0.099274  0.094437  0  1.008102  0
H  H19  1  0.26296231  0.28983311  0.69512634  1  0.064458  0  0.099286  0.094427  0  1.008025  0
H  H20  1  0.69359074  0.88339576  0.28849462  1  0.047776  0  0.096037  0.085095  0  1.047576  0
H  H21  1  0.30640614  0.11660319  0.71150529  1  0.047628  0  0.096033  0.085159  0  1.047517  0
H  H22  1  0.63946460  0.00097782  0.23323636  1  0.048987  0  0.09784  0.125515  0  1.003938  0
H  H23  1  0.36053445  0.99901389  0.76676332  1  0.049032  0  0.097883  0.125574  0  1.003915  0
H  H24  1  0.70046079  0.14541583  0.21943273  1  0.085369  0  0.109152  0.150086  0  0.983461  0
H  H25  1  0.29952876  0.85457423  0.78056592  1  0.085387  0  0.109188  0.150139  0  0.983469  0
H  H26  1  0.83217266  0.08360172  0.15366561  1  0.091159  0  0.106698  0.128644  0  0.991153  0
H  H27  1  0.16782999  0.91638813  0.84633472  1  0.090921  0  0.106711  0.12863  0  0.991183  0
H  H28  1  0.78088750  0.94060885  0.16780443  1  0.042305  0  0.098592  0.10931  0  0.977285  0
H  H29  1  0.21910993  0.05937925  0.83219794  1  0.042239  0  0.098607  0.109302  0  0.977292  0
H  H30  1  0.24095614  0.24651013  0.06290172  1  0.056959  0  0.0978  0.091266  0  1.039364  0
H  H31  1  0.75904365  0.75349592  0.93710452  1  0.056672  0  0.097787  0.091196  0  1.039272  0
H  H32  1  0.03873376  0.18783609  0.10745829  1  0.084712  0  0.09752  0.108535  0  1.049453  0
H  H33  1  0.96127334  0.81217072  0.89255078  1  0.084621  0  0.097563  0.108561  0  1.049491  0
H  H34  1  0.01340833  0.06206119  0.17248983  1  0.08412  0  0.096576  0.092234  0  1.053538  0
H  H35  1  0.98660429  0.93794824  0.82751992  1  0.083728  0  0.096486  0.092209  0  1.053634  0
H  H36  1  0.18498970  0.99421383  0.19361664  1  0.04866  0  0.091401  0.083173  0  1.04489  0
H  H37  1  0.81502429  0.00579024  0.80638699  1  0.048732  0  0.091406  0.083235  0  1.044854  0
H  H38  1  0.38390291  0.05170187  0.14939182  1  0.104808  0  0.098612  0.102134  0  1.049601  0
H  H39  1  0.61610397  0.94829784  0.85060868  1  0.104963  0  0.098602  0.102121  0  1.049686  0
H  H40  1  0.59530581  0.34062939  0.14902043  1  0.085353  0  0.096514  0.12415  0  1.009867  0
H  H41  1  0.40469770  0.65937669  0.85097830  1  0.084506  0  0.096505  0.124168  0  1.009773  0
H  H42  1  0.57414656  0.19165891  0.15044419  1  0.073315  0  0.100333  0.131519  0  1.013934  0
H  H43  1  0.42585500  0.80834897  0.84955770  1  0.07301  0  0.100346  0.131572  0  1.014032  0
H  H44  1  0.72562431  0.19530726  0.08110842  1  0.069033  0  0.099017  0.113665  0  1.006334  0
H  H45  1  0.27437423  0.80469348  0.91889091  1  0.068985  0  0.099011  0.113671  0  1.006353  0
H  H46  1  0.75173913  0.34528686  0.08230039  1  0.024903  0  0.09919  0.11314  0  0.976221  0
H  H47  1  0.24826359  0.65471742  0.91769855  1  0.024952  0  0.099175  0.113147  0  0.976265  0
H  H48  1  0.15198321  0.74116899  0.32437508  1  0.049039  0  0.099747  0.093507  0  1.039413  0
H  H49  1  0.84801779  0.25882093  0.67562144  1  0.049347  0  0.099748  0.093572  0  1.03944  0
H  H50  1  0.35783628  0.90481150  0.31678193  1  0.063758  0  0.096836  0.092003  0  1.009701  0
H  H51  1  0.64216221  0.09518478  0.68321322  1  0.063687  0  0.096816  0.091996  0  1.009613  0
H  H52  1  0.56344734  0.88801781  0.33862628  1  0.062489  0  0.097877  0.092412  0  1.033043  0
H  H53  1  0.43655280  0.11198653  0.66137112  1  0.062088  0  0.097852  0.092449  0  1.033098  0
H  H54  1  0.56341266  0.70413357  0.36456788  1  0.06512  0  0.096595  0.090372  0  1.018593  0
H  H55  1  0.43659926  0.29587778  0.63543219  1  0.06521  0  0.096581  0.090365  0  1.018632  0
H  H56  1  0.35617320  0.54033551  0.37217195  1  0.102749  0  0.102956  0.104511  0  1.002104  0
H  H57  1  0.64384198  0.45967126  0.62783042  1  0.103099  0  0.102971  0.104534  0  1.002061  0
H  H58  1  0.01407645  0.65270847  0.40659767  1  0.054105  0  0.097023  0.125086  0  1.023877  0
H  H59  1  0.98593846  0.34729745  0.59340045  1  0.053966  0  0.097024  0.125177  0  1.023812  0
H  H60  1  0.94317994  0.50839244  0.41988853  1  0.085201  0  0.108339  0.152012  0  0.991994  0
H  H61  1  0.05682746  0.49161448  0.58010995  1  0.085083  0  0.10837  0.152068  0  0.992051  0
H  H62  1  0.15593848  0.53687868  0.46642833  1  0.089033  0  0.104454  0.129906  0  0.98472  0
H  H63  1  0.84407303  0.46312549  0.53356997  1  0.088682  0  0.104436  0.129904  0  0.984749  0
H  H64  1  0.22306108  0.68378337  0.45674034  1  0.039158  0  0.091686  0.098505  0  0.995743  0
H  H65  1  0.77695093  0.31621989  0.54325751  1  0.039342  0  0.091692  0.098517  0  0.995741  0
H  H66  1  0.23824911  0.98092427  0.99823735  1  0.153291  0  0.122335  0.102264  0  1.003271  0
H  H67  1  0.76173191  0.01906417  0.00175649  1  0.153754  0  0.122341  0.102289  0  1.003301  0
H  H68  1  0.99969591  0.91959943  0.99270584  1  0.080819  0  0.109356  0.109751  0  1.029296  0
H  H69  1  0.00028403  0.08039079  0.00729193  1  0.080264  0  0.1094  0.109816  0  1.029255  0
H  H70  1  0.86595599  0.73815190  0.02469557  1  0.083068  0  0.116288  0.118717  0  0.974639  0
H  H71  1  0.13402972  0.26184177  0.97530750  1  0.083318  0  0.11623  0.118626  0  0.974623  0
H  H72  1  0.85406718  0.55715563  0.05866429  1  0.070644  0  0.107968  0.114307  0  0.984645  0
H  H73  1  0.14592734  0.44284421  0.94133982  1  0.070702  0  0.107948  0.114302  0  0.98464  0
H  H74  1  0.96512663  0.43019369  0.08260711  1  0.117923  0  0.104932  0.115891  0  1.049195  0
H  H75  1  0.03487477  0.56980969  0.91739439  1  0.117546  0  0.104917  0.115811  0  1.049232  0
H  H76  1  0.16068302  0.39133056  0.09059793  1  0.088557  0  0.113471  0.122197  0  1.000255  0
H  H77  1  0.83931027  0.60867026  0.90940133  1  0.088576  0  0.113476  0.122176  0  1.00036  0
H  H78  1  0.39644556  0.45231726  0.07854169  1  0.152177  0  0.109221  0.131486  0  1.013889  0
H  H79  1  0.60355210  0.54768977  0.92146045  1  0.150515  0  0.109216  0.131421  0  1.013909  0
H  H80  1  0.51310951  0.65294207  0.05624282  1  0.124556  0  0.125209  0.100817  0  0.962224  0
H  H81  1  0.48688558  0.34706502  0.94375740  1  0.124486  0  0.125191  0.100824  0  0.962191  0
H  H82  1  0.98066339  0.61548530  0.19703038  1  0.106452  0  0.120549  0.08911  0  0.975019  0
H  H83  1  0.01933001  0.38451556  0.80296510  1  0.106528  0  0.120614  0.089199  0  0.975018  0
H  H84  1  0.11267905  0.80668375  0.17064691  1  0.084249  0  0.105997  0.109703  0  1.018081  0
H  H85  1  0.88732426  0.19331338  0.82934649  1  0.083963  0  0.10602  0.109703  0  1.01794  0
H  H86  1  0.35134087  0.86259780  0.16990053  1  0.143985  0  0.112118  0.127537  0  1.017714  0
H  H87  1  0.64865809  0.13739128  0.83009248  1  0.14427  0  0.112074  0.127461  0  1.017744  0
H  H88  1  0.53771720  0.80939823  0.18277034  1  0.092288  0  0.106293  0.115746  0  1.028469  0
H  H89  1  0.46228146  0.19059628  0.81722239  1  0.092398  0  0.10625  0.115745  0  1.028427  0
H  H90  1  0.62757595  0.66697181  0.20498617  1  0.080768  0  0.105583  0.108821  0  1.001384  0
H  H91  1  0.37242733  0.33302974  0.79501443  1  0.08078  0  0.10561  0.108895  0  1.001385  0
H  H92  1  0.59280546  0.47228957  0.23189700  1  0.087528  0  0.117924  0.121129  0  0.974506  0
H  H93  1  0.40719585  0.52771378  0.76810752  1  0.087527  0  0.117936  0.121229  0  0.974515  0
H  H94  1  0.44028125  0.28615056  0.25567663  1  0.081847  0  0.114021  0.120606  0  0.978512  0
H  H95  1  0.55971541  0.71385200  0.74432359  1  0.081772  0  0.114029  0.12062  0  0.978383  0
H  H96  1  0.20672718  0.25546001  0.25705741  1  0.124658  0  0.117043  0.08846  0  1.019911  0
H  H97  1  0.79327343  0.74454157  0.74294430  1  0.12481  0  0.117034  0.088488  0  1.019923  0
H  H98  1  0.69661915  0.05312371  0.42337036  1  0.101574  0  0.121137  0.09181  0  0.973191  0
H  H99  1  0.30337829  0.94688065  0.57662965  1  0.10171  0  0.121096  0.091736  0  0.973304  0
H  H100  1  0.62624239  0.86243160  0.45695313  1  0.066513  0  0.109645  0.113578  0  0.990417  0
H  H101  1  0.37375838  0.13757448  0.54304935  1  0.06653  0  0.10962  0.113585  0  0.990408  0
H  H102  1  0.78783093  0.77183491  0.46898584  1  0.104384  0  0.120637  0.129866  0  0.958747  0
H  H103  1  0.21216653  0.22816945  0.53101379  1  0.104336  0  0.120637  0.129878  0  0.958722  0
H  H104  1  0.00962080  0.78552192  0.46525586  1  0.174547  0  0.107296  0.122458  0  1.053542  0
H  H105  1  0.99037219  0.21447619  0.53474392  1  0.174456  0  0.107306  0.122469  0  1.053493  0
H  H106  1  0.22771840  0.88293345  0.43898530  1  0.091277  0  0.105185  0.108829  0  0.998083  0
H  H107  1  0.77227793  0.11706455  0.56102019  1  0.091321  0  0.105209  0.108853  0  0.998174  0
H  H108  1  0.38509653  0.05010424  0.40407334  1  0.078745  0  0.111316  0.11019  0  0.988666  0
H  H109  1  0.61490790  0.94989003  0.59593195  1  0.078728  0  0.111327  0.110167  0  0.988717  0
H  H110  1  0.43222650  0.23746336  0.37021224  1  0.109514  0  0.116348  0.125072  0  0.977429  0
H  H111  1  0.56777426  0.76252831  0.62978898  1  0.109569  0  0.116347  0.125084  0  0.97744  0
H  H112  1  0.25437366  0.31305172  0.36272247  1  0.122731  0  0.118378  0.095514  0  1.019051  0
H  H113  1  0.74562659  0.68693457  0.63727675  1  0.122555  0  0.118421  0.095688  0  1.019099  0
C  C114  1  0.88843441  0.98559176  0.27625373  1  -0.569728  0  -0.031604  -0.166822  0  3.970786  0
C  C115  1  0.11156814  0.01441246  0.72375164  1  -0.570269  0  -0.031578  -0.166977  0  3.970865  0
C  C116  1  0.01159626  0.98530806  0.27423182  1  -0.052942  0  -0.087449  -0.074384  0  3.993313  0
C  C117  1  0.98840183  0.01469804  0.72577251  1  -0.05283  0  -0.087524  -0.074353  0  3.993216  0
C  C118  1  0.03616196  0.88752575  0.28339354  1  -0.092317  0  -0.097736  -0.092772  0  4.02237  0
C  C119  1  0.96383944  0.11247763  0.71660758  1  -0.096281  0  -0.097724  -0.092913  0  4.022494  0
C  C120  1  0.93781641  0.78809312  0.29447189  1  0.007493  0  -0.092578  -0.08725  0  3.99276  0
C  C121  1  0.06218352  0.21190671  0.70552662  1  0.00736  0  -0.092559  -0.087165  0  3.99266  0
C  C122  1  0.81445270  0.78740063  0.29629197  1  -0.088284  0  -0.096187  -0.090849  0  4.012772  0
C  C123  1  0.18554607  0.21260279  0.70370911  1  -0.088376  0  -0.096209  -0.090754  0  4.012665  0
C  C124  1  0.79018968  0.88518275  0.28715348  1  -0.014834  0  -0.086721  -0.074794  0  3.996078  0
C  C125  1  0.20980982  0.11482244  0.71284928  1  -0.014601  0  -0.086763  -0.07497  0  3.996064  0
C  C126  1  0.72272109  0.06620479  0.22006722  1  -0.576517  0  -0.174282  -0.401741  0  3.953635  0
C  C127  1  0.27727652  0.93378966  0.77993154  1  -0.576678  0  -0.174376  -0.401886  0  3.953555  0
C  C128  1  0.75122787  0.01566206  0.16668191  1  -0.03979  0  -0.162722  -0.252221  0  3.943978  0
C  C129  1  0.24876640  0.98432882  0.83331838  1  -0.039456  0  -0.162709  -0.252179  0  3.943953  0
C  C130  1  0.64091642  0.97018006  0.12418943  1  1.533389  0  0.189992  0.61183  0  4.167195  0
C  C131  1  0.35908556  0.02981432  0.87580977  1  1.533333  0  0.189967  0.611705  0  4.167303  0
C  C132  1  0.32407220  0.15366844  0.10357090  1  -0.541692  0  -0.033688  -0.169627  0  4.001491  0
C  C133  1  0.67593160  0.84633038  0.89643213  1  -0.5418  0  -0.033667  -0.16962  0  4.001433  0
C  C134  1  0.22610590  0.19031336  0.09142326  1  -0.09047  0  -0.088036  -0.082132  0  3.99944  0
C  C135  1  0.77389577  0.80969087  0.90858210  1  -0.089921  0  -0.088082  -0.082004  0  3.999059  0
C  C136  1  0.11353549  0.15631553  0.11557224  1  -0.02773  0  -0.098079  -0.095877  0  3.989163  0
C  C137  1  0.88647102  0.84368772  0.88443386  1  -0.028018  0  -0.098123  -0.096039  0  3.989069  0
C  C138  1  0.09889538  0.08514691  0.15218985  1  -0.080366  0  -0.091891  -0.069444  0  3.991891  0
C  C139  1  0.90111792  0.91485984  0.84781703  1  -0.080261  0  -0.091573  -0.06913  0  3.991735  0
C  C140  1  0.19607813  0.04793322  0.16432080  1  -0.041359  0  -0.104391  -0.105925  0  4.037079  0
C  C141  1  0.80393367  0.95206997  0.83568423  1  -0.040803  0  -0.104581  -0.106134  0  4.037167  0
C  C142  1  0.30832315  0.08138795  0.14007949  1  -0.091202  0  -0.091572  -0.086828  0  3.999557  0
C  C143  1  0.69168342  0.91860903  0.85992228  1  -0.09155  0  -0.09154  -0.086884  0  3.999648  0
C  C144  1  0.59639385  0.25757552  0.12564810  1  -0.573766  0  -0.178507  -0.400613  0  3.962434  0
C  C145  1  0.40360530  0.74243064  0.87434982  1  -0.572417  0  -0.178486  -0.400704  0  3.962317  0
C  C146  1  0.72665926  0.27728156  0.10633338  1  -0.012363  0  -0.16306  -0.241607  0  3.933093  0
C  C147  1  0.27333827  0.72272098  0.89366723  1  -0.012308  0  -0.163054  -0.241556  0  3.933114  0
C  C148  1  0.83404973  0.31651730  0.14955281  1  1.525981  0  0.186339  0.604334  0  4.182362  0
C  C149  1  0.16595032  0.68348701  0.85044762  1  1.525303  0  0.186351  0.604352  0  4.182295  0
C  C150  1  0.24109444  0.63086592  0.34929872  1  -0.580516  0  -0.028868  -0.159649  0  3.967786  0
C  C151  1  0.75891477  0.36913288  0.65069870  1  -0.580738  0  -0.028801  -0.159714  0  3.967917  0
C  C152  1  0.24235763  0.73377117  0.33360684  1  -0.012996  0  -0.086291  -0.076171  0  3.994587  0
C  C153  1  0.75764678  0.26622051  0.66638950  1  -0.01309  0  -0.086275  -0.076189  0  3.994433  0
C  C154  1  0.35772644  0.82549271  0.32940809  1  -0.061837  0  -0.099021  -0.09653  0  4.034262  0
C  C155  1  0.64227628  0.17450530  0.67058841  1  -0.061957  0  -0.09901  -0.096516  0  4.034106  0
C  C156  1  0.47333924  0.81533807  0.34104198  1  -0.067895  0  -0.095999  -0.089344  0  4.020792  0
C  C157  1  0.52666495  0.18466533  0.65895350  1  -0.067585  0  -0.09592  -0.089309  0  4.020859  0
C  C158  1  0.47307708  0.71240811  0.35594760  1  -0.090748  0  -0.096683  -0.093072  0  4.028183  0
C  C159  1  0.52693135  0.28759701  0.64404961  1  -0.090838  0  -0.09673  -0.093125  0  4.028361  0
C  C160  1  0.35744813  0.62071525  0.36025871  1  -0.040191  0  -0.084655  -0.072111  0  3.985787  0
C  C161  1  0.64256475  0.37928799  0.63973952  1  -0.040281  0  -0.084725  -0.072172  0  3.985953  0
C  C162  1  0.03487866  0.57707018  0.41431468  1  -0.61518  0  -0.176487  -0.407666  0  3.948137  0
C  C163  1  0.96513205  0.42293219  0.58568459  1  -0.614954  0  -0.176564  -0.407887  0  3.948254  0
C  C164  1  0.13205373  0.61307139  0.46158346  1  -0.027638  0  -0.165907  -0.251689  0  3.942856  0
C  C165  1  0.86795826  0.38693186  0.53841515  1  -0.027411  0  -0.165943  -0.251777  0  3.943036  0
C  C166  1  0.08877326  0.65660601  0.51278853  1  1.535643  0  0.186975  0.612575  0  4.158088  0
C  C167  1  0.91123929  0.34339452  0.48721136  1  1.535976  0  0.186743  0.612285  0  4.158277  0
C  C168  1  0.17673509  0.90070095  0.01077589  1  0.456274  0  0.066217  0.123225  0  3.908204  0
C  C169  1  0.82324704  0.09929015  0.98922009  1  0.45516  0  0.066064  0.123007  0  3.908124  0
C  C170  1  0.04339094  0.86665792  0.00837679  1  0.082846  0  -0.07462  -0.110185  0  3.95735  0
C  C171  1  0.95658802  0.13333412  0.99162074  1  0.083474  0  -0.074502  -0.110105  0  3.957524  0
C  C172  1  0.96941150  0.76523486  0.02527760  1  -0.052316  0  -0.059561  -0.074548  0  3.920064  0
C  C173  1  0.03056994  0.23475892  0.97472163  1  -0.05268  0  -0.059605  -0.07457  0  3.920143  0
C  C174  1  0.02800693  0.69396574  0.04239513  1  -0.004047  0  -0.002259  0.043551  0  4.018804  0
C  C175  1  0.97198025  0.30602705  0.95760448  1  -0.00351  0  -0.002167  0.043802  0  4.018728  0
C  C176  1  0.95737584  0.58449300  0.05814036  1  -0.089961  0  -0.0871  -0.13189  0  4.000544  0
C  C177  1  0.04261500  0.41550424  0.94185969  1  -0.089911  0  -0.087101  -0.131954  0  4.000393  0
C  C178  1  0.01715694  0.51426301  0.07085847  1  0.032654  0  -0.085131  -0.122087  0  3.987769  0
C  C179  1  0.98283648  0.48573601  0.92913988  1  0.033106  0  -0.0851  -0.122027  0  3.987543  0
C  C180  1  0.15192304  0.54822256  0.06875221  1  0.000702  0  -0.003073  0.044938  0  4.009761  0
C  C181  1  0.84806866  0.45177650  0.93124498  1  0.000495  0  -0.003085  0.045002  0  4.009696  0
C  C182  1  0.21584254  0.47480570  0.07894616  1  -0.074567  0  -0.06281  -0.078295  0  3.911212  0
C  C183  1  0.78415611  0.52520136  0.92105221  1  -0.074702  0  -0.062782  -0.078289  0  3.911297  0
C  C184  1  0.34520072  0.50950267  0.07363559  1  -0.042129  0  -0.080248  -0.128433  0  3.944376  0
C  C185  1  0.65480124  0.49050611  0.92636563  1  0.005476  0  -0.080313  -0.128369  0  3.944315  0
C  C186  1  0.41107768  0.62104764  0.06069057  1  0.533382  0  0.06769  0.130578  0  3.919679  0
C  C187  1  0.58891965  0.37895852  0.93930960  1  0.487236  0  0.067791  0.13059  0  3.919699  0
C  C188  1  0.22602587  0.65811615  0.05511989  1  0.510175  0  0.115134  0.114419  0  3.993735  0
C  C189  1  0.77396758  0.34188289  0.94487732  1  0.510312  0  0.115096  0.114344  0  3.993839  0
C  C190  1  0.16296462  0.73287688  0.04189995  1  0.465245  0  0.118134  0.122969  0  3.968765  0
C  C191  1  0.83702213  0.26711684  0.95809746  1  0.464979  0  0.117992  0.122707  0  3.96918  0
C  C192  1  0.08381353  0.64267810  0.19595488  1  0.526713  0  0.061619  0.113362  0  3.958336  0
C  C193  1  0.91618271  0.35731911  0.80404033  1  0.52627  0  0.061594  0.113336  0  3.958256  0
C  C194  1  0.15855485  0.75026073  0.18173062  1  -0.0395  0  -0.087056  -0.139247  0  4.006037  0
C  C195  1  0.84144531  0.24973734  0.81826358  1  -0.039064  0  -0.087039  -0.139216  0  4.005963  0
C  C196  1  0.28888296  0.78094707  0.18119933  1  -0.062094  0  -0.064235  -0.078778  0  3.899939  0
C  C197  1  0.71111607  0.21904833  0.81879386  1  -0.062763  0  -0.064274  -0.078734  0  3.900032  0
C  C198  1  0.34351328  0.70290539  0.19444068  1  -0.050577  0  -0.000823  0.047772  0  4.002109  0
C  C199  1  0.65648604  0.29709086  0.80555599  1  -0.050308  0  -0.000742  0.047679  0  4.002293  0
C  C200  1  0.47701274  0.72691065  0.19374485  1  -0.030149  0  -0.08348  -0.120812  0  3.978874  0
C  C201  1  0.52298699  0.27308650  0.80625116  1  -0.030178  0  -0.083471  -0.120735  0  3.978963  0
C  C202  1  0.52572721  0.64803712  0.20572221  1  -0.024547  0  -0.084136  -0.123503  0  3.995605  0
C  C203  1  0.47427347  0.35196448  0.79427722  1  -0.024543  0  -0.084175  -0.123704  0  3.995693  0
C  C204  1  0.44508364  0.53944144  0.21978464  1  0.020618  0  0.000965  0.046428  0  4.009691  0
C  C205  1  0.55491754  0.46056555  0.78021679  1  0.02055  0  0.001018  0.046625  0  4.009605  0
C  C206  1  0.49133280  0.45558670  0.23277029  1  -0.049893  0  -0.057897  -0.072872  0  3.921498  0
C  C207  1  0.50866387  0.54442214  0.76723199  1  -0.049848  0  -0.057995  -0.073173  0  3.921664  0
C  C208  1  0.40738136  0.35289319  0.24615146  1  -0.053331  0  -0.079461  -0.127115  0  3.982746  0
C  C209  1  0.59261194  0.64710763  0.75384742  1  -0.053527  0  -0.0794  -0.126941  0  3.982361  0
C  C210  1  0.27736641  0.33453228  0.24677090  1  0.540489  0  0.063482  0.11757  0  3.940265  0
C  C211  1  0.72263351  0.66547382  0.75323081  1  0.540834  0  0.063426  0.117375  0  3.94005  0
C  C212  1  0.31196271  0.51283617  0.22115792  1  0.514347  0  0.123127  0.128308  0  3.960009  0
C  C213  1  0.68803588  0.48716274  0.77884352  1  0.514482  0  0.123109  0.128263  0  3.959967  0
C  C214  1  0.26021079  0.59579411  0.20789193  1  0.546491  0  0.121768  0.124881  0  3.975965  0
C  C215  1  0.73979094  0.40420571  0.79210509  1  0.546502  0  0.121784  0.124966  0  3.976098  0
C  C216  1  0.76218204  0.00904055  0.42823201  1  0.535317  0  0.059522  0.103491  0  3.959892  0
C  C217  1  0.23781709  0.99096375  0.57177029  1  0.534965  0  0.059499  0.103595  0  3.960055  0
C  C218  1  0.72389543  0.90304798  0.44727484  1  -0.031731  0  -0.083609  -0.133317  0  4.01627  0
C  C219  1  0.27610491  0.09695719  0.55272944  1  -0.031376  0  -0.083529  -0.133318  0  4.016284  0
C  C220  1  0.81222991  0.85303685  0.45369725  1  -0.023139  0  -0.060173  -0.077287  0  3.91891  0
C  C221  1  0.18776884  0.14696656  0.54630458  1  -0.023189  0  -0.0602  -0.077277  0  3.919043  0
C  C222  1  0.93793747  0.90905526  0.44086592  1  0.004078  0  0.002124  0.049833  0  4.008805  0
C  C223  1  0.06205854  0.09094371  0.55913359  1  0.003503  0  0.002111  0.049636  0  4.009037  0
C  C224  1  0.03459883  0.86368506  0.44774052  1  -0.088153  0  -0.083454  -0.117848  0  3.957923  0
C  C225  1  0.96539598  0.13631120  0.55226063  1  -0.087385  0  -0.083471  -0.117775  0  3.957943  0
C  C226  1  0.15466718  0.91869906  0.43411932  1  0.014477  0  -0.08467  -0.12291  0  3.994818  0
C  C227  1  0.84532869  0.08129357  0.56588267  1  0.014464  0  -0.084729  -0.123085  0  3.995018  0
C  C228  1  0.18804471  0.02463589  0.41361659  1  -0.060514  0  -0.002377  0.038097  0  4.028571  0
C  C229  1  0.81195580  0.97535937  0.58638607  1  -0.060662  0  -0.002276  0.038202  0  4.028421  0
C  C230  1  0.31152461  0.08549559  0.39974217  1  -0.028296  0  -0.063593  -0.077548  0  3.951119  0
C  C231  1  0.68847596  0.91449785  0.60026223  1  -0.02798  0  -0.063544  -0.077344  0  3.951101  0
C  C232  1  0.33757082  0.18864369  0.38097753  1  -0.047372  0  -0.083985  -0.138416  0  3.992387  0
C  C233  1  0.66242840  0.81134441  0.61902336  1  -0.047757  0  -0.084075  -0.138585  0  3.992489  0
C  C234  1  0.23979570  0.23141804  0.37659668  1  0.522938  0  0.058669  0.108704  0  3.931949  0
C  C235  1  0.76020498  0.76857544  0.62340394  1  0.522943  0  0.058648  0.108542  0  3.932144  0
C  C236  1  0.09513961  0.07415467  0.40756027  1  0.523518  0  0.123689  0.126396  0  3.964722  0
C  C237  1  0.90485815  0.92583615  0.59244045  1  0.523679  0  0.123748  0.126534  0  3.964449  0
C  C238  1  0.96717242  0.01478287  0.42128068  1  0.463509  0  0.122772  0.124989  0  3.968851  0
C  C239  1  0.03282229  0.98521520  0.57872026  1  0.463372  0  0.122802  0.125164  0  3.968796  0
N  N240  1  0.23425937  0.83618137  0.02764101  1  -1.23881  0  -0.318395  -0.273856  0  3.498247  0
N  N241  1  0.76572548  0.16381601  0.97235405  1  -1.238708  0  -0.318226  -0.273575  0  3.4981  0
N  N242  1  0.35380472  0.69349528  0.05266749  1  -1.241898  0  -0.320094  -0.276222  0  3.520402  0
N  N243  1  0.64618669  0.30650736  0.94733266  1  -1.241554  0  -0.320111  -0.276215  0  3.52045  0
N  N244  1  0.13312135  0.56829403  0.20860158  1  -1.231876  0  -0.316997  -0.272401  0  3.506159  0
N  N245  1  0.86687476  0.43170498  0.79139454  1  -1.231722  0  -0.317033  -0.272453  0  3.506232  0
N  N246  1  0.23164969  0.41194007  0.23459012  1  -1.23504  0  -0.313882  -0.261838  0  3.484608  0
N  N247  1  0.76834785  0.58806248  0.76541011  1  -1.235375  0  -0.313839  -0.261752  0  3.48454  0
N  N248  1  0.87964308  0.06258811  0.41567814  1  -1.240389  0  -0.3135  -0.263459  0  3.49977  0
N  N249  1  0.12035408  0.93741354  0.58432201  1  -1.240317  0  -0.313496  -0.263564  0  3.499934  0
N  N250  1  0.12299323  0.17573094  0.38955358  1  -1.225823  0  -0.313776  -0.257315  0  3.488751  0
N  N251  1  0.87700973  0.82426162  0.61044547  1  -1.225805  0  -0.31387  -0.257477  0  3.4887  0
O  O252  1  0.97742668  0.20076763  0.25024448  1  -1.436249  0  -0.378374  -0.70285  0  2.286982  0
O  O253  1  0.02257013  0.79923314  0.74975445  1  -1.436287  0  -0.378378  -0.702862  0  2.286979  0
O  O254  1  0.81483851  0.16529129  0.31999513  1  -1.428001  0  -0.39409  -0.69901  0  2.206527  0
O  O255  1  0.18515869  0.83471665  0.68000595  1  -1.427873  0  -0.394169  -0.699131  0  2.206541  0
O  O256  1  0.53012355  0.96361369  0.13545751  1  -1.188776  0  -0.334812  -0.580703  0  2.188332  0
O  O257  1  0.46987697  0.03638343  0.86454115  1  -1.188777  0  -0.334827  -0.580619  0  2.188357  0
O  O258  1  0.66473971  0.93885532  0.07791728  1  -1.164904  0  -0.349192  -0.573512  0  2.147437  0
O  O259  1  0.33525936  0.06113640  0.92208165  1  -1.164827  0  -0.349166  -0.573449  0  2.147525  0
O  O260  1  0.47970618  0.08847472  0.03904050  1  -1.42211  0  -0.395052  -0.717211  0  2.36677  0
O  O261  1  0.52029796  0.91152682  0.96096050  1  -1.422125  0  -0.395029  -0.717222  0  2.366723  0
O  O262  1  0.47534746  0.29793290  0.04337352  1  -1.46085  0  -0.40075  -0.730068  0  2.062459  0
O  O263  1  0.52464820  0.70206518  0.95662516  1  -1.460827  0  -0.400783  -0.730074  0  2.06242  0
O  O264  1  0.93848541  0.30672710  0.13825895  1  -1.183505  0  -0.340476  -0.592968  0  2.178498  0
O  O265  1  0.06151928  0.69328795  0.86174172  1  -1.182846  0  -0.340417  -0.59287  0  2.178518  0
O  O266  1  0.81555274  0.35748487  0.19557314  1  -1.166435  0  -0.345185  -0.557976  0  2.141988  0
O  O267  1  0.18444347  0.64251048  0.80442682  1  -1.166398  0  -0.345242  -0.558073  0  2.141798  0
O  O268  1  0.11411423  0.40632346  0.36377888  1  -1.43487  0  -0.382403  -0.71176  0  2.277444  0
O  O269  1  0.88589220  0.59367716  0.63622056  1  -1.434809  0  -0.382406  -0.71175  0  2.277087  0
O  O270  1  0.99388843  0.49784962  0.30995529  1  -1.429183  0  -0.390749  -0.699673  0  2.205331  0
O  O271  1  0.00611836  0.50215188  0.69004498  1  -1.429276  0  -0.390776  -0.699746  0  2.205372  0
O  O272  1  0.97933385  0.66229913  0.51410636  1  -1.173142  0  -0.339389  -0.569334  0  2.131614  0
O  O273  1  0.02067479  0.33769242  0.48589534  1  -1.173456  0  -0.339215  -0.569054  0  2.131553  0
O  O274  1  0.16763888  0.68658678  0.55338848  1  -1.17011  0  -0.359057  -0.585578  0  2.130841  0
O  O275  1  0.83238036  0.31342718  0.44661041  1  -1.170145  0  -0.358994  -0.585479  0  2.130921  0
