# generated using pymatgen
data_CdH15C15N2(O2F)2
_symmetry_space_group_name_H-M   'P 1'
_cell_length_a   8.86012189
_cell_length_b   8.78636661
_cell_length_c   10.83637739
_cell_angle_alpha   97.67332464
_cell_angle_beta   96.04115787
_cell_angle_gamma   105.19929513
_symmetry_Int_Tables_number   1
_chemical_formula_structural   CdH15C15N2(O2F)2
_chemical_formula_sum   'Cd2 H30 C30 N4 O8 F4'
_cell_volume   798.07211945
_cell_formula_units_Z   2
loop_
 _symmetry_equiv_pos_site_id
 _symmetry_equiv_pos_as_xyz
  1  'x, y, z'
loop_
 _atom_site_type_symbol
 _atom_site_label
 _atom_site_symmetry_multiplicity
 _atom_site_fract_x
 _atom_site_fract_y
 _atom_site_fract_z
 _atom_site_occupancy
 _atom_site_hle17_bader_spin_density
 _atom_site_hle17_ddec_charge
 _atom_site_hle17_ddec_spin_density
 _atom_site_hle17_ddec_sum_bond_order
 _atom_site_hle17_magmom
 _atom_site_hse06_10hf_bader_spin_density
 _atom_site_hse06_10hf_ddec_charge
 _atom_site_hse06_10hf_ddec_spin_density
 _atom_site_hse06_10hf_ddec_sum_bond_order
 _atom_site_hse06_10hf_magmom
 _atom_site_hse06_bader_spin_density
 _atom_site_hse06_ddec_charge
 _atom_site_hse06_ddec_spin_density
 _atom_site_hse06_ddec_sum_bond_order
 _atom_site_hse06_magmom
 _atom_site_pbe_bader_spin_density
 _atom_site_pbe_cm5_charge
 _atom_site_pbe_ddec_charge
 _atom_site_pbe_ddec_spin_density
 _atom_site_pbe_ddec_sum_bond_order
 _atom_site_pbe_magmom
Cd  Cd0  1  0.00364077  0.46095895  0.12681804  1  0  1.089729  0  1.834007  0  0  0.919905  0  2.299835  0  0  0.977872  0  2.239202  0  0  0.75062  0.87777  0  2.341864  0
Cd  Cd1  1  0.99635880  0.53904060  0.87318050  1  0  1.089722  0  1.83402  0  0  0.919864  0  2.299856  0  0  0.97784  0  2.239213  0  0  0.750602  0.877736  0  2.341875  0
H  H2  1  0.94431628  0.01592444  0.16243581  1  0  0.079839  0  0.920558  0  0  0.09204  0  0.979668  0  0  0.093882  0  0.979583  0  0  0.100455  0.090523  0  0.980163  0
H  H3  1  0.05568263  0.98407272  0.83756427  1  0  0.079797  0  0.920559  0  0  0.092022  0  0.97967  0  0  0.093866  0  0.979582  0  0  0.100429  0.090507  0  0.98016  0
H  H4  1  0.80464645  0.94264667  0.94117364  1  0  0.075951  0  0.940552  0  0  0.090641  0  1.005353  0  0  0.092447  0  1.004324  0  0  0.086253  0.088579  0  1.007643  0
H  H5  1  0.19535234  0.05735409  0.05882774  1  0  0.075975  0  0.940489  0  0  0.090654  0  1.005308  0  0  0.092459  0  1.004273  0  0  0.086258  0.088591  0  1.007601  0
H  H6  1  0.71426674  0.05134978  0.04486395  1  0  0.070041  0  0.949172  0  0  0.086398  0  1.016409  0  0  0.087057  0  1.017365  0  0  0.086266  0.086038  0  1.015112  0
H  H7  1  0.28573205  0.94865098  0.95513742  1  0  0.070007  0  0.949239  0  0  0.086392  0  1.016456  0  0  0.087053  0  1.017407  0  0  0.086249  0.086031  0  1.015157  0
H  H8  1  0.60577050  0.68725526  0.95302992  1  0  0.072504  0  0.926251  0  0  0.09285  0  0.982695  0  0  0.093526  0  0.983432  0  0  0.08761  0.09269  0  0.981305  0
H  H9  1  0.39422941  0.31274549  0.04696970  1  0  0.07254  0  0.926279  0  0  0.092877  0  0.982713  0  0  0.093553  0  0.983451  0  0  0.087625  0.09272  0  0.981322  0
H  H10  1  0.50878270  0.82579270  0.90583614  1  0  0.064072  0  0.949975  0  0  0.076445  0  1.021112  0  0  0.078859  0  1.018807  0  0  0.081618  0.074785  0  1.022624  0
H  H11  1  0.49121608  0.17420806  0.09416431  1  0  0.064074  0  0.949961  0  0  0.076427  0  1.021116  0  0  0.078851  0  1.018795  0  0  0.081627  0.07478  0  1.022609  0
H  H12  1  0.46485474  0.90107192  0.12551987  1  0  0.068261  0  0.913875  0  0  0.08514  0  0.968339  0  0  0.085924  0  0.969374  0  0  0.100654  0.085626  0  0.966696  0
H  H13  1  0.53514597  0.09892763  0.87448061  1  0  0.068263  0  0.913897  0  0  0.085151  0  0.968359  0  0  0.085937  0  0.969391  0  0  0.100651  0.085638  0  0.966714  0
H  H14  1  0.61941117  0.64102202  0.18536735  1  0  0.076146  0  0.923557  0  0  0.095846  0  0.980477  0  0  0.096815  0  0.980654  0  0  0.089549  0.095287  0  0.979981  0
H  H15  1  0.38058841  0.35897754  0.81463304  1  0  0.076201  0  0.923459  0  0  0.095907  0  0.980385  0  0  0.096875  0  0.980566  0  0  0.089584  0.095347  0  0.979891  0
H  H16  1  0.52585900  0.74463995  0.28980486  1  0  0.053672  0  0.976732  0  0  0.068805  0  1.046165  0  0  0.069703  0  1.046559  0  0  0.075172  0.068124  0  1.046066  0
H  H17  1  0.47413991  0.25535722  0.71019522  1  0  0.053686  0  0.976727  0  0  0.068816  0  1.046178  0  0  0.06972  0  1.046565  0  0  0.075168  0.068141  0  1.046072  0
H  H18  1  0.81823316  0.87188406  0.32765222  1  0  0.050367  0  0.979374  0  0  0.066283  0  1.047991  0  0  0.067512  0  1.047522  0  0  0.076971  0.065044  0  1.048981  0
H  H19  1  0.18176642  0.12811550  0.67234817  1  0  0.050384  0  0.979361  0  0  0.066298  0  1.04797  0  0  0.067527  0  1.047501  0  0  0.076985  0.06505  0  1.048969  0
H  H20  1  0.71792718  0.00523302  0.27359670  1  0  0.052068  0  0.946601  0  0  0.068024  0  1.016804  0  0  0.068174  0  1.01861  0  0  0.078036  0.06794  0  1.015347  0
H  H21  1  0.28207128  0.99476655  0.72640544  1  0  0.052079  0  0.946596  0  0  0.068017  0  1.016807  0  0  0.068169  0  1.018611  0  0  0.078032  0.067934  0  1.015347  0
H  H22  1  0.76580203  0.42459821  0.34677557  1  0  0.110601  0  0.916798  0  0  0.121235  0  0.97587  0  0  0.124119  0  0.972351  0  0  0.14489  0.118967  0  0.978729  0
H  H23  1  0.23420037  0.57540733  0.65322660  1  0  0.110593  0  0.916786  0  0  0.121256  0  0.975817  0  0  0.124122  0  0.972323  0  0  0.144898  0.11897  0  0.978703  0
H  H24  1  0.16986306  0.25725844  0.33416116  1  0  0.111139  0  0.954739  0  0  0.116882  0  1.018175  0  0  0.120397  0  1.015183  0  0  0.117506  0.11418  0  1.020825  0
H  H25  1  0.83013831  0.74274349  0.66583778  1  0  0.111098  0  0.954744  0  0  0.11687  0  1.018141  0  0  0.120363  0  1.015183  0  0  0.117501  0.114144  0  1.020827  0
H  H26  1  0.04106729  0.19009901  0.55309272  1  0  0.123183  0  0.973955  0  0  0.130432  0  1.038032  0  0  0.134201  0  1.035179  0  0  0.123601  0.127929  0  1.039495  0
H  H27  1  0.95893489  0.80990173  0.44690709  1  0  0.123179  0  0.973951  0  0  0.130429  0  1.038035  0  0  0.134199  0  1.035179  0  0  0.1236  0.127925  0  1.039498  0
H  H28  1  0.72514436  0.39571372  0.58329237  1  0  0.105453  0  0.906591  0  0  0.114975  0  0.970019  0  0  0.116853  0  0.968158  0  0  0.120802  0.113298  0  0.972044  0
H  H29  1  0.27485374  0.60428464  0.41670684  1  0  0.105416  0  0.906619  0  0  0.114954  0  0.970031  0  0  0.116822  0  0.968185  0  0  0.120796  0.113266  0  0.972073  0
H  H30  1  0.83495942  0.28481785  0.66055089  1  0  0.122082  0  0.944039  0  0  0.127424  0  1.015735  0  0  0.130269  0  1.012839  0  0  0.121221  0.125272  0  1.01808  0
H  H31  1  0.16504163  0.71518290  0.33945066  1  0  0.122101  0  0.944016  0  0  0.12745  0  1.015698  0  0  0.130296  0  1.012803  0  0  0.121239  0.1253  0  1.018043  0
C  C32  1  0.91154965  0.76972779  0.10410214  1  0  0.687574  0  3.809394  0  0  0.636302  0  4.109078  0  0  0.671574  0  4.1026  0  0  0.215189  0.612535  0  4.112097  0
C  C33  1  0.08844585  0.23026939  0.89589765  1  0  0.687671  0  3.809325  0  0  0.636359  0  4.10909  0  0  0.671635  0  4.102606  0  0  0.215236  0.612594  0  4.112109  0
C  C34  1  0.84087220  0.90966789  0.13558896  1  0  -0.116718  0  3.617166  0  0  -0.114481  0  3.85589  0  0  -0.12106  0  3.870898  0  0  -0.090946  -0.109911  0  3.845894  0
C  C35  1  0.15912625  0.09033167  0.86441133  1  0  -0.11653  0  3.61691  0  0  -0.114367  0  3.855763  0  0  -0.120953  0  3.870784  0  0  -0.090881  -0.1098  0  3.845769  0
C  C36  1  0.73822144  0.93493964  0.02106298  1  0  -0.117274  0  3.661596  0  0  -0.163274  0  3.92259  0  0  -0.163648  0  3.936302  0  0  -0.171983  -0.163381  0  3.914222  0
C  C37  1  0.26177735  0.06506113  0.97893839  1  0  -0.11736  0  3.661589  0  0  -0.163365  0  3.922606  0  0  -0.163738  0  3.936328  0  0  -0.172014  -0.163468  0  3.914238  0
C  C38  1  0.58212953  0.80209509  0.98522285  1  0  -0.117291  0  3.676993  0  0  -0.161999  0  3.936284  0  0  -0.162213  0  3.949453  0  0  -0.170046  -0.161664  0  3.927338  0
C  C39  1  0.41786925  0.19790567  0.01477760  1  0  -0.11731  0  3.677009  0  0  -0.161982  0  3.936296  0  0  -0.16219  0  3.949455  0  0  -0.170068  -0.161646  0  3.927347  0
C  C40  1  0.49044765  0.78532653  0.09732493  1  0  -0.111026  0  3.631136  0  0  -0.1064  0  3.866181  0  0  -0.112825  0  3.881822  0  0  -0.089172  -0.102279  0  3.854922  0
C  C41  1  0.50955227  0.21467422  0.90267561  1  0  -0.11104  0  3.631171  0  0  -0.106439  0  3.866254  0  0  -0.112869  0  3.881895  0  0  -0.089162  -0.102319  0  3.854998  0
C  C42  1  0.59223048  0.75582484  0.20999442  1  0  -0.120404  0  3.681187  0  0  -0.164057  0  3.936759  0  0  -0.164424  0  3.950591  0  0  -0.173736  -0.163303  0  3.927282  0
C  C43  1  0.40776876  0.24417352  0.79000581  1  0  -0.120464  0  3.68113  0  0  -0.16414  0  3.936755  0  0  -0.16451  0  3.950594  0  0  -0.173752  -0.163387  0  3.927281  0
C  C44  1  0.74610197  0.89149955  0.24591378  1  0  -0.110376  0  3.699263  0  0  -0.158099  0  3.963315  0  0  -0.158939  0  3.978805  0  0  -0.172005  -0.157819  0  3.95345  0
C  C45  1  0.25389727  0.10849881  0.75408646  1  0  -0.110426  0  3.699216  0  0  -0.158107  0  3.963298  0  0  -0.158949  0  3.97879  0  0  -0.172032  -0.157822  0  3.953435  0
C  C46  1  0.32555133  0.66587786  0.06437220  1  0  0.6832  0  3.823033  0  0  0.628862  0  4.12837  0  0  0.664244  0  4.121481  0  0  0.211392  0.605557  0  4.129929  0
C  C47  1  0.67444824  0.33412169  0.93562633  1  0  0.68321  0  3.823004  0  0  0.628879  0  4.128341  0  0  0.664265  0  4.121453  0  0  0.211381  0.605574  0  4.129903  0
C  C48  1  0.85901988  0.37022473  0.37137480  1  0  0.166852  0  3.647579  0  0  0.100945  0  3.920339  0  0  0.115341  0  3.933145  0  0  0.145637  0.091545  0  3.910881  0
C  C49  1  0.14098252  0.62978081  0.62862738  1  0  0.166835  0  3.647592  0  0  0.100933  0  3.920324  0  0  0.115318  0  3.93315  0  0  0.145567  0.091525  0  3.910883  0
C  C50  1  0.06703571  0.28163957  0.36925528  1  0  0.000196  0  3.748617  0  0  -0.036253  0  4.023228  0  0  -0.034075  0  4.043161  0  0  0.000178  -0.038183  0  4.00998  0
C  C51  1  0.93296828  0.71836356  0.63074493  1  0  0.000309  0  3.748659  0  0  -0.036129  0  4.02323  0  0  -0.033953  0  4.043178  0  0  0.000227  -0.038061  0  4.009996  0
C  C52  1  0.00476023  0.24586104  0.47619465  1  0  -0.063716  0  3.66298  0  0  -0.106089  0  3.928164  0  0  -0.10516  0  3.946872  0  0  0.002967  -0.105879  0  3.913893  0
C  C53  1  0.99524081  0.75413970  0.52380506  1  0  -0.063732  0  3.662984  0  0  -0.106125  0  3.928193  0  0  -0.105192  0  3.946892  0  0  0.002966  -0.10591  0  3.913914  0
C  C54  1  0.76726676  0.28888557  0.57118907  1  0  -0.025798  0  3.631347  0  0  -0.091753  0  3.886386  0  0  -0.086863  0  3.894101  0  0  -0.043959  -0.095146  0  3.881996  0
C  C55  1  0.23273509  0.71111398  0.42881150  1  0  -0.02576  0  3.631322  0  0  -0.091706  0  3.886299  0  0  -0.086822  0  3.894032  0  0  -0.043957  -0.095105  0  3.881926  0
C  C56  1  0.62968978  0.14065946  0.53466703  1  0  -0.074195  0  3.769095  0  0  -0.084568  0  4.048438  0  0  -0.086746  0  4.068557  0  0  -0.016667  -0.083267  0  4.035471  0
C  C57  1  0.37031400  0.85933887  0.46533265  1  0  -0.074229  0  3.768945  0  0  -0.084547  0  4.048191  0  0  -0.086752  0  4.068353  0  0  -0.016674  -0.083274  0  4.035267  0
C  C58  1  0.63245039  0.99932585  0.57895128  1  0  0.186423  0  3.763775  0  0  0.149777  0  4.067666  0  0  0.157699  0  4.077939  0  0  0.099565  0.143899  0  4.061767  0
C  C59  1  0.36755111  0.00067249  0.42104729  1  0  0.186373  0  3.763563  0  0  0.149676  0  4.067545  0  0  0.157629  0  4.077767  0  0  0.099495  0.143831  0  4.061595  0
C  C60  1  0.49439617  0.13793164  0.45489238  1  0  0.173882  0  3.779196  0  0  0.13953  0  4.086152  0  0  0.147516  0  4.095609  0  0  0.097161  0.133626  0  4.080687  0
C  C61  1  0.50560760  0.86206669  0.54510638  1  0  0.173823  0  3.779313  0  0  0.139629  0  4.086048  0  0  0.147532  0  4.095628  0  0  0.097158  0.133647  0  4.080701  0
N  N62  1  0.97512006  0.35931540  0.30527217  1  0  -0.364868  0  3.243049  0  0  -0.288423  0  3.531044  0  0  -0.310054  0  3.547855  0  0  -0.360295  -0.27308  0  3.519026  0
N  N63  1  0.02488200  0.64068894  0.69472893  1  0  -0.364914  0  3.243199  0  0  -0.288475  0  3.531197  0  0  -0.310096  0  3.547995  0  0  -0.360299  -0.273125  0  3.519171  0
N  N64  1  0.87384363  0.30360847  0.47636980  1  0  -0.063276  0  3.578938  0  0  0.031488  0  3.799703  0  0  0.016039  0  3.827528  0  0  -0.240236  0.041916  0  3.779949  0
N  N65  1  0.12615843  0.69639587  0.52363130  1  0  -0.063283  0  3.578887  0  0  0.031487  0  3.799653  0  0  0.016042  0  3.827482  0  0  -0.240204  0.041919  0  3.779902  0
O  O66  1  0.94217675  0.69448199  0.19226472  1  0  -0.655557  0  2.006984  0  0  -0.593137  0  2.265225  0  0  -0.622847  0  2.254861  0  0  -0.33683  -0.572922  0  2.271857  0
O  O67  1  0.05782283  0.30551757  0.80773475  1  0  -0.655672  0  2.007037  0  0  -0.593173  0  2.265252  0  0  -0.622883  0  2.254885  0  0  -0.336847  -0.572954  0  2.271876  0
O  O68  1  0.93756841  0.74090874  0.99142941  1  0  -0.645983  0  2.042154  0  0  -0.57847  0  2.301154  0  0  -0.609317  0  2.290464  0  0  -0.328476  -0.556996  0  2.308191  0
O  O69  1  0.06242483  0.25908844  0.00856928  1  0  -0.646056  0  2.042215  0  0  -0.578533  0  2.301238  0  0  -0.609381  0  2.290546  0  0  -0.328512  -0.557061  0  2.308279  0
O  O70  1  0.26349265  0.60612001  0.15455057  1  0  -0.656627  0  2.012054  0  0  -0.589419  0  2.267679  0  0  -0.619834  0  2.257045  0  0  -0.335549  -0.567576  0  2.273215  0
O  O71  1  0.73650659  0.39387835  0.84544873  1  0  -0.656596  0  2.01212  0  0  -0.589375  0  2.267739  0  0  -0.619791  0  2.257106  0  0  -0.335517  -0.567536  0  2.273273  0
O  O72  1  0.25957692  0.64063414  0.95070462  1  0  -0.651557  0  2.03146  0  0  -0.589347  0  2.29218  0  0  -0.619348  0  2.281172  0  0  -0.33256  -0.567955  0  2.296409  0
O  O73  1  0.74042186  0.35936662  0.04929583  1  0  -0.651612  0  2.031355  0  0  -0.5894  0  2.292061  0  0  -0.619403  0  2.281056  0  0  -0.332587  -0.568008  0  2.296285  0
F  F74  1  0.76112161  0.99457752  0.65617093  1  0  -0.158773  0  1.238579  0  0  -0.096288  0  1.39115  0  0  -0.105773  0  1.382992  0  0  -0.067621  -0.089617  0  1.396884  0
F  F75  1  0.23887863  0.00542442  0.34382792  1  0  -0.158793  0  1.238509  0  0  -0.096299  0  1.391096  0  0  -0.105778  0  1.382915  0  0  -0.067631  -0.089622  0  1.396806  0
F  F76  1  0.48467683  0.27280674  0.40992282  1  0  -0.169733  0  1.202523  0  0  -0.118144  0  1.357543  0  0  -0.12686  0  1.348223  0  0  -0.083184  -0.112112  0  1.36424  0
F  F77  1  0.51532694  0.72719159  0.59007594  1  0  -0.169621  0  1.202499  0  0  -0.118211  0  1.357571  0  0  -0.126855  0  1.348249  0  0  -0.083186  -0.11211  0  1.364267  0
