# generated using pymatgen
data_KH2C2(N3O)2
_symmetry_space_group_name_H-M   'P 1'
_cell_length_a   4.88383889
_cell_length_b   8.86359681
_cell_length_c   14.44283022
_cell_angle_alpha   105.53238973
_cell_angle_beta   89.99976541
_cell_angle_gamma   90.00028404
_symmetry_Int_Tables_number   1
_chemical_formula_structural   KH2C2(N3O)2
_chemical_formula_sum   'K4 H8 C8 N24 O8'
_cell_volume   602.37367387
_cell_formula_units_Z   4
loop_
 _symmetry_equiv_pos_site_id
 _symmetry_equiv_pos_as_xyz
  1  'x, y, z'
loop_
 _atom_site_type_symbol
 _atom_site_label
 _atom_site_symmetry_multiplicity
 _atom_site_fract_x
 _atom_site_fract_y
 _atom_site_fract_z
 _atom_site_occupancy
 _atom_site_hle17_bader_spin_density
 _atom_site_hle17_ddec_charge
 _atom_site_hle17_ddec_spin_density
 _atom_site_hle17_ddec_sum_bond_order
 _atom_site_hle17_magmom
 _atom_site_hse06_10hf_bader_spin_density
 _atom_site_hse06_10hf_ddec_charge
 _atom_site_hse06_10hf_ddec_spin_density
 _atom_site_hse06_10hf_ddec_sum_bond_order
 _atom_site_hse06_10hf_magmom
 _atom_site_hse06_bader_spin_density
 _atom_site_hse06_ddec_charge
 _atom_site_hse06_ddec_spin_density
 _atom_site_hse06_ddec_sum_bond_order
 _atom_site_hse06_magmom
 _atom_site_pbe_bader_spin_density
 _atom_site_pbe_cm5_charge
 _atom_site_pbe_ddec_charge
 _atom_site_pbe_ddec_spin_density
 _atom_site_pbe_ddec_sum_bond_order
 _atom_site_pbe_magmom
K  K0  1  0.21393452  0.45319591  0.61939693  1  0  0.899375  0  0.460382  0  0  0.826572  0  0.666604  0  0  0.84187  0  0.644916  0  0  0.839691  0.815216  0  0.68206  0
K  K1  1  0.71392104  0.04677936  0.88059868  1  0  0.89937  0  0.460346  0  0  0.826561  0  0.666593  0  0  0.841854  0  0.644897  0  0  0.839624  0.815192  0  0.682048  0
K  K2  1  0.78606621  0.54679643  0.38060253  1  0  0.899383  0  0.460358  0  0  0.82658  0  0.666584  0  0  0.841873  0  0.644894  0  0  0.839677  0.815226  0  0.68204  0
K  K3  1  0.28607765  0.95322236  0.11940296  1  0  0.899384  0  0.460342  0  0  0.826572  0  0.666591  0  0  0.841865  0  0.644897  0  0  0.839636  0.815216  0  0.682047  0
H  H4  1  0.70099904  0.37549280  0.74643119  1  0  0.320955  0  0.955729  0  0  0.295994  0  1.033012  0  0  0.304792  0  1.02539  0  0  0.297577  0.289803  0  1.038322  0
H  H5  1  0.20099572  0.12450938  0.75356941  1  0  0.32097  0  0.955679  0  0  0.295999  0  1.032985  0  0  0.304797  0  1.025363  0  0  0.297592  0.289804  0  1.038294  0
H  H6  1  0.29900170  0.62450772  0.25356888  1  0  0.320951  0  0.955726  0  0  0.295992  0  1.033005  0  0  0.30479  0  1.025386  0  0  0.297578  0.289801  0  1.038316  0
H  H7  1  0.79900296  0.87549115  0.24643066  1  0  0.320983  0  0.95566  0  0  0.296014  0  1.032963  0  0  0.304812  0  1.025343  0  0  0.297599  0.289822  0  1.038273  0
H  H8  1  0.69477490  0.57266256  0.81286134  1  0  0.34252  0  0.909262  0  0  0.320676  0  0.983047  0  0  0.328334  0  0.975987  0  0  0.309146  0.31527  0  0.988032  0
H  H9  1  0.19477301  0.92733807  0.68713708  1  0  0.342513  0  0.909263  0  0  0.320674  0  0.983033  0  0  0.32833  0  0.975972  0  0  0.309151  0.315264  0  0.988025  0
H  H10  1  0.30522583  0.42733679  0.18713854  1  0  0.342518  0  0.909272  0  0  0.320676  0  0.983054  0  0  0.328332  0  0.975996  0  0  0.30914  0.315268  0  0.988043  0
H  H11  1  0.80522772  0.07266127  0.31286211  1  0  0.342508  0  0.909279  0  0  0.320672  0  0.983043  0  0  0.328328  0  0.975985  0  0  0.309159  0.315263  0  0.988035  0
C  C12  1  0.09009552  0.46331019  0.96114874  1  0  0.206083  0  3.790672  0  0  0.170635  0  4.079746  0  0  0.182208  0  4.089918  0  0  0.22153  0.16279  0  4.072999  0
C  C13  1  0.59009831  0.03668936  0.53884951  1  0  0.206054  0  3.79064  0  0  0.170625  0  4.079724  0  0  0.182199  0  4.08989  0  0  0.221539  0.162782  0  4.072972  0
C  C14  1  0.90990317  0.53669033  0.03885133  1  0  0.206173  0  3.790632  0  0  0.170716  0  4.079711  0  0  0.182289  0  4.089884  0  0  0.221577  0.16288  0  4.07296  0
C  C15  1  0.40990447  0.96331113  0.46114847  1  0  0.206283  0  3.790605  0  0  0.170775  0  4.079744  0  0  0.18235  0  4.089911  0  0  0.22155  0.162943  0  4.072984  0
C  C16  1  0.40725844  0.43329039  0.84952497  1  0  0.521172  0  3.858866  0  0  0.462292  0  4.15112  0  0  0.485688  0  4.159421  0  0  0.331267  0.446575  0  4.145197  0
C  C17  1  0.90725812  0.06671109  0.65047453  1  0  0.521107  0  3.858986  0  0  0.462245  0  4.151204  0  0  0.485642  0  4.159502  0  0  0.331253  0.446526  0  4.145275  0
C  C18  1  0.59274025  0.56671014  0.15047579  1  0  0.521162  0  3.858901  0  0  0.462249  0  4.151192  0  0  0.485645  0  4.159495  0  0  0.33123  0.446531  0  4.145273  0
C  C19  1  0.09274262  0.93328943  0.34952485  1  0  0.521126  0  3.859066  0  0  0.462274  0  4.151267  0  0  0.485671  0  4.15957  0  0  0.331271  0.446555  0  4.145342  0
N  N20  1  0.33309201  0.70389506  0.94352119  1  0  -0.296456  0  2.705572  0  0  -0.326334  0  3.007802  0  0  -0.334307  0  3.01586  0  0  -0.200271  -0.321019  0  3.002549  0
N  N21  1  0.83309280  0.79610474  0.55647830  1  0  -0.29639  0  2.705642  0  0  -0.326275  0  3.007881  0  0  -0.334238  0  3.015931  0  0  -0.200295  -0.320963  0  3.002636  0
N  N22  1  0.66690668  0.29610546  0.05647888  1  0  -0.296411  0  2.705641  0  0  -0.326296  0  3.007869  0  0  -0.334267  0  3.01593  0  0  -0.200291  -0.320978  0  3.002607  0
N  N23  1  0.16690794  0.20389226  0.44352052  1  0  -0.296383  0  2.705737  0  0  -0.326284  0  3.007983  0  0  -0.334253  0  3.016044  0  0  -0.200303  -0.320967  0  3.002725  0
N  N24  1  0.27379384  0.54482439  0.91913428  1  0  -0.122598  0  3.571016  0  0  -0.035449  0  3.803035  0  0  -0.050131  0  3.823439  0  0  -0.138983  -0.0258  0  3.789357  0
N  N25  1  0.77379164  0.95517528  0.58086596  1  0  -0.122606  0  3.571036  0  0  -0.035453  0  3.803023  0  0  -0.050133  0  3.823422  0  0  -0.138947  -0.025805  0  3.789341  0
N  N26  1  0.72620690  0.45517497  0.08086630  1  0  -0.122622  0  3.571022  0  0  -0.035454  0  3.80304  0  0  -0.050136  0  3.823444  0  0  -0.138954  -0.025804  0  3.789357  0
N  N27  1  0.22620909  0.04482406  0.41913323  1  0  -0.12271  0  3.571275  0  0  -0.035523  0  3.803261  0  0  -0.050207  0  3.823667  0  0  -0.138952  -0.025872  0  3.789572  0
N  N28  1  0.18315322  0.77604722  0.89078220  1  0  0.595944  0  4.051657  0  0  0.623695  0  4.356017  0  0  0.647961  0  4.364491  0  0  0.069893  0.60745  0  4.350058  0
N  N29  1  0.68316093  0.72395345  0.60922040  1  0  0.595761  0  4.051845  0  0  0.62351  0  4.356226  0  0  0.647768  0  4.364698  0  0  0.069839  0.607266  0  4.350266  0
N  N30  1  0.81684137  0.22395449  0.10921875  1  0  0.595801  0  4.051893  0  0  0.623561  0  4.356249  0  0  0.647824  0  4.364724  0  0  0.069868  0.607316  0  4.350286  0
N  N31  1  0.31684186  0.27604709  0.39078036  1  0  0.595837  0  4.051896  0  0  0.623594  0  4.356264  0  0  0.647855  0  4.36474  0  0  0.069862  0.60735  0  4.350303  0
N  N32  1  0.11007119  0.31186096  0.91865948  1  0  -0.28266  0  2.995598  0  0  -0.274311  0  3.297414  0  0  -0.278731  0  3.308258  0  0  -0.281238  -0.271004  0  3.289976  0
N  N33  1  0.61007277  0.18813866  0.58134014  1  0  -0.282698  0  2.995557  0  0  -0.274347  0  3.297359  0  0  -0.278767  0  3.308199  0  0  -0.281304  -0.271045  0  3.289929  0
N  N34  1  0.88992750  0.68813958  0.08134129  1  0  -0.282737  0  2.995573  0  0  -0.27439  0  3.297386  0  0  -0.278811  0  3.308229  0  0  -0.281286  -0.271088  0  3.289957  0
N  N35  1  0.38992592  0.81186186  0.41865923  1  0  -0.282798  0  2.995559  0  0  -0.274439  0  3.297394  0  0  -0.278859  0  3.308232  0  0  -0.281309  -0.271139  0  3.289965  0
N  N36  1  0.31133328  0.29165515  0.84870161  1  0  -0.412588  0  2.997807  0  0  -0.368365  0  3.282936  0  0  -0.383949  0  3.293507  0  0  -0.290955  -0.35781  0  3.275647  0
N  N37  1  0.81133625  0.20834492  0.65129711  1  0  -0.412576  0  2.997812  0  0  -0.368363  0  3.282939  0  0  -0.383947  0  3.293508  0  0  -0.290977  -0.357811  0  3.275655  0
N  N38  1  0.68866541  0.70834538  0.15129916  1  0  -0.412567  0  2.997806  0  0  -0.368329  0  3.282931  0  0  -0.383914  0  3.293503  0  0  -0.290921  -0.357776  0  3.275652  0
N  N39  1  0.18866449  0.79165559  0.34870226  1  0  -0.412554  0  2.997811  0  0  -0.36834  0  3.282927  0  0  -0.383924  0  3.293497  0  0  -0.290952  -0.357786  0  3.275648  0
N  N40  1  0.59228348  0.46879354  0.78973803  1  0  -0.718907  0  3.127537  0  0  -0.685742  0  3.38234  0  0  -0.705805  0  3.375997  0  0  -0.621314  -0.671635  0  3.386438  0
N  N41  1  0.09228191  0.03120719  0.71026110  1  0  -0.718821  0  3.127452  0  0  -0.685681  0  3.382299  0  0  -0.705751  0  3.375971  0  0  -0.621333  -0.671571  0  3.386395  0
N  N42  1  0.40771520  0.53120700  0.21026274  1  0  -0.718925  0  3.1276  0  0  -0.685743  0  3.382401  0  0  -0.705805  0  3.376059  0  0  -0.621323  -0.671632  0  3.386493  0
N  N43  1  0.90771883  0.96879333  0.28973897  1  0  -0.718838  0  3.127459  0  0  -0.685703  0  3.382295  0  0  -0.705767  0  3.375955  0  0  -0.621363  -0.671598  0  3.386407  0
O  O44  1  0.01735750  0.70851655  0.82545482  1  0  -0.486397  0  1.763169  0  0  -0.467667  0  1.980048  0  0  -0.480512  0  1.973772  0  0  -0.195334  -0.458751  0  1.984183  0
O  O45  1  0.51735889  0.79148370  0.67454587  1  0  -0.486416  0  1.763274  0  0  -0.467669  0  1.980097  0  0  -0.480544  0  1.973897  0  0  -0.195366  -0.458749  0  1.984231  0
O  O46  1  0.98264528  0.29148396  0.17454456  1  0  -0.48635  0  1.763302  0  0  -0.467639  0  1.980195  0  0  -0.480484  0  1.973919  0  0  -0.195314  -0.458727  0  1.984336  0
O  O47  1  0.48264185  0.20851799  0.32545369  1  0  -0.486418  0  1.76324  0  0  -0.467694  0  1.980108  0  0  -0.480553  0  1.973866  0  0  -0.195359  -0.458776  0  1.984243  0
O  O48  1  0.21789691  0.92382623  0.91181263  1  0  -0.566442  0  1.795779  0  0  -0.541993  0  2.029715  0  0  -0.557385  0  2.022436  0  0  -0.340947  -0.53108  0  2.034436  0
O  O49  1  0.71791379  0.57617575  0.58819360  1  0  -0.566322  0  1.795858  0  0  -0.541856  0  2.029733  0  0  -0.557267  0  2.022514  0  0  -0.340851  -0.530943  0  2.034453  0
O  O50  1  0.78209154  0.07617667  0.08818990  1  0  -0.566387  0  1.795893  0  0  -0.541915  0  2.029786  0  0  -0.557326  0  2.022552  0  0  -0.340932  -0.530999  0  2.034502  0
O  O51  1  0.28208899  0.42382365  0.41180906  1  0  -0.566359  0  1.795932  0  0  -0.541896  0  2.029823  0  0  -0.557301  0  2.022588  0  0  -0.34088  -0.530982  0  2.034541  0
