# generated using pymatgen
data_La2H14C24O13
_symmetry_space_group_name_H-M   'P 1'
_cell_length_a   8.60581361
_cell_length_b   10.55621956
_cell_length_c   14.32300000
_cell_angle_alpha   97.28968584
_cell_angle_beta   102.22935425
_cell_angle_gamma   104.47903260
_symmetry_Int_Tables_number   1
_chemical_formula_structural   La2H14C24O13
_chemical_formula_sum   'La4 H28 C48 O26'
_cell_volume   1208.81283510
_cell_formula_units_Z   2
loop_
 _symmetry_equiv_pos_site_id
 _symmetry_equiv_pos_as_xyz
  1  'x, y, z'
loop_
 _atom_site_type_symbol
 _atom_site_label
 _atom_site_symmetry_multiplicity
 _atom_site_fract_x
 _atom_site_fract_y
 _atom_site_fract_z
 _atom_site_occupancy
 _atom_site_hle17_bader_spin_density
 _atom_site_hle17_ddec_charge
 _atom_site_hle17_ddec_spin_density
 _atom_site_hle17_ddec_sum_bond_order
 _atom_site_hle17_magmom
 _atom_site_hse06_10hf_bader_spin_density
 _atom_site_hse06_10hf_ddec_charge
 _atom_site_hse06_10hf_ddec_spin_density
 _atom_site_hse06_10hf_ddec_sum_bond_order
 _atom_site_hse06_10hf_magmom
 _atom_site_hse06_bader_spin_density
 _atom_site_hse06_ddec_charge
 _atom_site_hse06_ddec_spin_density
 _atom_site_hse06_ddec_sum_bond_order
 _atom_site_hse06_magmom
 _atom_site_pbe_bader_charge
 _atom_site_pbe_bader_spin_density
 _atom_site_pbe_cm5_charge
 _atom_site_pbe_ddec_charge
 _atom_site_pbe_ddec_spin_density
 _atom_site_pbe_ddec_sum_bond_order
 _atom_site_pbe_magmom
La  La0  1  0.16936061  0.21959826  0.50807238  1  0  2.131772  0  1.71443  0  0  2.017854  0  2.212779  0  0  2.124086  0  2.111831  0  2.258919  0  1.402896  1.937802  0  2.283552  0
La  La1  1  0.83065376  0.78039253  0.49192635  1  0  2.131831  0  1.714333  0  0  2.017906  0  2.212701  0  0  2.124143  0  2.111724  0  2.258867  0  1.402882  1.937876  0  2.283428  0
La  La2  1  0.69834784  0.34785993  0.49756939  1  0  2.155815  0  1.729981  0  0  2.046508  0  2.232098  0  0  2.149136  0  2.134814  0  2.270095  0  1.435126  1.969158  0  2.300155  0
La  La3  1  0.30165107  0.65213086  0.50243366  1  0  2.155734  0  1.729916  0  0  2.046495  0  2.231994  0  0  2.149111  0  2.134724  0  2.270052  0  1.435079  1.969095  0  2.300141  0
H  H4  1  0.77369744  0.09679368  0.15221714  1  0  0.099884  0  0.931441  0  0  0.112122  0  0.98688  0  0  0.115554  0  0.984842  0  0.060215  0  0.108037  0.109587  0  0.988493  0
H  H5  1  0.22629394  0.90321603  0.84777625  1  0  0.09985  0  0.931211  0  0  0.112048  0  0.986729  0  0  0.115484  0  0.984687  0  0.060315  0  0.107987  0.109535  0  0.988316  0
H  H6  1  0.59235700  0.15964096  0.01534560  1  0  0.086927  0  0.950032  0  0  0.099125  0  1.006973  0  0  0.101751  0  1.006536  0  0.048747  0  0.100623  0.097245  0  1.007347  0
H  H7  1  0.40762535  0.84036676  0.98464995  1  0  0.086756  0  0.950379  0  0  0.099026  0  1.007214  0  0  0.101652  0  1.006777  0  0.048682  0  0.100635  0.097147  0  1.007587  0
H  H8  1  0.54075327  0.38239329  0.03810987  1  0  0.087584  0  0.943445  0  0  0.100938  0  0.99701  0  0  0.103367  0  0.996416  0  0.073195  0  0.103799  0.099179  0  0.997483  0
H  H9  1  0.45926007  0.61763137  0.96188771  1  0  0.087496  0  0.94368  0  0  0.1009  0  0.997186  0  0  0.103327  0  0.996592  0  0.072749  0  0.1038  0.099146  0  0.997662  0
H  H10  1  0.67962448  0.54537967  0.19323537  1  0  0.104967  0  0.949877  0  0  0.113851  0  1.012015  0  0  0.11719  0  1.010408  0  0.079633  0  0.107432  0.111396  0  1.013348  0
H  H11  1  0.32038630  0.45462108  0.80678059  1  0  0.104943  0  0.949903  0  0  0.113831  0  1.012032  0  0  0.117176  0  1.010416  0  0.079605  0  0.10743  0.111376  0  1.013364  0
H  H12  1  0.60326564  0.27997410  0.85078680  1  0  0.098768  0  0.939239  0  0  0.109444  0  0.998607  0  0  0.112673  0  0.997083  0  0.122609  0  0.105596  0.107402  0  0.999321  0
H  H13  1  0.39672377  0.72001668  0.14920527  1  0  0.098831  0  0.939174  0  0  0.109489  0  0.998555  0  0  0.112717  0  0.997031  0  0.122686  0  0.105645  0.107447  0  0.99927  0
H  H14  1  0.83436388  0.43356801  0.98574285  1  0  0.081183  0  0.990577  0  0  0.091049  0  1.055133  0  0  0.093111  0  1.055624  0  0.062507  0  0.095025  0.089564  0  1.054883  0
H  H15  1  0.16563258  0.56640583  0.01425761  1  0  0.081247  0  0.990413  0  0  0.0911  0  1.05498  0  0  0.093161  0  1.055469  0  0.06269  0  0.095091  0.089611  0  1.054739  0
H  H16  1  0.97119518  0.66059254  0.96393520  1  0  0.076756  0  0.983524  0  0  0.087551  0  1.047461  0  0  0.089654  0  1.047023  0  0.051115  0  0.096518  0.086004  0  1.047849  0
H  H17  1  0.02881744  0.33938329  0.03607448  1  0  0.07671  0  0.983587  0  0  0.087533  0  1.047483  0  0  0.089629  0  1.047063  0  0.051523  0  0.09651  0.085984  0  1.047874  0
H  H18  1  0.88024894  0.73619265  0.80900417  1  0  0.104323  0  0.960338  0  0  0.112393  0  1.024218  0  0  0.115708  0  1.023034  0  0.106308  0  0.103726  0.110028  0  1.025165  0
H  H19  1  0.11977852  0.26379814  0.19101508  1  0  0.104398  0  0.960214  0  0  0.112376  0  1.024191  0  0  0.115686  0  1.023021  0  0.106158  0  0.103794  0.110016  0  1.025137  0
H  H20  1  0.55013540  0.86730643  0.80305671  1  0  0.098692  0  0.976902  0  0  0.105511  0  1.044764  0  0  0.108031  0  1.044847  0  0.102818  0  0.101171  0.103607  0  1.044996  0
H  H21  1  0.44984129  0.13273218  0.19693193  1  0  0.098695  0  0.976707  0  0  0.105495  0  1.044629  0  0  0.108029  0  1.044675  0  0.103224  0  0.101129  0.103588  0  1.044861  0
H  H22  1  0.75386416  0.96243289  0.96434829  1  0  0.08095  0  0.954991  0  0  0.093856  0  1.012352  0  0  0.096432  0  1.011629  0  0.054784  0  0.098226  0.091994  0  1.012936  0
H  H23  1  0.24609318  0.03759476  0.03564942  1  0  0.08101  0  0.955187  0  0  0.094012  0  1.012427  0  0  0.096589  0  1.011706  0  0.055066  0  0.0983  0.092144  0  1.01301  0
H  H24  1  0.01410868  0.13887391  0.97611408  1  0  0.081788  0  0.970609  0  0  0.094127  0  1.030488  0  0  0.096413  0  1.030043  0  0.065512  0  0.098219  0.092499  0  1.030887  0
H  H25  1  0.98587484  0.86114378  0.02388394  1  0  0.081824  0  0.970592  0  0  0.094161  0  1.03047  0  0  0.096408  0  1.030069  0  0.065456  0  0.098206  0.09253  0  1.030877  0
H  H26  1  0.06452071  0.22728862  0.82769501  1  0  0.101779  0  0.933711  0  0  0.114247  0  0.989114  0  0  0.117707  0  0.987153  0  0.094271  0  0.10693  0.11181  0  0.990583  0
H  H27  1  0.93547176  0.77271413  0.17229577  1  0  0.101736  0  0.933824  0  0  0.114201  0  0.989234  0  0  0.11766  0  0.987276  0  0.093982  0  0.106879  0.111763  0  0.990704  0
H  H28  1  0.14884936  0.02088365  0.63225961  1  0  0.442721  0  0.811071  0  0  0.42089  0  0.871579  0  0  0.430425  0  0.86163  0  0.636144  0  0.331425  0.413937  0  0.878871  0
H  H29  1  0.85114918  0.97911610  0.36774213  1  0  0.442761  0  0.81101  0  0  0.420941  0  0.871497  0  0  0.430471  0  0.861557  0  0.636168  0  0.331475  0.413988  0  0.878789  0
H  H30  1  0.26117738  0.96279564  0.57576851  1  0  0.456576  0  0.825912  0  0  0.427993  0  0.886101  0  0  0.439038  0  0.870266  0  0.641303  0  0.32242  0.41999  0  0.897568  0
H  H31  1  0.73883388  0.03720312  0.42424104  1  0  0.456659  0  0.825796  0  0  0.428056  0  0.886015  0  0  0.439098  0  0.870183  0  0.641114  0  0.322471  0.420054  0  0.897479  0
C  C32  1  0.92336140  0.24402663  0.33222945  1  0  0.668547  0  3.880159  0  0  0.623401  0  4.171279  0  0  0.659551  0  4.163807  0  1.537195  0  0.217617  0.598386  0  4.175859  0
C  C33  1  0.07663417  0.75596814  0.66776587  1  0  0.668364  0  3.880044  0  0  0.623307  0  4.171035  0  0  0.659463  0  4.16356  0  1.537861  0  0.217609  0.59829  0  4.175615  0
C  C34  1  0.82549736  0.28435592  0.24824978  1  0  -0.076796  0  3.733512  0  0  -0.064718  0  3.9688  0  0  -0.071087  0  3.988932  0  -0.086261  0  -0.003989  -0.060642  0  3.955592  0
C  C35  1  0.17450073  0.71563586  0.75175186  1  0  -0.076674  0  3.733109  0  0  -0.064606  0  3.968341  0  0  -0.070985  0  3.988494  0  -0.086202  0  -0.004039  -0.060541  0  3.955142  0
C  C36  1  0.75228527  0.19478422  0.15966734  1  0  -0.060922  0  3.730315  0  0  -0.084236  0  3.981326  0  0  -0.083692  0  4.000049  0  0.031346  0  -0.075926  -0.084465  0  3.968786  0
C  C37  1  0.24772327  0.80521354  0.84033758  1  0  -0.060975  0  3.729902  0  0  -0.084273  0  3.980939  0  0  -0.083733  0  3.99967  0  0.031463  0  -0.075914  -0.084516  0  3.968389  0
C  C38  1  0.65054039  0.23012180  0.08396522  1  0  -0.087253  0  3.782853  0  0  -0.101055  0  4.036457  0  0  -0.104306  0  4.058222  0  -2e-05  0  -0.09121  -0.098941  0  4.021753  0
C  C39  1  0.34946921  0.76987895  0.91604291  1  0  -0.08689  0  3.783014  0  0  -0.100718  0  4.036566  0  0  -0.103965  0  4.058326  0  -0.000277  0  -0.091136  -0.098607  0  4.02187  0
C  C40  1  0.62218689  0.35529118  0.09664134  1  0  -0.049526  0  3.760288  0  0  -0.062199  0  4.009702  0  0  -0.062535  0  4.030093  0  -0.076741  0  -0.079371  -0.061803  0  3.995801  0
C  C41  1  0.37783467  0.64472651  0.90337339  1  0  -0.049578  0  3.760344  0  0  -0.062327  0  4.009849  0  0  -0.062665  0  4.030239  0  -0.076486  0  -0.079528  -0.061938  0  3.995956  0
C  C42  1  0.69891992  0.44676629  0.18366251  1  0  -0.07139  0  3.701588  0  0  -0.095213  0  3.951808  0  0  -0.096961  0  3.970624  0  0.030774  0  -0.077796  -0.09408  0  3.939265  0
C  C43  1  0.30109643  0.55324343  0.81635780  1  0  -0.071136  0  3.701409  0  0  -0.094937  0  3.951614  0  0  -0.096683  0  3.970423  0  0.030623  0  -0.077653  -0.093806  0  3.939074  0
C  C44  1  0.80158605  0.41193296  0.25946131  1  0  -0.042651  0  3.689181  0  0  -0.031587  0  3.922866  0  0  -0.033639  0  3.940236  0  -0.045808  0  0.006774  -0.030235  0  3.911445  0
C  C45  1  0.19841894  0.58805483  0.74054712  1  0  -0.043042  0  3.689576  0  0  -0.032048  0  3.923238  0  0  -0.034105  0  3.940612  0  -0.045591  0  0.006814  -0.030691  0  3.911811  0
C  C46  1  0.89412771  0.51199034  0.35132877  1  0  0.708292  0  3.869403  0  0  0.660441  0  4.166478  0  0  0.697041  0  4.157405  0  1.574758  0  0.24476  0.634948  0  4.172058  0
C  C47  1  0.10586466  0.48800543  0.64867880  1  0  0.708473  0  3.869822  0  0  0.660818  0  4.166535  0  0  0.697432  0  4.157429  0  1.574455  0  0.244875  0.635323  0  4.172124  0
C  C48  1  0.47768041  0.33164111  0.67589128  1  0  0.664964  0  3.902948  0  0  0.617653  0  4.201647  0  0  0.652657  0  4.195806  0  1.540924  0  0.216664  0.593574  0  4.204754  0
C  C49  1  0.52231517  0.66835366  0.32410823  1  0  0.665259  0  3.902994  0  0  0.617837  0  4.201855  0  0  0.652844  0  4.196008  0  1.540537  0  0.216674  0.593755  0  4.204965  0
C  C50  1  0.64002719  0.59746922  0.64982251  1  0  0.720317  0  3.846493  0  0  0.672025  0  4.145  0  0  0.709122  0  4.135112  0  1.608269  0  0.248228  0.646271  0  4.151069  0
C  C51  1  0.35998727  0.40253851  0.35018550  1  0  0.720356  0  3.846402  0  0  0.671921  0  4.145115  0  0  0.709041  0  4.135188  0  1.60845  0  0.24811  0.646166  0  4.151183  0
C  C52  1  0.69663026  0.54904995  0.74210059  1  0  -0.039856  0  3.68248  0  0  -0.029568  0  3.917061  0  0  -0.031075  0  3.933637  0  -0.03909  0  0.004678  -0.028637  0  3.906354  0
C  C53  1  0.30338645  0.45096076  0.25791078  1  0  -0.039888  0  3.682453  0  0  -0.029514  0  3.916966  0  0  -0.031023  0  3.933534  0  -0.03834  0  0.004774  -0.028582  0  3.906254  0
C  C54  1  0.61732898  0.42101749  0.75495249  1  0  -0.085423  0  3.748559  0  0  -0.072084  0  3.983679  0  0  -0.078802  0  4.004382  0  -0.071619  0  -0.008873  -0.067823  0  3.970202  0
C  C55  1  0.38267452  0.57899621  0.24505119  1  0  -0.085616  0  3.748935  0  0  -0.07226  0  3.984109  0  0  -0.078981  0  4.004804  0  -0.07189  0  -0.008956  -0.067995  0  3.970627  0
C  C56  1  0.66630508  0.37999161  0.84295490  1  0  -0.063468  0  3.737266  0  0  -0.08759  0  3.986837  0  0  -0.08768  0  4.007058  0  -0.025512  0  -0.080321  -0.087569  0  3.973402  0
C  C57  1  0.33369561  0.62000415  0.15704675  1  0  -0.063386  0  3.737424  0  0  -0.087495  0  3.986995  0  0  -0.087581  0  4.007216  0  -0.025495  0  -0.080314  -0.087476  0  3.973561  0
C  C58  1  0.79493846  0.46554524  0.91757010  1  0  -0.085077  0  3.790079  0  0  -0.098517  0  4.038698  0  0  -0.10179  0  4.061184  0  -0.03074  0  -0.095747  -0.096402  0  4.023674  0
C  C59  1  0.20506534  0.53444256  0.08243260  1  0  -0.085168  0  3.789934  0  0  -0.098605  0  4.038599  0  0  -0.101877  0  4.061079  0  -0.030594  0  -0.095831  -0.096489  0  4.023576  0
C  C60  1  0.87151802  0.59337341  0.90520935  1  0  -0.056572  0  3.767285  0  0  -0.070186  0  4.014574  0  0  -0.070832  0  4.035688  0  -0.027672  0  -0.089006  -0.06959  0  4.000214  0
C  C61  1  0.12849648  0.40661439  0.09479610  1  0  -0.056506  0  3.767166  0  0  -0.070122  0  4.014442  0  0  -0.070767  0  4.035556  0  -0.027998  0  -0.089013  -0.069527  0  4.00008  0
C  C62  1  0.82208351  0.63596885  0.81838384  1  0  -0.080515  0  3.720429  0  0  -0.103825  0  3.970944  0  0  -0.106493  0  3.991158  0  -0.039545  0  -0.083975  -0.102253  0  3.957733  0
C  C63  1  0.17793643  0.36403091  0.18162901  1  0  -0.080555  0  3.7202  0  0  -0.103827  0  3.970785  0  0  -0.106498  0  3.990998  0  -0.040001  0  -0.084036  -0.10226  0  3.957581  0
C  C64  1  0.58057653  0.92088383  0.62959972  1  0  0.720935  0  3.837434  0  0  0.673274  0  4.132723  0  0  0.711147  0  4.120994  0  1.584441  0  0.23867  0.647143  0  4.139995  0
C  C65  1  0.41942426  0.07911891  0.37039002  1  0  0.721338  0  3.837135  0  0  0.673359  0  4.132916  0  0  0.711234  0  4.121194  0  1.584628  0  0.23876  0.647211  0  4.140209  0
C  C66  1  0.69053280  0.99577040  0.72667775  1  0  -0.060935  0  3.694446  0  0  -0.049131  0  3.926162  0  0  -0.053523  0  3.943932  0  -0.029471  0  -0.003581  -0.04639  0  3.914186  0
C  C67  1  0.30944623  0.00423134  0.27330914  1  0  -0.061356  0  3.694654  0  0  -0.049445  0  3.926423  0  0  -0.053841  0  3.944201  0  -0.029758  0  -0.003549  -0.046695  0  3.914437  0
C  C68  1  0.66092943  0.94866459  0.81005761  1  0  -0.0714  0  3.729297  0  0  -0.095345  0  3.978395  0  0  -0.096019  0  3.998908  0  0.012255  0  -0.082941  -0.094597  0  3.9641  0
C  C69  1  0.33904101  0.05135310  0.18992827  1  0  -0.071245  0  3.729046  0  0  -0.095197  0  3.978164  0  0  -0.095867  0  3.998684  0  0.011412  0  -0.082881  -0.094446  0  3.963866  0
C  C70  1  0.77646115  0.00103541  0.89980116  1  0  -0.081967  0  3.798802  0  0  -0.096108  0  4.053209  0  0  -0.09917  0  4.07623  0  -0.080645  0  -0.094218  -0.093684  0  4.036947  0
C  C71  1  0.22349621  0.99898228  0.10018306  1  0  -0.082072  0  3.799511  0  0  -0.096299  0  4.053905  0  0  -0.099362  0  4.076918  0  -0.080792  0  -0.094307  -0.093868  0  4.037635  0
C  C72  1  0.92245560  0.10021882  0.90638900  1  0  -0.077483  0  3.792813  0  0  -0.091854  0  4.045356  0  0  -0.094165  0  4.068325  0  -0.035624  0  -0.093448  -0.090184  0  4.029346  0
C  C73  1  0.07752876  0.89979788  0.09359926  1  0  -0.077447  0  3.793038  0  0  -0.091833  0  4.045597  0  0  -0.094114  0  4.068581  0  -0.03555  0  -0.093444  -0.090158  0  4.029581  0
C  C74  1  0.95167524  0.14908752  0.82359573  1  0  -0.070717  0  3.729139  0  0  -0.093664  0  3.9765  0  0  -0.094743  0  3.995881  0  -0.089359  0  -0.080905  -0.092773  0  3.963491  0
C  C75  1  0.04831556  0.85091721  0.17639363  1  0  -0.070912  0  3.729061  0  0  -0.093827  0  3.976404  0  0  -0.094911  0  3.995789  0  -0.088668  0  -0.080872  -0.092941  0  3.963401  0
C  C76  1  0.83564942  0.09804036  0.73378134  1  0  -0.051192  0  3.701921  0  0  -0.040578  0  3.935282  0  0  -0.044114  0  3.953073  0  0.006516  0  0.000332  -0.038264  0  3.923778  0
C  C77  1  0.16433702  0.90194544  0.26620849  1  0  -0.050964  0  3.701859  0  0  -0.040324  0  3.935216  0  0  -0.043866  0  3.953018  0  0.006531  0  0.000249  -0.038012  0  3.92372  0
C  C78  1  0.86322252  0.15524818  0.64605741  1  0  0.716732  0  3.858394  0  0  0.669736  0  4.155216  0  0  0.707067  0  4.144938  0  1.587972  0  0.241663  0.643856  0  4.161776  0
C  C79  1  0.13679029  0.84475157  0.35393079  1  0  0.71721  0  3.85818  0  0  0.670063  0  4.155212  0  0  0.707409  0  4.144913  0  1.587197  0  0.24184  0.644189  0  4.161767  0
O  O80  1  0.91710030  0.29308867  0.41888811  1  0  -0.768123  0  2.08578  0  0  -0.721627  0  2.358109  0  0  -0.759888  0  2.350366  0  -1.216755  0  -0.411173  -0.693596  0  2.362096  0
O  O81  1  0.08290101  0.70689215  0.58110943  1  0  -0.768189  0  2.085942  0  0  -0.72173  0  2.358243  0  0  -0.759998  0  2.350509  0  -1.216636  0  -0.411214  -0.693676  0  2.36221  0
O  O82  1  0.01006990  0.16580262  0.32035529  1  0  -0.633425  0  1.931782  0  0  -0.591034  0  2.162186  0  0  -0.619849  0  2.154937  0  -1.157944  0  -0.334294  -0.570471  0  2.166512  0
O  O83  1  0.98993375  0.83419813  0.67965069  1  0  -0.633283  0  1.93175  0  0  -0.59091  0  2.162087  0  0  -0.619727  0  2.154837  0  -1.158585  0  -0.334248  -0.570344  0  2.166393  0
O  O84  1  0.35697487  0.25182063  0.69327784  1  0  -0.614537  0  1.912878  0  0  -0.575997  0  2.140283  0  0  -0.601996  0  2.130584  0  -1.168787  0  -0.329688  -0.557584  0  2.146304  0
O  O85  1  0.64302675  0.74818111  0.30672938  1  0  -0.614651  0  1.912791  0  0  -0.576079  0  2.140275  0  0  -0.602085  0  2.130563  0  -1.168488  0  -0.329676  -0.557664  0  2.146299  0
O  O86  1  0.48089682  0.34398236  0.58692414  1  0  -0.78296  0  2.131511  0  0  -0.734538  0  2.404118  0  0  -0.7734  0  2.397388  0  -1.212445  0  -0.432278  -0.705906  0  2.40717  0
O  O87  1  0.51911707  0.65601042  0.41307612  1  0  -0.782959  0  2.131398  0  0  -0.734571  0  2.404126  0  0  -0.773421  0  2.397376  0  -1.212469  0  -0.432294  -0.705941  0  2.407187  0
O  O88  1  0.71680617  0.58875341  0.58237355  1  0  -0.754971  0  2.065009  0  0  -0.709221  0  2.333169  0  0  -0.747648  0  2.327372  0  -1.220254  0  -0.391823  -0.680999  0  2.33584  0
O  O89  1  0.28321579  0.41124534  0.41763458  1  0  -0.754891  0  2.06499  0  0  -0.709064  0  2.333117  0  0  -0.747492  0  2.327304  0  -1.220501  0  -0.391684  -0.680837  0  2.335788  0
O  O90  1  0.52119091  0.64773608  0.64488771  1  0  -0.657708  0  2.028762  0  0  -0.614734  0  2.28375  0  0  -0.648079  0  2.278028  0  -1.189797  0  -0.354784  -0.590795  0  2.286998  0
O  O91  1  0.47883553  0.35227862  0.35511340  1  0  -0.657879  0  2.028722  0  0  -0.614795  0  2.283657  0  0  -0.648174  0  2.277979  0  -1.18991  0  -0.354824  -0.590855  0  2.286899  0
O  O92  1  0.65235689  0.88705502  0.56526328  1  0  -0.711594  0  2.027193  0  0  -0.666597  0  2.288935  0  0  -0.703432  0  2.28048  0  -1.205726  0  -0.381942  -0.639772  0  2.293525  0
O  O93  1  0.34763823  0.11293178  0.43472984  1  0  -0.711616  0  2.027173  0  0  -0.666593  0  2.289186  0  0  -0.70343  0  2.280745  0  -1.20574  0  -0.38201  -0.639759  0  2.293775  0
O  O94  1  0.42348832  0.88366975  0.61703902  1  0  -0.68719  0  1.982268  0  0  -0.637998  0  2.221184  0  0  -0.668611  0  2.209873  0  -1.191039  0  -0.352671  -0.616007  0  2.228321  0
O  O95  1  0.57651164  0.11633399  0.38293954  1  0  -0.687406  0  1.981948  0  0  -0.638003  0  2.220906  0  0  -0.668622  0  2.209613  0  -1.191239  0  -0.352694  -0.616012  0  2.228052  0
O  O96  1  0.80990882  0.54415591  0.41038403  1  0  -0.758093  0  2.063952  0  0  -0.710029  0  2.332879  0  0  -0.748351  0  2.326465  0  -1.213194  0  -0.404155  -0.681683  0  2.335996  0
O  O97  1  0.19007869  0.45583288  0.58962576  1  0  -0.758098  0  2.064111  0  0  -0.71013  0  2.332943  0  0  -0.74845  0  2.32651  0  -1.212838  0  -0.404145  -0.681773  0  2.336048  0
O  O98  1  0.04784853  0.55822916  0.36528432  1  0  -0.642817  0  2.048697  0  0  -0.600457  0  2.302404  0  0  -0.632942  0  2.2962  0  -1.160515  0  -0.344314  -0.577145  0  2.306048  0
O  O99  1  0.95213812  0.44177060  0.63473616  1  0  -0.642985  0  2.04874  0  0  -0.600717  0  2.302402  0  0  -0.633199  0  2.29618  0  -1.160516  0  -0.344459  -0.577406  0  2.306046  0
O  O100  1  0.74111727  0.18357405  0.59473445  1  0  -0.686545  0  2.015611  0  0  -0.646782  0  2.276274  0  0  -0.680604  0  2.266273  0  -1.189141  0  -0.389943  -0.622297  0  2.282328  0
O  O101  1  0.25887752  0.81640178  0.40524154  1  0  -0.686818  0  2.015706  0  0  -0.646999  0  2.276388  0  0  -0.680838  0  2.26639  0  -1.188788  0  -0.389968  -0.622513  0  2.282435  0
O  O102  1  0.00555842  0.17355476  0.62948253  1  0  -0.692598  0  2.032208  0  0  -0.646483  0  2.289907  0  0  -0.680764  0  2.281179  0  -1.198207  0  -0.370365  -0.621527  0  2.294845  0
O  O103  1  0.99445712  0.82644599  0.37050891  1  0  -0.6928  0  2.031888  0  0  -0.646635  0  2.289698  0  0  -0.680867  0  2.280846  0  -1.197829  0  -0.370448  -0.62168  0  2.294634  0
O  O104  1  0.16092502  0.99490440  0.56665622  1  0  -0.886503  0  1.908388  0  0  -0.840976  0  2.110999  0  0  -0.87062  0  2.086185  0  -1.240598  0  -0.597806  -0.819213  0  2.128207  0
O  O105  1  0.83907805  0.00509136  0.43334573  1  0  -0.886565  0  1.908221  0  0  -0.841048  0  2.110857  0  0  -0.870687  0  2.086051  0  -1.240423  0  -0.597895  -0.819282  0  2.128068  0
