# generated using pymatgen
data_Zn4H20C42N4O17
_symmetry_space_group_name_H-M   'P 1'
_cell_length_a   18.35227933
_cell_length_b   18.34718890
_cell_length_c   21.59815118
_cell_angle_alpha   115.11617675
_cell_angle_beta   115.14657562
_cell_angle_gamma   90.01136086
_symmetry_Int_Tables_number   1
_chemical_formula_structural   Zn4H20C42N4O17
_chemical_formula_sum   'Zn8 H40 C84 N8 O34'
_cell_volume   5814.24348420
_cell_formula_units_Z   2
loop_
 _symmetry_equiv_pos_site_id
 _symmetry_equiv_pos_as_xyz
  1  'x, y, z'
loop_
 _atom_site_type_symbol
 _atom_site_label
 _atom_site_symmetry_multiplicity
 _atom_site_fract_x
 _atom_site_fract_y
 _atom_site_fract_z
 _atom_site_occupancy
 _atom_site_pbe_bader_charge
 _atom_site_pbe_bader_spin_density
 _atom_site_pbe_cm5_charge
 _atom_site_pbe_ddec_charge
 _atom_site_pbe_ddec_spin_density
 _atom_site_pbe_ddec_sum_bond_order
 _atom_site_pbe_magmom
Zn  Zn0  1  0.19517539  0.78256063  0.56533933  1  1.299477  0  0.675243  0.965573  0  2.373284  0
Zn  Zn1  1  0.80481830  0.21743230  0.43465221  1  1.299506  0  0.675304  0.965665  0  2.373165  0
Zn  Zn2  1  0.78257017  0.37027844  0.56544893  1  1.315116  0  0.675359  0.965688  0  2.372213  0
Zn  Zn3  1  0.21741905  0.62971554  0.43453196  1  1.314889  0  0.675383  0.965676  0  2.372088  0
Zn  Zn4  1  0.37027275  0.78274318  0.56550333  1  1.316024  0  0.675437  0.965627  0  2.372222  0
Zn  Zn5  1  0.62971996  0.21725907  0.43449401  1  1.316005  0  0.675496  0.965886  0  2.372283  0
Zn  Zn6  1  0.78277589  0.19509380  0.56534586  1  1.300813  0  0.675502  0.965956  0  2.371101  0
Zn  Zn7  1  0.21723378  0.80490114  0.43464068  1  1.30055  0  0.675527  0.966034  0  2.371318  0
H  H8  1  0.04460921  0.95006720  0.59840065  1  0.077424  0  0.112813  0.11948  0  0.987763  0
H  H9  1  0.55181554  0.94047525  0.59101438  1  0.118312  0  0.113647  0.120933  0  0.985269  0
H  H10  1  0.34946632  0.44843823  0.40914172  1  0.133042  0  0.113188  0.120727  0  0.985289  0
H  H11  1  0.65053890  0.55156042  0.59082988  1  0.133246  0  0.113268  0.120816  0  0.985149  0
H  H12  1  0.96086914  0.34942235  0.40933434  1  0.099512  0  0.113529  0.12123  0  0.98448  0
H  H13  1  0.03911658  0.65057207  0.59065602  1  0.099163  0  0.113508  0.121093  0  0.984522  0
H  H14  1  0.05945093  0.96094815  0.40899150  1  0.120621  0  0.113739  0.121158  0  0.985341  0
H  H15  1  0.94054738  0.03904370  0.59099972  1  0.120708  0  0.113759  0.121203  0  0.985471  0
H  H16  1  0.95539216  0.04992496  0.40158685  1  0.077668  0  0.112757  0.119413  0  0.987726  0
H  H17  1  0.94999368  0.55432865  0.59830667  1  0.074355  0  0.112872  0.119514  0  0.987155  0
H  H18  1  0.04999590  0.44566878  0.40168756  1  0.074479  0  0.112855  0.119482  0  0.987208  0
H  H19  1  0.55422460  0.64831544  0.59841975  1  0.11375  0  0.112816  0.119016  0  0.986254  0
H  H20  1  0.44578818  0.35169009  0.40155509  1  0.116519  0  0.112772  0.119057  0  0.986186  0
H  H21  1  0.64833834  0.04441454  0.59842020  1  0.127921  0  0.112719  0.11919  0  0.986776  0
H  H22  1  0.35169627  0.95557433  0.40159376  1  0.127638  0  0.112877  0.119436  0  0.986666  0
H  H23  1  0.44821310  0.05951899  0.40900163  1  0.118792  0  0.113531  0.120734  0  0.985388  0
H  H24  1  0.65935991  0.91658554  0.20178509  1  0.087137  0  0.102294  0.101913  0  0.98199  0
H  H25  1  0.68518736  0.01164812  0.28838106  1  0.055162  0  0.096052  0.095329  0  1.010966  0
H  H26  1  0.76544087  0.96753422  0.26933105  1  0.099523  0  0.116562  0.13175  0  0.964128  0
H  H27  1  0.31483301  0.98833866  0.71165569  1  0.054426  0  0.096072  0.095383  0  1.011014  0
H  H28  1  0.34064094  0.08340538  0.79823460  1  0.087702  0  0.102354  0.101994  0  0.981955  0
H  H29  1  0.23455833  0.03244844  0.73067403  1  0.099426  0  0.11651  0.131449  0  0.963913  0
H  H30  1  0.91674685  0.54187567  0.20204743  1  0.067665  0  0.102512  0.102106  0  0.98201  0
H  H31  1  0.01184700  0.60279467  0.28854378  1  0.054785  0  0.095915  0.095581  0  1.010317  0
H  H32  1  0.96820238  0.50329994  0.26949141  1  0.079826  0  0.116828  0.131587  0  0.963945  0
H  H33  1  0.98821285  0.39722702  0.71150777  1  0.055164  0  0.095887  0.095338  0  1.010393  0
H  H34  1  0.08328091  0.45815640  0.79804113  1  0.067173  0  0.102672  0.102359  0  0.981627  0
H  H35  1  0.03187708  0.49673663  0.73058716  1  0.081179  0  0.116796  0.131489  0  0.963829  0
H  H36  1  0.54319982  0.28572752  0.20186724  1  0.03975  0  0.102792  0.102302  0  0.98275  0
H  H37  1  0.60396903  0.27717220  0.28844683  1  0.038662  0  0.096201  0.095749  0  1.010248  0
H  H38  1  0.50466445  0.30222819  0.26940007  1  0.108642  0  0.116674  0.131799  0  0.963072  0
H  H39  1  0.39601474  0.72285479  0.71153910  1  0.039285  0  0.096082  0.09555  0  1.010336  0
H  H40  1  0.45677130  0.71421051  0.79806840  1  0.039341  0  0.102832  0.102324  0  0.982856  0
H  H41  1  0.49530894  0.69777696  0.73054462  1  0.107012  0  0.11658  0.131738  0  0.963138  0
H  H42  1  0.28480272  0.66010342  0.20165774  1  0.043143  0  0.102689  0.102791  0  0.98157  0
H  H43  1  0.27655966  0.68563346  0.28831859  1  0.045504  0  0.096218  0.096008  0  1.010338  0
H  H44  1  0.30118514  0.76610646  0.26926288  1  0.13605  0  0.116591  0.132108  0  0.964889  0
H  H45  1  0.72346935  0.31434658  0.71163053  1  0.047066  0  0.096011  0.096696  0  1.009775  0
H  H46  1  0.71511497  0.33984695  0.79823679  1  0.043493  0  0.102603  0.102448  0  0.982055  0
H  H47  1  0.69881095  0.23385672  0.73065330  1  0.135419  0  0.116626  0.134191  0  0.962299  0
C  C48  1  0.63437515  0.04124936  0.16484913  1  0.526198  0  0.105621  0.221753  0  4.012511  0
C  C49  1  0.36561218  0.95872380  0.83516382  1  0.527017  0  0.105437  0.222345  0  4.012653  0
C  C50  1  0.91685632  0.40544399  0.91709277  1  0.018163  0  -0.004253  -0.067659  0  3.985736  0
C  C51  1  0.59440193  0.99946947  0.08284238  1  0.105779  0  -0.004365  -0.067329  0  3.986782  0
C  C52  1  0.40557600  0.00049790  0.91717043  1  0.099003  0  -0.004431  -0.067582  0  3.986585  0
C  C53  1  0.99955468  0.48844582  0.08287015  1  0.106753  0  -0.004657  -0.067835  0  3.986625  0
C  C54  1  0.00040991  0.51157958  0.91712498  1  0.106137  0  -0.004617  -0.067601  0  3.986545  0
C  C55  1  0.48882100  0.08363863  0.08288861  1  0.050226  0  -0.004496  -0.068015  0  3.987763  0
C  C56  1  0.51115350  0.91632835  0.91712447  1  0.065256  0  -0.004633  -0.068221  0  3.987934  0
C  C57  1  0.08308438  0.59460570  0.08290130  1  0.017269  0  -0.004392  -0.068033  0  3.986052  0
C  C58  1  0.04124498  0.53057650  0.16488144  1  0.511597  0  0.106089  0.22311  0  4.009738  0
C  C59  1  0.94201156  0.04926729  0.49579803  1  -0.059051  0  -0.013003  -0.03468  0  3.971844  0
C  C60  1  0.05799383  0.95073231  0.50419718  1  -0.059228  0  -0.013142  -0.034712  0  3.972096  0
C  C61  1  0.04930218  0.55358083  0.49563777  1  -0.048052  0  -0.012836  -0.035213  0  3.973226  0
C  C62  1  0.95067458  0.44642136  0.50434609  1  -0.048793  0  -0.012756  -0.034986  0  3.972974  0
C  C63  1  0.55361913  0.44640314  0.49568199  1  -0.054814  0  -0.01326  -0.035626  0  3.975159  0
C  C64  1  0.44638067  0.55359962  0.50431381  1  -0.054895  0  -0.013142  -0.035519  0  3.974839  0
C  C65  1  0.44648629  0.94200648  0.49576130  1  -0.110672  0  -0.013197  -0.034264  0  3.972384  0
C  C66  1  0.95872868  0.46942941  0.83511351  1  0.511629  0  0.106068  0.222888  0  4.009839  0
C  C67  1  0.55354440  0.05796905  0.50424010  1  -0.110379  0  -0.01298  -0.033844  0  3.972555  0
C  C68  1  0.52077284  0.02074415  0.04138117  1  0.128414  0  0.015057  0.040893  0  3.939778  0
C  C69  1  0.53106096  0.12397054  0.16488173  1  0.499579  0  0.105475  0.222653  0  4.014466  0
C  C70  1  0.47919610  0.97922267  0.95863931  1  -0.064015  0  0.015278  0.041512  0  3.939441  0
C  C71  1  0.02060792  0.52073925  0.04137728  1  -0.081883  0  0.01566  0.042506  0  3.937979  0
C  C72  1  0.97933992  0.47930147  0.95862146  1  0.076426  0  0.015501  0.041899  0  3.938138  0
C  C73  1  0.38074393  0.16853562  0.07790046  1  0.866257  0  0.174721  0.228194  0  4.05037  0
C  C74  1  0.61922299  0.83143221  0.92210072  1  0.868123  0  0.174802  0.228192  0  4.050349  0
C  C75  1  0.16734639  0.69816206  0.07785740  1  0.866935  0  0.174783  0.228201  0  4.049948  0
C  C76  1  0.46891332  0.87599937  0.83512805  1  0.49918  0  0.105536  0.223037  0  4.015334  0
C  C77  1  0.83254723  0.30193347  0.92214202  1  0.868825  0  0.174765  0.227965  0  4.051409  0
C  C78  1  0.69727704  0.90938882  0.07774851  1  0.87248  0  0.175534  0.228154  0  4.050368  0
C  C79  1  0.30269841  0.09057499  0.92225935  1  0.873104  0  0.175869  0.228562  0  4.050068  0
C  C80  1  0.91010586  0.37988501  0.07777248  1  0.881661  0  0.175406  0.229018  0  4.050045  0
C  C81  1  0.08982965  0.62017536  0.92223490  1  0.880606  0  0.175347  0.228764  0  4.051282  0
C  C82  1  0.12331767  0.63451163  0.16492609  1  0.650585  0  0.104915  0.221639  0  4.011906  0
C  C83  1  0.70287213  0.97677821  0.24311757  1  0.337469  0  -0.128572  -0.165173  0  3.871862  0
C  C84  1  0.29713572  0.02321472  0.75690727  1  0.337591  0  -0.128601  -0.16489  0  3.871392  0
C  C85  1  0.97707914  0.53981306  0.24326043  1  0.376219  0  -0.128754  -0.165004  0  3.870782  0
C  C86  1  0.02296253  0.46021312  0.75679885  1  0.375569  0  -0.128863  -0.164867  0  3.870484  0
C  C87  1  0.54102408  0.26682561  0.24317605  1  0.388484  0  -0.129056  -0.16548  0  3.870288  0
C  C88  1  0.45896050  0.73316641  0.75679404  1  0.389651  0  -0.12883  -0.165283  0  3.870649  0
C  C89  1  0.26595518  0.70342465  0.24306896  1  0.352228  0  -0.129294  -0.167207  0  3.871119  0
C  C90  1  0.87664996  0.36551143  0.83506963  1  0.651581  0  0.104787  0.221499  0  4.011827  0
C  C91  1  0.73402942  0.29655054  0.75686844  1  0.351121  0  -0.129  -0.16918  0  3.869773  0
C  C92  1  0.60308013  0.10294446  0.20558081  1  0.089272  0  -0.021663  -0.224144  0  3.951599  0
C  C93  1  0.39689597  0.89702415  0.79442215  1  0.090175  0  -0.021678  -0.226196  0  3.953966  0
C  C94  1  0.10261522  0.60290893  0.20563044  1  0.069552  0  -0.021544  -0.225387  0  3.951321  0
C  C95  1  0.89736184  0.39709803  0.79436174  1  0.069056  0  -0.021396  -0.225128  0  3.951105  0
C  C96  1  0.41498921  0.10483298  0.04048103  1  0.081573  0  0.027407  0.019914  0  3.998901  0
C  C97  1  0.58498680  0.89514066  0.95952553  1  0.081415  0  0.027334  0.020027  0  3.998794  0
C  C98  1  0.10407962  0.62608257  0.04042361  1  0.021108  0  0.027311  0.020248  0  3.99859  0
C  C99  1  0.89584480  0.37397024  0.95956837  1  0.018394  0  0.02736  0.020151  0  3.999174  0
C  C100  1  0.62557075  0.93566340  0.04036288  1  0.117998  0  0.026853  0.020272  0  3.999079  0
C  C101  1  0.37441278  0.06430983  0.95964935  1  0.124619  0  0.02684  0.020519  0  3.999299  0
C  C102  1  0.93615504  0.41445006  0.04040777  1  0.144952  0  0.026581  0.019034  0  3.999919  0
C  C103  1  0.06379687  0.58558044  0.95958146  1  0.143999  0  0.026758  0.019422  0  4.000292  0
C  C104  1  0.14616240  0.64631888  0.29267888  1  1.55378  0  0.227315  0.622379  0  4.19719  0
C  C105  1  0.85383455  0.35367176  0.70731098  1  1.55408  0  0.22711  0.622005  0  4.197351  0
C  C106  1  0.64652820  0.14644606  0.29262389  1  1.559611  0  0.227941  0.623017  0  4.196881  0
C  C107  1  0.35345382  0.85353302  0.70737511  1  1.559752  0  0.228014  0.623742  0  4.196477  0
C  C108  1  0.10349027  0.61110313  0.49247024  1  1.533607  0  0.228742  0.601232  0  4.170296  0
C  C109  1  0.89649568  0.38890517  0.50753145  1  1.533893  0  0.22876  0.601261  0  4.170643  0
C  C110  1  0.61121465  0.38915308  0.49257756  1  1.552779  0  0.229281  0.602374  0  4.170763  0
C  C111  1  0.38880046  0.61086328  0.50741873  1  1.552112  0  0.229015  0.601956  0  4.171043  0
C  C112  1  0.38925575  0.88128071  0.49268869  1  1.564812  0  0.229348  0.601918  0  4.170573  0
C  C113  1  0.61079257  0.11871876  0.50734887  1  1.565211  0  0.22924  0.601632  0  4.170954  0
C  C114  1  0.88128241  0.10340765  0.49272105  1  1.554974  0  0.229191  0.60264  0  4.168856  0
C  C115  1  0.11872620  0.89659124  0.50728788  1  1.555066  0  0.229132  0.60233  0  4.168944  0
C  C116  1  0.02474167  0.97236355  0.55567428  1  -0.003823  0  -0.077422  -0.091422  0  3.965582  0
C  C117  1  0.97525762  0.02762942  0.44431485  1  -0.004391  0  -0.07746  -0.09147  0  3.965476  0
C  C118  1  0.97228701  0.53123023  0.55560949  1  0.016075  0  -0.077143  -0.090421  0  3.966461  0
C  C119  1  0.02768992  0.46876914  0.44437269  1  0.016251  0  -0.07711  -0.090306  0  3.966463  0
C  C120  1  0.53117170  0.58331718  0.55568488  1  -0.010449  0  -0.077073  -0.089408  0  3.963154  0
C  C121  1  0.46883382  0.41668168  0.44430985  1  -0.013404  0  -0.077044  -0.089583  0  3.963171  0
C  C122  1  0.58332412  0.02463585  0.55568298  1  -0.03503  0  -0.076976  -0.090327  0  3.965161  0
C  C123  1  0.41670780  0.97534108  0.44431779  1  -0.034517  0  -0.077281  -0.090837  0  3.965131  0
C  C124  1  0.47005902  0.03310478  0.44855393  1  0.024744  0  -0.076048  -0.085955  0  3.958882  0
C  C125  1  0.52997798  0.96687798  0.55145378  1  0.025043  0  -0.075932  -0.086056  0  3.958642  0
C  C126  1  0.41543043  0.47013980  0.44862047  1  -0.049013  0  -0.075651  -0.085649  0  3.957956  0
C  C127  1  0.58457209  0.52986144  0.55136571  1  -0.049715  0  -0.075726  -0.0858  0  3.958094  0
C  C128  1  0.97853718  0.41541181  0.44873399  1  -0.003188  0  -0.076303  -0.0862  0  3.958265  0
C  C129  1  0.02143455  0.58458851  0.55124731  1  -0.002385  0  -0.07616  -0.08582  0  3.958399  0
C  C130  1  0.03306301  0.97857027  0.44852453  1  -0.003478  0  -0.075995  -0.085414  0  3.956482  0
C  C131  1  0.96693675  0.02141830  0.55146691  1  -0.003683  0  -0.076031  -0.085521  0  3.956549  0
N  N132  1  0.34809941  0.22026304  0.10141879  1  -1.084462  0  -0.304437  -0.340651  0  2.659611  0
N  N133  1  0.65187408  0.77970613  0.89858958  1  -1.086004  0  -0.304521  -0.340693  0  2.659691  0
N  N134  1  0.21864978  0.75480165  0.10152187  1  -1.099597  0  -0.304513  -0.340623  0  2.659973  0
N  N135  1  0.78122395  0.24531019  0.89847987  1  -1.099534  0  -0.304453  -0.34036  0  2.660707  0
N  N136  1  0.75345912  0.88123116  0.10137556  1  -1.088894  0  -0.305081  -0.340703  0  2.659518  0
N  N137  1  0.24649117  0.11870972  0.89863429  1  -1.0906  0  -0.305426  -0.341208  0  2.659315  0
N  N138  1  0.88214714  0.34682970  0.10118138  1  -1.089182  0  -0.305027  -0.341044  0  2.658795  0
N  N139  1  0.11776249  0.65324383  0.89881615  1  -1.087917  0  -0.304981  -0.341044  0  2.659463  0
O  O140  1  0.25004252  0.74995895  0.49999118  1  -1.202651  0  -0.574199  -1.036242  0  2.541798  0
O  O141  1  0.82045600  0.39702210  0.67454830  1  -1.159356  0  -0.306989  -0.534621  0  2.324232  0
O  O142  1  0.60317095  0.14609186  0.32540728  1  -1.159139  0  -0.307473  -0.535484  0  2.325879  0
O  O143  1  0.39681122  0.85389251  0.67459680  1  -1.159263  0  -0.307407  -0.535259  0  2.325549  0
O  O144  1  0.14565863  0.72241260  0.32562358  1  -1.160676  0  -0.307127  -0.53519  0  2.325569  0
O  O145  1  0.85436243  0.27758494  0.67437250  1  -1.161263  0  -0.307017  -0.535041  0  2.325456  0
O  O146  1  0.72270599  0.17964785  0.32552138  1  -1.165909  0  -0.307103  -0.535318  0  2.325177  0
O  O147  1  0.27727314  0.82032472  0.67446978  1  -1.16566  0  -0.307127  -0.5355  0  2.324807  0
O  O148  1  0.17952567  0.60295477  0.32542937  1  -1.159552  0  -0.307084  -0.534699  0  2.324283  0
O  O149  1  0.74995015  0.25003847  0.50000057  1  -1.202562  0  -0.574225  -1.036364  0  2.541996  0
O  O150  1  0.13079002  0.57921477  0.44350060  1  -1.163119  0  -0.31309  -0.547972  0  2.340907  0
O  O151  1  0.86921531  0.42079893  0.55651492  1  -1.163191  0  -0.313142  -0.54801  0  2.341009  0
O  O152  1  0.57937504  0.31289752  0.44346966  1  -1.175902  0  -0.313101  -0.547974  0  2.342398  0
O  O153  1  0.42065607  0.68712155  0.55651116  1  -1.176094  0  -0.312953  -0.547706  0  2.342111  0
O  O154  1  0.31298664  0.86402618  0.44357876  1  -1.171646  0  -0.313431  -0.548796  0  2.341824  0
O  O155  1  0.68705708  0.13595440  0.55644493  1  -1.17278  0  -0.313328  -0.548405  0  2.342275  0
O  O156  1  0.86423293  0.13086172  0.44382717  1  -1.1622  0  -0.313407  -0.548923  0  2.340064  0
O  O157  1  0.13577413  0.86914832  0.55619256  1  -1.162179  0  -0.313306  -0.54871  0  2.339899  0
O  O158  1  0.68770887  0.42104435  0.53951883  1  -1.172261  0  -0.312337  -0.54156  0  2.347625  0
O  O159  1  0.31230523  0.57898449  0.46048942  1  -1.17162  0  -0.312214  -0.541406  0  2.347813  0
O  O160  1  0.11846707  0.68761943  0.53927451  1  -1.173532  0  -0.312352  -0.541084  0  2.348109  0
O  O161  1  0.88151260  0.31239177  0.46072583  1  -1.173582  0  -0.312285  -0.541062  0  2.348316  0
O  O162  1  0.85156702  0.11822539  0.53949215  1  -1.187634  0  -0.311909  -0.541058  0  2.349062  0
O  O163  1  0.14844544  0.88176254  0.46052001  1  -1.187483  0  -0.311931  -0.54102  0  2.349228  0
O  O164  1  0.42113719  0.85178383  0.53969160  1  -1.182657  0  -0.312162  -0.540868  0  2.348079  0
O  O165  1  0.57890727  0.14825720  0.46037231  1  -1.182512  0  -0.312294  -0.541253  0  2.347784  0
O  O166  1  0.70556183  0.02183911  0.20308333  1  -1.076342  0  -0.184104  -0.158832  0  2.584225  0
O  O167  1  0.29443276  0.97814997  0.79693812  1  -1.075909  0  -0.184017  -0.158778  0  2.583747  0
O  O168  1  0.02206940  0.49737497  0.20307298  1  -1.077292  0  -0.184306  -0.159374  0  2.583892  0
O  O169  1  0.97792130  0.50262710  0.79692976  1  -1.078024  0  -0.18426  -0.159357  0  2.583935  0
O  O170  1  0.49823878  0.18174615  0.20312160  1  -1.075613  0  -0.183947  -0.159324  0  2.585067  0
O  O171  1  0.50175687  0.81824220  0.79690029  1  -1.075938  0  -0.183917  -0.159007  0  2.585489  0
O  O172  1  0.18073460  0.70587667  0.20316135  1  -1.076738  0  -0.183825  -0.158664  0  2.582013  0
O  O173  1  0.81924610  0.29413466  0.79684066  1  -1.077765  0  -0.183864  -0.158998  0  2.583247  0
