# generated using pymatgen
data_AlH3C15(SO4)3
_symmetry_space_group_name_H-M   'P 1'
_cell_length_a   4.02714217
_cell_length_b   20.10871851
_cell_length_c   20.10864432
_cell_angle_alpha   119.99975022
_cell_angle_beta   89.99903956
_cell_angle_gamma   90.00013529
_symmetry_Int_Tables_number   1
_chemical_formula_structural   AlH3C15(SO4)3
_chemical_formula_sum   'Al2 H6 C30 S6 O24'
_cell_volume   1410.24923614
_cell_formula_units_Z   2
loop_
 _symmetry_equiv_pos_site_id
 _symmetry_equiv_pos_as_xyz
  1  'x, y, z'
loop_
 _atom_site_type_symbol
 _atom_site_label
 _atom_site_symmetry_multiplicity
 _atom_site_fract_x
 _atom_site_fract_y
 _atom_site_fract_z
 _atom_site_occupancy
 _atom_site_pbe_bader_charge
 _atom_site_pbe_bader_spin_density
 _atom_site_pbe_cm5_charge
 _atom_site_pbe_ddec_charge
 _atom_site_pbe_ddec_spin_density
 _atom_site_pbe_ddec_sum_bond_order
 _atom_site_pbe_magmom
Al  Al0  1  0.00346364  0.50000125  0.49999788  1  2.507867  0  0.434065  1.605568  0  2.566069  0
Al  Al1  1  0.00345514  0.16666430  0.83333231  1  2.507645  0  0.43405  1.605491  0  2.566094  0
H  H2  1  0.25992037  0.49683301  0.81129099  1  0.589311  0  0.322065  0.356738  0  0.908358  0
H  H3  1  0.25998006  0.16980826  0.52204010  1  0.590562  0  0.322169  0.356931  0  0.90815  0
H  H4  1  0.25994014  0.81445360  0.50316047  1  0.599334  0  0.322174  0.356866  0  0.908257  0
H  H5  1  0.25994910  0.85222435  0.83018310  1  0.599955  0  0.322065  0.356794  0  0.908439  0
H  H6  1  0.25992963  0.18871793  0.18555405  1  0.592776  0  0.322133  0.356826  0  0.908378  0
H  H7  1  0.25996528  0.47796606  0.14777128  1  0.592704  0  0.322145  0.356934  0  0.90813  0
C  C8  1  0.50397690  0.43886401  0.38339198  1  1.680221  0  0.281656  0.677112  0  4.088494  0
C  C9  1  0.50396456  0.44453348  0.56113677  1  1.674601  0  0.281648  0.677048  0  4.088462  0
C  C10  1  0.50397332  0.61660507  0.55546467  1  1.608429  0  0.281602  0.677003  0  4.088599  0
C  C11  1  0.50395191  0.22212824  0.77219234  1  1.674909  0  0.281638  0.676946  0  4.088549  0
C  C12  1  0.50396799  0.05006195  0.77787605  1  1.60886  0  0.281799  0.67712  0  4.08824  0
C  C13  1  0.50394702  0.22781065  0.94993513  1  1.678695  0  0.281715  0.677024  0  4.088382  0
C  C14  1  0.49108181  0.43098235  0.68231119  1  0.125058  0  -0.030578  -0.130928  0  4.04185  0
C  C15  1  0.49112412  0.23568428  0.65102401  1  0.125303  0  -0.030534  -0.130502  0  4.041746  0
C  C16  1  0.50184192  0.40145333  0.60351705  1  -0.268302  0  0.007724  -0.084598  0  3.858143  0
C  C17  1  0.50180105  0.26520983  0.72981062  1  -0.268503  0  0.007791  -0.08462  0  3.858283  0
C  C18  1  0.49265483  0.29661418  0.63397918  1  -0.190942  0  -0.032592  -0.068604  0  4.114227  0
C  C19  1  0.49262276  0.37005196  0.69935552  1  -0.142187  0  -0.032559  -0.068114  0  4.114235  0
C  C20  1  0.49113818  0.75133031  0.56901769  1  0.063521  0  -0.030505  -0.130488  0  4.041617  0
C  C21  1  0.49114844  0.91533871  0.76432152  1  0.06334  0  -0.030656  -0.130812  0  4.041721  0
C  C22  1  0.50186137  0.70206646  0.59854513  1  -0.122341  0  0.00779  -0.084551  0  3.858122  0
C  C23  1  0.50183249  0.96460267  0.73479590  1  -0.122098  0  0.007823  -0.084498  0  3.858095  0
C  C24  1  0.49267019  0.83736478  0.70338886  1  -0.110791  0  -0.032556  -0.068306  0  4.114141  0
C  C25  1  0.49265581  0.82930445  0.62995113  1  -0.193093  0  -0.032671  -0.068697  0  4.114602  0
C  C26  1  0.49113642  0.31769148  0.24866903  1  0.106474  0  -0.030503  -0.130644  0  4.041772  0
C  C27  1  0.49112607  0.34897935  0.08465518  1  0.106748  0  -0.03072  -0.130915  0  4.041866  0
C  C28  1  0.50185710  0.39648228  0.29793075  1  -0.181005  0  0.007735  -0.084659  0  3.858186  0
C  C29  1  0.50182008  0.27019316  0.03539575  1  -0.18109  0  0.007755  -0.0846  0  3.858379  0
C  C30  1  0.49266496  0.36602440  0.16262965  1  -0.163494  0  -0.032561  -0.068269  0  4.114091  0
C  C31  1  0.49265429  0.30064758  0.17069340  1  -0.242216  0  -0.032676  -0.068588  0  4.114369  0
C  C32  1  0.50759792  0.51483122  0.73827787  1  1.561812  0  0.227807  0.579431  0  4.13779  0
C  C33  1  0.50773573  0.15183862  0.59505303  1  1.562166  0  0.227776  0.579419  0  4.137835  0
C  C34  1  0.50768922  0.72345467  0.48516762  1  1.535238  0  0.227758  0.579253  0  4.137665  0
C  C35  1  0.50771518  0.94321646  0.84817137  1  1.535399  0  0.227948  0.579689  0  4.137435  0
C  C36  1  0.50770001  0.26172165  0.27654887  1  1.53005  0  0.227765  0.579482  0  4.137665  0
C  C37  1  0.50771502  0.40495109  0.05677433  1  1.529736  0  0.227981  0.579651  0  4.13726  0
S  S38  1  0.51564732  0.30229111  0.55113548  1  0.288222  0  0.121047  0.159562  0  2.818862  0
S  S39  1  0.51552882  0.36437300  0.78219714  1  0.288355  0  0.121004  0.159444  0  2.819001  0
S  S40  1  0.51564150  0.74884383  0.69771029  1  0.29438  0  0.121057  0.159534  0  2.818713  0
S  S41  1  0.51559050  0.91782507  0.63562989  1  0.29428  0  0.121027  0.159546  0  2.818874  0
S  S42  1  0.51563838  0.44886658  0.25115058  1  0.285357  0  0.121064  0.159566  0  2.818712  0
S  S43  1  0.51558439  0.21780735  0.08217437  1  0.285553  0  0.121096  0.159647  0  2.818901  0
O  O44  1  0.74029886  0.58492032  0.57134484  1  -1.236586  0  -0.224969  -0.577851  0  2.364497  0
O  O45  1  0.74030972  0.48642695  0.41507437  1  -1.239744  0  -0.225007  -0.577869  0  2.364476  0
O  O46  1  0.74029781  0.42865207  0.51357238  1  -1.23531  0  -0.225036  -0.577919  0  2.364428  0
O  O47  1  0.26746738  0.58300639  0.50895461  1  -1.242116  0  -0.221857  -0.574627  0  2.380197  0
O  O48  1  0.26745665  0.49104365  0.57404506  1  -1.240306  0  -0.221887  -0.574546  0  2.379966  0
O  O49  1  0.26747024  0.42595248  0.41699288  1  -1.240673  0  -0.221876  -0.574662  0  2.380109  0
O  O50  1  0.74027941  0.18024659  0.91825447  1  -1.238781  0  -0.224956  -0.577855  0  2.364439  0
O  O51  1  0.74029381  0.23800729  0.81974975  1  -1.235219  0  -0.224926  -0.577799  0  2.364465  0
O  O52  1  0.74031014  0.08174218  0.76199305  1  -1.236674  0  -0.225002  -0.577869  0  2.364298  0
O  O53  1  0.26744828  0.24071917  0.91633067  1  -1.240223  0  -0.222012  -0.574623  0  2.380051  0
O  O54  1  0.26746604  0.08366636  0.82439071  1  -1.24247  0  -0.222019  -0.574649  0  2.380025  0
O  O55  1  0.26747429  0.17561098  0.75928158  1  -1.240579  0  -0.221953  -0.574568  0  2.38013  0
O  O56  1  0.38377030  0.53795879  0.80987077  1  -1.078364  0  -0.331387  -0.455809  0  2.195069  0
O  O57  1  0.63287623  0.56119754  0.72396168  1  -1.085667  0  -0.263572  -0.415882  0  2.073112  0
O  O58  1  0.38390385  0.12869504  0.52346395  1  -1.079805  0  -0.331481  -0.455993  0  2.195198  0
O  O59  1  0.63314139  0.10548180  0.60937093  1  -1.085892  0  -0.263568  -0.415993  0  2.072973  0
O  O60  1  0.38383590  0.77191934  0.46204028  1  -1.089305  0  -0.331554  -0.455907  0  2.194841  0
O  O61  1  0.63305511  0.66278141  0.43880562  1  -1.0948  0  -0.263518  -0.415874  0  2.073195  0
O  O62  1  0.38385437  0.89475705  0.87130314  1  -1.089833  0  -0.331392  -0.455884  0  2.195048  0
O  O63  1  0.63309163  0.00388842  0.89452955  1  -1.09518  0  -0.26368  -0.416124  0  2.073071  0
O  O64  1  0.38384453  0.19013085  0.22808695  1  -1.075982  0  -0.331451  -0.455968  0  2.194948  0
O  O65  1  0.63307929  0.27603353  0.33722004  1  -1.090518  0  -0.26352  -0.415887  0  2.073133  0
O  O66  1  0.38387128  0.47654333  0.10523056  1  -1.075537  0  -0.331511  -0.456078  0  2.194795  0
O  O67  1  0.63309228  0.39063231  0.99610021  1  -1.09123  0  -0.263626  -0.415996  0  2.072871  0
