# generated using pymatgen
data_CuPH5C5NClO4
_symmetry_space_group_name_H-M   'P 1'
_cell_length_a   6.89488535
_cell_length_b   6.92286129
_cell_length_c   17.39078039
_cell_angle_alpha   90.00030832
_cell_angle_beta   91.02593544
_cell_angle_gamma   89.99582811
_symmetry_Int_Tables_number   1
_chemical_formula_structural   CuPH5C5NClO4
_chemical_formula_sum   'Cu4 P4 H20 C20 N4 Cl4 O16'
_cell_volume   829.96948055
_cell_formula_units_Z   4
loop_
 _symmetry_equiv_pos_site_id
 _symmetry_equiv_pos_as_xyz
  1  'x, y, z'
loop_
 _atom_site_type_symbol
 _atom_site_label
 _atom_site_symmetry_multiplicity
 _atom_site_fract_x
 _atom_site_fract_y
 _atom_site_fract_z
 _atom_site_occupancy
 _atom_site_hle17_ddec_charge
 _atom_site_hle17_ddec_spin_density
 _atom_site_hle17_ddec_sum_bond_order
 _atom_site_hle17_magmom
 _atom_site_hse06_10hf_ddec_charge
 _atom_site_hse06_10hf_ddec_spin_density
 _atom_site_hse06_10hf_ddec_sum_bond_order
 _atom_site_hse06_10hf_magmom
 _atom_site_hse06_ddec_charge
 _atom_site_hse06_ddec_spin_density
 _atom_site_hse06_ddec_sum_bond_order
 _atom_site_hse06_magmom
 _atom_site_pbe_cm5_charge
 _atom_site_pbe_ddec_charge
 _atom_site_pbe_ddec_spin_density
 _atom_site_pbe_ddec_sum_bond_order
 _atom_site_pbe_magmom
Cu  Cu0  1  0.50003743  0.00000597  0.99999670  1  0.9448  0.669875  1.814608  0.502  0.972471  0.776464  2.18022  0.638  1.063245  0.858085  2.110547  0.732  0.632552  0.909953  0.707564  2.239751  0.568
Cu  Cu1  1  0.50002675  0.49999769  0.49999296  1  0.944862  -0.66988  1.814423  -0.502  0.972601  -0.776467  2.179925  -0.638  1.063321  -0.858114  2.110263  -0.732  0.632581  0.910033  -0.707571  2.23955  -0.568
Cu  Cu2  1  0.00003913  0.99999981  0.00000469  1  0.923806  -0.656415  1.825219  -0.49  0.94098  -0.759386  2.203991  -0.621  1.041083  -0.839481  2.114695  -0.713  0.627448  0.879529  -0.693351  2.263912  -0.554
Cu  Cu3  1  0.00002677  0.49999365  0.50000353  1  0.923741  0.656394  1.825  0.49  0.940849  0.759362  2.203734  0.621  1.041072  0.839501  2.114435  0.713  0.627412  0.879491  0.693337  2.263644  0.554
P  P4  1  0.24073972  0.29560582  0.92138349  1  1.4534  -2.9e-05  4.838235  0.0  1.302396  6e-05  5.345195  0.0  1.359054  7.3e-05  5.306473  0.0  0.36366  1.262597  1.9e-05  5.371243  0.0
P  P5  1  0.75926784  0.79561726  0.57860473  1  1.453357  3e-05  4.838702  0.0  1.302299  -6.1e-05  5.345676  0.0  1.358991  -7.4e-05  5.306944  0.0  0.363508  1.262503  -2e-05  5.371736  0.0
P  P6  1  0.75929712  0.70440979  0.07862177  1  1.453217  -2.9e-05  4.838673  0.0  1.302122  6.1e-05  5.345586  0.0  1.358816  7.3e-05  5.306859  0.0  0.363527  1.262334  2e-05  5.371647  0.0
P  P7  1  0.24075929  0.20437235  0.42138833  1  1.454038  2.4e-05  4.837971  0.0  1.303025  -6.2e-05  5.344909  0.0  1.359705  -7.4e-05  5.306173  0.0  0.363823  1.26324  -2.1e-05  5.37098  0.0
H  H8  1  0.19156256  0.37851456  0.75349829  1  0.11119  -0.000198  0.956054  0.0  0.119067  -0.000198  1.019165  0.0  0.122466  -0.000149  1.018326  0.0  0.107524  0.116624  -0.00023  1.019995  0.0
H  H9  1  0.80836854  0.87853590  0.74649253  1  0.111243  0.000197  0.955997  0.0  0.119123  0.000197  1.019113  0.0  0.122507  0.000148  1.018316  0.0  0.10748  0.116687  0.000229  1.019933  0.0
H  H10  1  0.80841024  0.62150104  0.24651248  1  0.11129  -0.000196  0.95606  0.0  0.119149  -0.000197  1.019208  0.0  0.122552  -0.000148  1.018367  0.0  0.107533  0.116698  -0.000229  1.020074  0.0
H  H11  1  0.19155540  0.12145226  0.25350497  1  0.111219  0.000199  0.955952  0.0  0.119192  0.000198  1.01901  0.0  0.122597  0.000149  1.018157  0.0  0.107521  0.116748  0.00023  1.019854  0.0
H  H12  1  0.20881224  0.16723324  0.63758552  1  0.121473  -0.000135  0.95628  0.0  0.131771  -0.000118  1.012701  0.0  0.136812  -8.9e-05  1.007677  0.0  0.103357  0.128003  -0.000141  1.01655  0.0
H  H13  1  0.79111339  0.66725784  0.86240952  1  0.121518  0.000125  0.956249  0.0  0.131889  0.000118  1.012598  0.0  0.136934  8.8e-05  1.007564  0.0  0.103379  0.128116  0.000141  1.016452  0.0
H  H14  1  0.79112739  0.83279104  0.36241966  1  0.121454  -0.000137  0.956199  0.0  0.131797  -0.000118  1.012551  0.0  0.136839  -8.9e-05  1.007522  0.0  0.103358  0.12803  -0.000141  1.016409  0.0
H  H15  1  0.20878593  0.33274043  0.13758652  1  0.121635  0.000126  0.956149  0.0  0.131899  0.000118  1.012575  0.0  0.136941  8.9e-05  1.007547  0.0  0.103423  0.128126  0.000141  1.016432  0.0
H  H16  1  0.28435076  0.81367678  0.65624703  1  0.128302  0.000102  0.965338  0.0  0.136962  0.000113  1.022843  0.0  0.142185  8.9e-05  1.01965  0.0  0.103527  0.133232  0.000126  1.025402  0.0
H  H17  1  0.71558664  0.31370909  0.84374608  1  0.128156  -0.000109  0.965491  0.0  0.1368  -0.000113  1.022979  0.0  0.14202  -9e-05  1.019791  0.0  0.103548  0.133079  -0.000127  1.025519  0.0
H  H18  1  0.71556887  0.18633016  0.34374927  1  0.128433  0.000107  0.96554  0.0  0.137162  0.000113  1.022909  0.0  0.142381  9e-05  1.019726  0.0  0.103613  0.13344  0.000127  1.025459  0.0
H  H19  1  0.28437213  0.68627185  0.15625129  1  0.128123  -0.000111  0.965597  0.0  0.136769  -0.000113  1.023101  0.0  0.141992  -8.9e-05  1.019913  0.0  0.103527  0.13304  -0.000126  1.025656  0.0
H  H20  1  0.31292636  0.68641513  0.79166858  1  0.118229  -2.3e-05  0.9663  0.0  0.127804  -1.1e-05  1.025629  0.0  0.13111  -1e-06  1.022696  0.0  0.131477  0.125257  -2.3e-05  1.027929  0.0
H  H21  1  0.68706412  0.18643292  0.70832674  1  0.118176  2.2e-05  0.966324  0.0  0.127778  1.1e-05  1.025633  0.0  0.131098  1e-06  1.022657  0.0  0.131498  0.125278  2.2e-05  1.027878  0.0
H  H22  1  0.68703966  0.31360481  0.20832888  1  0.118326  -1.9e-05  0.96614  0.0  0.127734  -1.1e-05  1.025666  0.0  0.131139  -1e-06  1.022604  0.0  0.131498  0.125194  -2.2e-05  1.027953  0.0
H  H23  1  0.31296147  0.81355090  0.29166860  1  0.118198  2.4e-05  0.966336  0.0  0.127788  1.1e-05  1.025704  0.0  0.131094  1e-06  1.022732  0.0  0.131517  0.125323  2.2e-05  1.027868  0.0
H  H24  1  0.24838682  0.63132508  0.90937557  1  0.460084  4e-06  0.812778  0.0  0.429231  1.6e-05  0.880337  0.0  0.44272  1e-05  0.860996  0.0  0.323091  0.41961  2.2e-05  0.894051  0.0
H  H25  1  0.75162366  0.13132432  0.59061820  1  0.46008  -4e-06  0.812851  0.0  0.429293  -1.6e-05  0.88025  0.0  0.442782  -1e-05  0.860906  0.0  0.323138  0.419683  -2.2e-05  0.89395  0.0
H  H26  1  0.75164582  0.36868331  0.09062562  1  0.459966  4e-06  0.81279  0.0  0.429076  1.6e-05  0.880535  0.0  0.442565  1e-05  0.861194  0.0  0.323049  0.419448  2.2e-05  0.894251  0.0
H  H27  1  0.24841340  0.86865662  0.40938131  1  0.459985  -4e-06  0.813086  0.0  0.429274  -1.6e-05  0.880284  0.0  0.44277  -1e-05  0.860933  0.0  0.323105  0.419649  -2.2e-05  0.893998  0.0
C  C28  1  0.23513759  0.14838699  0.83356442  1  -0.170197  -9.8e-05  3.591519  0.0  -0.1575  8.4e-05  3.8483  0.0  -0.157135  5.5e-05  3.862156  0.0  0.09265  -0.157946  8.1e-05  3.839863  0.0
C  C29  1  0.76486536  0.64839280  0.66643043  1  -0.170225  0.000121  3.591253  0.0  -0.157339  -8.3e-05  3.847801  0.0  -0.157071  -5.6e-05  3.861801  0.0  0.092675  -0.157795  -8e-05  3.839372  0.0
C  C30  1  0.76487756  0.85161273  0.16643884  1  -0.170434  -0.000122  3.591416  0.0  -0.157505  8.4e-05  3.847942  0.0  -0.157237  5.5e-05  3.861917  0.0  0.092623  -0.157961  8e-05  3.83953  0.0
C  C31  1  0.23512238  0.35159103  0.33356846  1  -0.170387  9.3e-05  3.591583  0.0  -0.157537  -8.3e-05  3.848208  0.0  -0.157218  -5.7e-05  3.862124  0.0  0.092684  -0.157996  -8.1e-05  3.839789  0.0
C  C32  1  0.21566426  0.22399269  0.75951429  1  -0.07343  0.000219  3.764366  0.0  -0.095986  8.2e-05  4.020084  0.0  -0.100348  8.4e-05  4.0394  0.0  -0.076058  -0.093405  8e-05  4.007558  0.0
C  C33  1  0.78430077  0.72400493  0.74048077  1  -0.073493  -0.000241  3.764037  0.0  -0.096105  -8.2e-05  4.019794  0.0  -0.100447  -8.5e-05  4.03912  0.0  -0.076039  -0.093525  -8.1e-05  4.007282  0.0
C  C34  1  0.78430721  0.77602147  0.24049302  1  -0.073324  0.000226  3.764316  0.0  -0.096007  8.2e-05  4.020037  0.0  -0.10034  8.5e-05  4.039372  0.0  -0.075928  -0.093429  8.1e-05  4.007518  0.0
C  C35  1  0.21564197  0.27598468  0.25951870  1  -0.073448  -0.000217  3.764252  0.0  -0.096171  -8.2e-05  4.019926  0.0  -0.100524  -8.5e-05  4.039245  0.0  -0.076145  -0.093593  -8.1e-05  4.007426  0.0
C  C36  1  0.22704658  0.10606939  0.69481279  1  -0.010451  -0.000135  3.679442  0.0  -0.036377  -0.000119  3.936305  0.0  -0.029174  -0.000133  3.946083  0.0  -0.073886  -0.040927  -0.0001  3.929801  0.0
C  C37  1  0.77287921  0.60608787  0.80518389  1  -0.010543  0.000181  3.679389  0.0  -0.036565  0.000118  3.936319  0.0  -0.029351  0.000132  3.94608  0.0  -0.074031  -0.041112  9.9e-05  3.929802  0.0
C  C38  1  0.77289011  0.89396210  0.30519350  1  -0.010387  -0.000135  3.679481  0.0  -0.03628  -0.000118  3.936301  0.0  -0.029079  -0.000133  3.946082  0.0  -0.073932  -0.040836  -9.9e-05  3.9298  0.0
C  C39  1  0.22705057  0.39389884  0.19481254  1  -0.010791  0.000146  3.679434  0.0  -0.036627  0.000119  3.936334  0.0  -0.029416  0.000133  3.9461  0.0  -0.073999  -0.041177  0.0001  3.929836  0.0
C  C40  1  0.26788831  0.91086149  0.70503088  1  -0.076331  0.000253  3.718596  0.0  -0.087875  0.000166  3.970744  0.0  -0.092447  0.000157  3.985369  0.0  -0.075  -0.085485  0.000183  3.961423  0.0
C  C41  1  0.73204243  0.41088621  0.79496229  1  -0.076075  -0.000259  3.719104  0.0  -0.087606  -0.000166  3.971287  0.0  -0.092182  -0.000156  3.985924  0.0  -0.074872  -0.085217  -0.000184  3.961957  0.0
C  C42  1  0.73204419  0.08915845  0.29497075  1  -0.07657  0.000255  3.719252  0.0  -0.088213  0.000166  3.9713  0.0  -0.092798  0.000157  3.985954  0.0  -0.075054  -0.08582  0.000184  3.961983  0.0
C  C43  1  0.26791786  0.58909762  0.20503338  1  -0.075934  -0.000217  3.71895  0.0  -0.087535  -0.000167  3.97114  0.0  -0.092114  -0.000157  3.985771  0.0  -0.074864  -0.08515  -0.000183  3.961837  0.0
C  C44  1  0.28441182  0.83712214  0.77866457  1  0.010887  -0.00036  3.579034  0.0  -0.029458  -0.000279  3.835383  0.0  -0.021529  -0.000254  3.846688  0.0  0.039027  -0.034293  -0.000287  3.827973  0.0
C  C45  1  0.71556667  0.33714319  0.72133255  1  0.010865  0.000373  3.579503  0.0  -0.029469  0.000279  3.835819  0.0  -0.021528  0.000255  3.847131  0.0  0.038973  -0.034339  0.000288  3.828385  0.0
C  C46  1  0.71555261  0.16288913  0.22133690  1  0.010851  -0.000381  3.578833  0.0  -0.029335  -0.000279  3.835166  0.0  -0.021472  -0.000254  3.846415  0.0  0.038964  -0.034169  -0.000288  3.827768  0.0
C  C47  1  0.28444007  0.66284208  0.27866256  1  0.010976  0.000334  3.579138  0.0  -0.02934  0.000279  3.835432  0.0  -0.02139  0.000255  3.84675  0.0  0.039032  -0.034209  0.000287  3.827982  0.0
N  N48  1  0.26014351  0.95236474  0.84122180  1  0.281612  -6.5e-05  3.685764  0.0  0.332072  -0.000248  3.945041  0.0  0.331745  -0.00017  3.968684  0.0  -0.109084  0.331367  -0.0003  3.928876  0.0
N  N49  1  0.73985564  0.45237465  0.65877287  1  0.281565  5e-05  3.686094  0.0  0.331959  0.00025  3.945359  0.0  0.331651  0.000173  3.969014  0.0  -0.109154  0.331252  0.000302  3.929211  0.0
N  N50  1  0.73985716  0.04763642  0.15878070  1  0.281663  -5.4e-05  3.685312  0.0  0.332044  -0.00025  3.94454  0.0  0.33174  -0.000172  3.968211  0.0  -0.109144  0.331339  -0.000302  3.928394  0.0
N  N51  1  0.26015837  0.54760773  0.34122175  1  0.281517  8e-05  3.685798  0.0  0.33194  0.000248  3.945068  0.0  0.331616  0.000171  3.968712  0.0  -0.109144  0.331237  0.000301  3.928925  0.0
Cl  Cl52  1  0.25208137  0.00324364  0.09019922  1  -0.431144  -0.007369  1.170311  -0.009  -0.458866  -0.006704  1.487595  -0.008  -0.507044  -0.006245  1.463461  -0.008  -0.218175  -0.428622  -0.006823  1.506738  -0.008
Cl  Cl53  1  0.74800688  0.50323807  0.40979891  1  -0.43119  0.007374  1.170313  0.009  -0.458868  0.006714  1.487509  0.008  -0.507032  0.006246  1.46335  0.008  -0.218113  -0.428686  0.006834  1.506771  0.008
Cl  Cl54  1  0.74801507  0.99676041  0.90980335  1  -0.431185  -0.007366  1.170425  -0.009  -0.45889  -0.006704  1.487694  -0.008  -0.507047  -0.006244  1.463525  -0.008  -0.218138  -0.428701  -0.006824  1.506946  -0.008
Cl  Cl55  1  0.25206948  0.49675153  0.59019707  1  -0.431202  0.007378  1.170328  0.009  -0.458905  0.006716  1.487579  0.008  -0.507068  0.006249  1.463416  0.008  -0.218196  -0.42869  0.006835  1.506774  0.008
O  O56  1  0.43379387  0.25888565  0.96282324  1  -0.778224  0.069083  2.037644  0.092  -0.734515  0.04439  2.318421  0.063  -0.775448  0.034103  2.300591  0.051  -0.37536  -0.705505  0.050274  2.330544  0.069
O  O57  1  0.56622905  0.75888802  0.53716109  1  -0.778214  -0.0691  2.038106  -0.092  -0.73452  -0.044399  2.318894  -0.063  -0.775426  -0.034107  2.301043  -0.051  -0.375252  -0.705502  -0.050284  2.33102  -0.069
O  O58  1  0.56626974  0.74112995  0.03716396  1  -0.778089  0.069099  2.037962  0.092  -0.734391  0.044399  2.318788  0.063  -0.775336  0.034111  2.300962  0.051  -0.375279  -0.705403  0.050279  2.330956  0.069
O  O59  1  0.43381003  0.24111458  0.46282234  1  -0.778438  -0.069094  2.037784  -0.092  -0.734732  -0.044396  2.318547  -0.063  -0.77564  -0.034105  2.300696  -0.051  -0.375406  -0.705713  -0.050277  2.330676  -0.069
O  O60  1  0.23666535  0.50079957  0.88318890  1  -0.726271  0.000565  2.088238  0.001  -0.650899  0.000271  2.31486  0.0  -0.677265  0.000102  2.288177  0.0  -0.365791  -0.631346  0.000436  2.332752  0.0
O  O61  1  0.76328568  0.00080314  0.61679760  1  -0.726269  -0.000569  2.088673  -0.001  -0.650954  -0.000271  2.315266  0.0  -0.677361  -0.000102  2.28861  0.0  -0.365809  -0.631411  -0.000437  2.333154  0.0
O  O62  1  0.76333810  0.49920882  0.11681709  1  -0.726183  0.000568  2.088078  0.001  -0.650753  0.000272  2.314782  0.0  -0.677144  0.000103  2.288106  0.0  -0.365836  -0.631188  0.000437  2.332688  0.0
O  O63  1  0.23673264  0.99918068  0.38319823  1  -0.726325  -0.000569  2.088558  -0.001  -0.651114  -0.000271  2.315075  0.0  -0.677494  -0.000103  2.288325  0.0  -0.365823  -0.631578  -0.000437  2.333014  0.0
O  O64  1  0.05723870  0.26138780  0.96689387  1  -0.772626  -0.067993  2.046201  -0.09  -0.726293  -0.044222  2.329735  -0.063  -0.768326  -0.03468  2.310876  -0.051  -0.375511  -0.69791  -0.049404  2.342519  -0.068
O  O65  1  0.94279198  0.76139392  0.53311012  1  -0.772586  0.06798  2.046256  0.09  -0.726218  0.044218  2.329736  0.063  -0.768285  0.034677  2.310908  0.051  -0.375478  -0.697843  0.049398  2.342515  0.068
O  O66  1  0.94281498  0.73862780  0.03312771  1  -0.772597  -0.067961  2.046742  -0.09  -0.726213  -0.044206  2.330248  -0.063  -0.768248  -0.03467  2.311387  -0.051  -0.375461  -0.697812  -0.049383  2.342994  -0.068
O  O67  1  0.05725778  0.23858557  0.46689933  1  -0.772783  0.067989  2.04609  0.09  -0.726429  0.044226  2.329581  0.063  -0.768504  0.034681  2.31075  0.051  -0.375538  -0.698052  0.049405  2.342364  0.068
O  O68  1  0.26161615  0.87330565  0.91120578  1  -0.580726  0.001465  1.892444  0.002  -0.558208  0.00111  2.15263  0.002  -0.589498  0.000818  2.1479  0.001  -0.225451  -0.535916  0.001394  2.156491  0.002
O  O69  1  0.73842260  0.37331848  0.58879216  1  -0.580704  -0.001474  1.892615  -0.002  -0.558237  -0.001109  2.152831  -0.002  -0.589515  -0.000819  2.14808  -0.001  -0.225442  -0.535964  -0.001394  2.156719  -0.002
O  O70  1  0.73841939  0.12670273  0.08879544  1  -0.58077  0.001469  1.892387  0.002  -0.558208  0.001108  2.152586  0.002  -0.589497  0.000817  2.147848  0.001  -0.225411  -0.535917  0.001392  2.156454  0.002
O  O71  1  0.26161019  0.62666534  0.41120500  1  -0.580691  -0.001468  1.892544  -0.002  -0.558277  -0.001112  2.15276  -0.002  -0.589565  -0.00082  2.148017  -0.001  -0.225499  -0.535997  -0.001397  2.156643  -0.002
