# generated using pymatgen
data_CoPH15C10(NO3)2
_symmetry_space_group_name_H-M   'P 1'
_cell_length_a   7.23769380
_cell_length_b   11.35502242
_cell_length_c   11.35126224
_cell_angle_alpha   63.63314883
_cell_angle_beta   73.73245353
_cell_angle_gamma   73.76232963
_symmetry_Int_Tables_number   1
_chemical_formula_structural   CoPH15C10(NO3)2
_chemical_formula_sum   'Co2 P2 H30 C20 N4 O12'
_cell_volume   789.20680142
_cell_formula_units_Z   2
loop_
 _symmetry_equiv_pos_site_id
 _symmetry_equiv_pos_as_xyz
  1  'x, y, z'
loop_
 _atom_site_type_symbol
 _atom_site_label
 _atom_site_symmetry_multiplicity
 _atom_site_fract_x
 _atom_site_fract_y
 _atom_site_fract_z
 _atom_site_occupancy
 _atom_site_pbe_cm5_charge
 _atom_site_pbe_ddec_charge
 _atom_site_pbe_ddec_spin_density
 _atom_site_pbe_ddec_sum_bond_order
 _atom_site_pbe_magmom
Co  Co0  1  0.73736825  0.67022985  0.72759028  1  0.660206  0.94525  2.886671  2.370123  2.62
Co  Co1  1  0.26290291  0.27238313  0.32971451  1  0.660279  0.945369  -2.886599  2.370361  -2.62
P  P2  1  0.31891655  0.80476905  0.64408428  1  0.25694  1.185736  0.004019  5.525714  0.002
P  P3  1  0.68147467  0.35618578  0.19509201  1  0.257034  1.186782  -0.004028  5.525665  -0.002
H  H4  1  0.76167069  0.39257891  0.91743406  1  0.112965  0.085416  0.00036  1.056736  0.001
H  H5  1  0.24068716  0.08209683  0.60724720  1  0.113164  0.085816  -0.00036  1.056864  -0.001
H  H6  1  0.76007748  0.16858107  0.93698850  1  0.104064  0.107122  0.000344  1.00905  0.0
H  H7  1  0.24216581  0.06263702  0.83135853  1  0.103396  0.106333  -0.000344  1.009921  0.0
H  H8  1  0.75420988  0.34425946  0.51188107  1  0.116154  0.133097  0.000452  0.995084  0.0
H  H9  1  0.24182216  0.48848198  0.65621598  1  0.115884  0.133457  -0.000454  0.996785  0.0
H  H10  1  0.73565930  0.56324820  0.51511605  1  0.12144  0.096502  0.000454  0.977241  0.001
H  H11  1  0.26020341  0.48531094  0.43714641  1  0.121704  0.096229  -0.000451  0.977417  -0.001
H  H12  1  0.81873252  0.76728157  0.92827173  1  0.116882  0.088038  0.00037  1.002141  0.001
H  H13  1  0.18132009  0.07176703  0.23290112  1  0.116834  0.088047  -0.000369  1.002521  -0.001
H  H14  1  0.83754512  0.98120125  0.92758587  1  0.103239  0.105965  0.000449  1.012476  0.0
H  H15  1  0.16182891  0.07247897  0.01900523  1  0.103459  0.1065  -0.000449  1.011787  0.0
H  H16  1  0.66574535  0.17687441  0.53900341  1  0.112963  0.124954  0.000297  1.02876  0.0
H  H17  1  0.33465176  0.46070654  0.82290851  1  0.112742  0.124995  -0.000299  1.028124  0.0
H  H18  1  0.65466746  0.95575212  0.55714404  1  0.113876  0.084452  -0.000215  1.065665  0.001
H  H19  1  0.34641777  0.44258192  0.04393384  1  0.113793  0.084467  0.000212  1.066015  -0.001
H  H20  1  0.49544946  0.64460202  0.97145543  1  0.320418  0.398429  0.001122  0.878697  0.001
H  H21  1  0.50473221  0.02858838  0.35567074  1  0.320786  0.399161  -0.001122  0.877784  -0.001
H  H22  1  0.38643783  0.64383242  0.86305428  1  0.287611  0.377139  0.000123  0.977905  0.0
H  H23  1  0.61375030  0.13716596  0.35613458  1  0.287287  0.376545  -0.000122  0.978748  0.0
H  H24  1  0.05015769  0.78077449  0.54050450  1  0.281221  0.389732  0.000405  0.952081  0.0
H  H25  1  0.95050268  0.45968079  0.21905471  1  0.281494  0.39022  -0.000408  0.951344  0.0
H  H26  1  0.87571545  0.77829777  0.48149304  1  0.312395  0.391875  1e-05  0.893834  0.0
H  H27  1  0.12602954  0.51814103  0.22092540  1  0.31212  0.391915  1e-06  0.895813  0.0
H  H28  1  0.88951552  0.53676597  0.95752383  1  0.291372  0.395532  0.001128  0.937325  0.002
H  H29  1  0.11050377  0.04248014  0.46338523  1  0.291346  0.395473  -0.001131  0.937474  -0.002
H  H30  1  0.04775752  0.62070300  0.82938887  1  0.291061  0.400549  0.000157  0.940586  0.0
H  H31  1  0.95242797  0.17055190  0.37932197  1  0.290861  0.400161  -0.000156  0.9411  0.0
H  H32  1  0.30152067  0.90252486  0.69395396  1  0.066768  -0.153788  0.000483  1.035561  0.001
H  H33  1  0.69885386  0.30647041  0.09720448  1  0.066813  -0.153601  -0.000489  1.035551  -0.001
C  C34  1  0.75769910  0.37760367  0.83033612  1  0.041773  0.093036  -0.002299  3.973228  -0.003
C  C35  1  0.24307245  0.16939730  0.62240780  1  0.042141  0.093474  0.002263  3.972149  0.003
C  C36  1  0.75923336  0.25163013  0.83955859  1  -0.088355  -0.181958  0.000659  3.982126  0.002
C  C37  1  0.24149865  0.16020504  0.74841525  1  -0.087896  -0.180666  -0.000637  3.98222  -0.002
C  C38  1  0.75525091  0.23394406  0.72578580  1  0.009899  0.098299  -0.004627  3.976397  -0.005
C  C39  1  0.24405548  0.27419017  0.76617591  1  0.010032  0.097362  0.004567  3.979446  0.005
C  C40  1  0.75046848  0.34927934  0.60611748  1  -0.074133  -0.157737  0.001565  3.901198  0.003
C  C41  1  0.24723949  0.39406899  0.65100240  1  -0.074174  -0.158671  -0.001541  3.903923  -0.003
C  C42  1  0.74378943  0.47272421  0.60627556  1  0.052777  0.103033  -0.00182  3.928376  -0.002
C  C43  1  0.25373924  0.39392440  0.52754548  1  0.053155  0.103737  0.001771  3.927936  0.002
C  C44  1  0.78566155  0.86078954  0.84368707  1  0.038977  0.087559  -0.002927  3.981354  -0.003
C  C45  1  0.21450594  0.15626738  0.13930966  1  0.03863  0.087429  0.00296  3.980804  0.003
C  C46  1  0.79533374  0.98197788  0.84230345  1  -0.089381  -0.181191  0.001834  3.962067  0.003
C  C47  1  0.20439636  0.15765392  0.01817548  1  -0.089435  -0.181751  -0.00186  3.962706  -0.003
C  C48  1  0.75307631  0.10182648  0.73207452  1  0.008098  0.097314  -0.006252  3.973884  -0.007
C  C49  1  0.24671352  0.26780077  0.89825398  1  0.007503  0.096905  0.006294  3.977706  0.007
C  C50  1  0.70286396  0.09004727  0.62781179  1  -0.078549  -0.142876  0.001042  3.914378  0.002
C  C51  1  0.29751928  0.37191698  0.90983442  1  -0.078533  -0.143357  -0.001065  3.915921  -0.003
C  C52  1  0.69791867  0.96542625  0.63627871  1  0.040732  0.093564  -0.00431  3.940116  -0.005
C  C53  1  0.30275018  0.36350498  0.03442665  1  0.040859  0.093883  0.004344  3.940359  0.005
N  N54  1  0.74682507  0.48803284  0.71687446  1  -0.325499  -0.241866  0.030939  3.540608  0.045
N  N55  1  0.25235780  0.28308809  0.51210787  1  -0.326453  -0.242238  -0.030953  3.540397  -0.045
N  N56  1  0.73808295  0.85106958  0.74198994  1  -0.330716  -0.275977  0.030428  3.588383  0.046
N  N57  1  0.26244885  0.25789765  0.14890732  1  -0.330428  -0.27562  -0.030421  3.587527  -0.046
O  O58  1  0.54114104  0.76774288  0.59662708  1  -0.395341  -0.767844  0.043306  2.319355  0.064
O  O59  1  0.45922237  0.40335270  0.23227190  1  -0.395418  -0.768101  -0.043349  2.31979  -0.064
O  O60  1  0.19798211  0.86936114  0.53215578  1  -0.387557  -0.731024  0.003453  2.16332  0.006
O  O61  1  0.80225715  0.46817861  0.13065841  1  -0.388158  -0.731452  -0.003447  2.164109  -0.006
O  O62  1  0.23843994  0.68768735  0.76759662  1  -0.385288  -0.73882  4.3e-05  2.246258  0.001
O  O63  1  0.76183642  0.23261844  0.31209209  1  -0.384907  -0.738937  -4e-05  2.245855  -0.001
O  O64  1  0.51101577  0.61147617  0.90303601  1  -0.562889  -0.768667  0.026497  2.204937  0.041
O  O65  1  0.48915070  0.09714361  0.38859363  1  -0.563188  -0.76917  -0.026474  2.204308  -0.041
O  O66  1  0.95991155  0.72256033  0.54721438  1  -0.567218  -0.756938  0.028367  2.091127  0.043
O  O67  1  0.04102503  0.45296424  0.27707761  1  -0.567452  -0.757674  -0.028428  2.091562  -0.043
O  O68  1  0.92896347  0.57778396  0.85797745  1  -0.57623  -0.783592  0.043196  2.228313  0.064
O  O69  1  0.07113377  0.14195315  0.42226286  1  -0.575949  -0.783338  -0.04314  2.228574  -0.064
