# generated using pymatgen
data_UP2H10(C2O3)3
_symmetry_space_group_name_H-M   'P 1'
_cell_length_a   11.18185716
_cell_length_b   10.87594905
_cell_length_c   24.15217762
_cell_angle_alpha   90.02652170
_cell_angle_beta   89.99272700
_cell_angle_gamma   112.51410210
_symmetry_Int_Tables_number   1
_chemical_formula_structural   UP2H10(C2O3)3
_chemical_formula_sum   'U6 P12 H60 C36 O54'
_cell_volume   2713.36616905
_cell_formula_units_Z   6
loop_
 _symmetry_equiv_pos_site_id
 _symmetry_equiv_pos_as_xyz
  1  'x, y, z'
loop_
 _atom_site_type_symbol
 _atom_site_label
 _atom_site_symmetry_multiplicity
 _atom_site_fract_x
 _atom_site_fract_y
 _atom_site_fract_z
 _atom_site_occupancy
 _atom_site_pbe_bader_charge
 _atom_site_pbe_bader_spin_density
 _atom_site_pbe_cm5_charge
 _atom_site_pbe_ddec_charge
 _atom_site_pbe_ddec_spin_density
 _atom_site_pbe_ddec_sum_bond_order
 _atom_site_pbe_magmom
U  U0  1  0.11290350  0.06163135  0.75244720  1  2.945204  0  2.226475  2.634142  0  4.714122  0
U  U1  1  0.88714380  0.93842897  0.25240481  1  2.945086  0  2.226616  2.634622  0  4.714198  0
U  U2  1  0.38154322  0.20916864  0.95557166  1  2.962659  0  2.214566  2.654258  0  4.651192  0
U  U3  1  0.61842727  0.79071395  0.45559856  1  2.961494  0  2.214426  2.654007  0  4.651611  0
U  U4  1  0.62003791  0.78611339  0.04589990  1  2.954665  0  2.215535  2.658509  0  4.640489  0
U  U5  1  0.37995551  0.21392325  0.54590942  1  2.953661  0  2.21549  2.658705  0  4.64025  0
P  P6  1  0.34069188  0.51319983  0.98558627  1  3.369197  0  0.396989  1.406888  0  5.204434  0
P  P7  1  0.65935245  0.48680237  0.48563073  1  3.368551  0  0.397021  1.407044  0  5.204837  0
P  P8  1  0.66211791  0.48259115  0.01637429  1  3.333287  0  0.39648  1.407868  0  5.193382  0
P  P9  1  0.33779088  0.51733275  0.51634014  1  3.333111  0  0.396384  1.407922  0  5.193906  0
P  P10  1  0.25679783  0.92820745  0.85708044  1  3.295804  0  0.41052  1.403697  0  5.198656  0
P  P11  1  0.74305308  0.07151266  0.35713072  1  3.300014  0  0.410387  1.403811  0  5.19774  0
P  P12  1  0.74579917  0.06418470  0.14345087  1  3.285931  0  0.411161  1.403359  0  5.197721  0
P  P13  1  0.25433732  0.93604803  0.64341997  1  3.286367  0  0.411312  1.40353  0  5.198009  0
P  P14  1  0.93945468  0.82754059  0.11085343  1  3.285731  0  0.393449  1.373278  0  5.246472  0
P  P15  1  0.06061856  0.17267363  0.61085807  1  3.285689  0  0.393279  1.373619  0  5.246312  0
P  P16  1  0.06743796  0.16790844  0.89087922  1  3.282162  0  0.398575  1.381377  0  5.211108  0
P  P17  1  0.93246567  0.83192543  0.39085215  1  3.281322  0  0.398427  1.381124  0  5.210206  0
H  H18  1  0.92055207  0.19492931  0.72514220  1  0.620273  0  0.337635  0.415261  0  0.87228  0
H  H19  1  0.07939785  0.80488467  0.22505011  1  0.61855  0  0.337974  0.416001  0  0.871641  0
H  H20  1  0.82734427  0.05672036  0.74607510  1  0.596078  0  0.354295  0.432421  0  0.83748  0
H  H21  1  0.17266898  0.94318379  0.24590931  1  0.626111  0  0.354277  0.432537  0  0.837251  0
H  H22  1  0.65064949  0.19082182  0.95906499  1  0.605517  0  0.308363  0.390528  0  0.935685  0
H  H23  1  0.34930106  0.80907786  0.45908556  1  0.604496  0  0.308279  0.390421  0  0.935887  0
H  H24  1  0.35168763  0.80606711  0.04036841  1  0.628593  0  0.306798  0.387458  0  0.940686  0
H  H25  1  0.64836762  0.19402472  0.54038436  1  0.628167  0  0.306689  0.38709  0  0.941274  0
H  H26  1  0.56880133  0.04011699  0.94645078  1  0.650692  0  0.331319  0.426422  0  0.862303  0
H  H27  1  0.43117764  0.95974561  0.44646105  1  0.650572  0  0.331348  0.426351  0  0.862476  0
H  H28  1  0.43340340  0.95730231  0.05182876  1  0.619266  0  0.328872  0.424604  0  0.866714  0
H  H29  1  0.56662838  0.04280921  0.55183168  1  0.619982  0  0.328826  0.424665  0  0.86669  0
H  H30  1  0.38922805  0.47358697  0.90239393  1  0.646109  0  0.333096  0.41336  0  0.895586  0
H  H31  1  0.61094711  0.52632418  0.40242646  1  0.646641  0  0.333345  0.413866  0  0.895051  0
H  H32  1  0.60281586  0.52129944  0.09765446  1  0.667164  0  0.328397  0.406048  0  0.909655  0
H  H33  1  0.39727550  0.47883814  0.59759317  1  0.66755  0  0.328316  0.405935  0  0.91002  0
H  H34  1  0.35052151  0.78756678  0.87282454  1  0.646501  0  0.349097  0.413122  0  0.853325  0
H  H35  1  0.64939928  0.21222330  0.37291463  1  0.646191  0  0.349054  0.413173  0  0.853183  0
H  H36  1  0.65176704  0.20530816  0.13056621  1  0.631274  0  0.349954  0.4138  0  0.851601  0
H  H37  1  0.34832650  0.79488562  0.63049537  1  0.631236  0  0.349619  0.413059  0  0.852587  0
H  H38  1  0.81933858  0.64636814  0.15414581  1  0.675121  0  0.358256  0.421938  0  0.840039  0
H  H39  1  0.18147139  0.35475900  0.65346900  1  0.636357  0  0.358412  0.422112  0  0.839311  0
H  H40  1  0.16099188  0.31802098  0.82930667  1  0.658275  0  0.339753  0.415041  0  0.882508  0
H  H41  1  0.83895575  0.68162925  0.32928133  1  0.65747  0  0.33976  0.414768  0  0.882501  0
H  H42  1  0.12619057  0.58972425  0.90048494  1  0.069706  0  0.104269  0.119269  0  0.999024  0
H  H43  1  0.87372121  0.41010436  0.40059210  1  0.070178  0  0.104355  0.11949  0  0.999108  0
H  H44  1  0.87590840  0.40150254  0.10117245  1  0.062905  0  0.101753  0.11591  0  1.003344  0
H  H45  1  0.12418140  0.59871605  0.60108160  1  0.063272  0  0.101799  0.11609  0  1.003417  0
H  H46  1  0.06897759  0.92241664  0.97557153  1  0.0889  0  0.110725  0.122739  0  1.00876  0
H  H47  1  0.93085197  0.07742510  0.47560047  1  0.089223  0  0.110888  0.122967  0  1.008579  0
H  H48  1  0.93426978  0.07254517  0.02325835  1  0.090608  0  0.109719  0.120732  0  1.009292  0
H  H49  1  0.06573006  0.92752331  0.52323208  1  0.090102  0  0.109634  0.1206  0  1.00953  0
H  H50  1  0.15149628  0.63927809  0.07727343  1  0.057927  0  0.106947  0.119773  0  0.979707  0
H  H51  1  0.84854999  0.36078842  0.57737536  1  0.056103  0  0.106895  0.119996  0  0.979444  0
H  H52  1  0.85211502  0.35955284  0.92399891  1  0.079442  0  0.109158  0.123113  0  0.977022  0
H  H53  1  0.14782287  0.64037059  0.42390994  1  0.077715  0  0.109085  0.122822  0  0.977336  0
H  H54  1  0.12089563  0.40666686  0.96209799  1  0.086978  0  0.113416  0.155829  0  1.029286  0
H  H55  1  0.87923304  0.59333558  0.46228596  1  0.090116  0  0.113419  0.15573  0  1.029325  0
H  H56  1  0.88195762  0.58783811  0.04024292  1  0.09877  0  0.110596  0.151413  0  1.045383  0
H  H57  1  0.11786337  0.41214654  0.54006392  1  0.100838  0  0.110722  0.151589  0  1.045742  0
H  H58  1  0.14401961  0.43125323  0.03436921  1  0.097412  0  0.117048  0.165844  0  0.973342  0
H  H59  1  0.85586743  0.56865824  0.53453575  1  0.095626  0  0.117135  0.165871  0  0.972482  0
H  H60  1  0.85844749  0.56412806  0.96790102  1  0.076589  0  0.117377  0.166344  0  0.972763  0
H  H61  1  0.14162254  0.43595934  0.46774570  1  0.075024  0  0.117604  0.166595  0  0.972312  0
H  H62  1  0.03428489  0.87895243  0.87480528  1  0.095111  0  0.123231  0.179109  0  1.005022  0
H  H63  1  0.96555481  0.12079486  0.37484367  1  0.096187  0  0.123229  0.178935  0  1.005526  0
H  H64  1  0.96711727  0.10973943  0.12401357  1  0.123691  0  0.121463  0.1748  0  1.000885  0
H  H65  1  0.03300565  0.89050164  0.62398997  1  0.127579  0  0.121596  0.174921  0  1.001027  0
H  H66  1  0.05757236  0.74196581  0.84338064  1  0.095381  0  0.121365  0.169622  0  0.96151  0
H  H67  1  0.94228719  0.25775217  0.34344830  1  0.085842  0  0.121649  0.170104  0  0.961797  0
H  H68  1  0.94782972  0.24707034  0.15673281  1  0.102352  0  0.121691  0.17124  0  0.961928  0
H  H69  1  0.05232749  0.75321757  0.65667850  1  0.104047  0  0.121598  0.17111  0  0.962415  0
H  H70  1  0.13913702  0.97245096  0.07426736  1  0.133979  0  0.126927  0.180096  0  0.952672  0
H  H71  1  0.86081154  0.02757974  0.57435050  1  0.134979  0  0.126909  0.179943  0  0.952728  0
H  H72  1  0.86281439  0.02728308  0.92373174  1  0.129667  0  0.125744  0.178013  0  0.954867  0
H  H73  1  0.13709205  0.97265330  0.42371298  1  0.129829  0  0.125829  0.178169  0  0.954448  0
H  H74  1  0.15820258  0.84885123  0.11660883  1  0.063589  0  0.11363  0.15031  0  0.974444  0
H  H75  1  0.84190002  0.15135031  0.61669127  1  0.066287  0  0.113661  0.150225  0  0.97469  0
H  H76  1  0.85337868  0.15655881  0.88165765  1  0.086594  0  0.118767  0.163974  0  0.965877  0
H  H77  1  0.14653901  0.84334957  0.38160376  1  0.087162  0  0.118708  0.163861  0  0.965783  0
C  C78  1  0.14136320  0.60148515  0.98937632  1  0.037814  0  -0.004453  0.190687  0  4.038194  0
C  C79  1  0.85859751  0.39844888  0.48948305  1  0.03657  0  -0.004596  0.191295  0  4.037431  0
C  C80  1  0.86080903  0.39315360  0.01223095  1  -0.073149  0  -0.005073  0.190519  0  4.03874  0
C  C81  1  0.13921305  0.60691477  0.51213725  1  -0.073386  0  -0.004919  0.190668  0  4.037488  0
C  C82  1  0.12100884  0.64580952  0.93732159  1  -0.071589  0  -0.099635  -0.236111  0  3.94158  0
C  C83  1  0.87891594  0.35405542  0.43741589  1  -0.068082  0  -0.100068  -0.237162  0  3.942132  0
C  C84  1  0.88087463  0.34672728  0.06389831  1  -0.026461  0  -0.101039  -0.236068  0  3.939645  0
C  C85  1  0.11920907  0.65343617  0.56381545  1  -0.024838  0  -0.101247  -0.236255  0  3.939046  0
C  C86  1  0.09578276  0.76149982  0.93203777  1  -0.025666  0  -0.004325  0.17812  0  4.046708  0
C  C87  1  0.90409502  0.23832946  0.43210647  1  -0.06203  0  -0.003594  0.179149  0  4.045841  0
C  C88  1  0.90633636  0.23086513  0.06820994  1  -0.035185  0  -0.004943  0.177339  0  4.041966  0
C  C89  1  0.09375739  0.76930811  0.56815232  1  -0.032046  0  -0.00471  0.177677  0  4.042121  0
C  C90  1  0.08722577  0.83129659  0.97962593  1  -0.086291  0  -0.083521  -0.192286  0  3.885005  0
C  C91  1  0.91264776  0.16857472  0.47967826  1  -0.050763  0  -0.084037  -0.19352  0  3.88468  0
C  C92  1  0.91538953  0.16343606  0.02002333  1  0.022151  0  -0.083402  -0.191894  0  3.887652  0
C  C93  1  0.08463604  0.83664563  0.51997866  1  0.017781  0  -0.083328  -0.191733  0  3.88736  0
C  C94  1  0.10749538  0.78847175  0.03201237  1  -0.009917  0  -0.005675  0.170474  0  4.024389  0
C  C95  1  0.89243860  0.21147518  0.53207771  1  -0.012611  0  -0.005289  0.171374  0  4.023496  0
C  C96  1  0.89601026  0.20869727  0.96792616  1  -0.06185  0  -0.004441  0.173013  0  4.028693  0
C  C97  1  0.10397841  0.79130524  0.46786919  1  -0.056981  0  -0.004298  0.173089  0  4.028474  0
C  C98  1  0.13620959  0.67424238  0.03651536  1  -0.073562  0  -0.096967  -0.231609  0  3.938276  0
C  C99  1  0.86376741  0.32574768  0.53660869  1  -0.072574  0  -0.096924  -0.232184  0  3.937855  0
C  C100  1  0.86674506  0.32268775  0.96446074  1  -0.088051  0  -0.096942  -0.23475  0  3.939733  0
C  C101  1  0.13324538  0.67731040  0.46437912  1  -0.087799  0  -0.096919  -0.234453  0  3.939786  0
C  C102  1  0.17152656  0.47973205  0.99389741  1  -0.578169  0  -0.161735  -0.524299  0  3.957659  0
C  C103  1  0.82847977  0.52023597  0.49402946  1  -0.580207  0  -0.161659  -0.524682  0  3.957528  0
C  C104  1  0.83108024  0.51531371  0.00833013  1  -0.539363  0  -0.162925  -0.525834  0  3.958823  0
C  C105  1  0.16887879  0.48470875  0.50820896  1  -0.53929  0  -0.16347  -0.526409  0  3.959033  0
C  C106  1  0.09288543  0.81810671  0.87587202  1  -0.518481  0  -0.155769  -0.537801  0  3.94459  0
C  C107  1  0.90696291  0.18164938  0.37592705  1  -0.509421  0  -0.156264  -0.538284  0  3.945177  0
C  C108  1  0.90989446  0.17205835  0.12395059  1  -0.547374  0  -0.154723  -0.535272  0  3.941626  0
C  C109  1  0.09023261  0.82818856  0.62390597  1  -0.55524  0  -0.154637  -0.535556  0  3.943098  0
C  C110  1  0.09986652  0.86479912  0.08277614  1  -0.551047  0  -0.151244  -0.495352  0  3.91498  0
C  C111  1  0.90013068  0.13525306  0.58283564  1  -0.555886  0  -0.151293  -0.495064  0  3.915186  0
C  C112  1  0.90570840  0.13548366  0.91657722  1  -0.536122  0  -0.151211  -0.501822  0  3.913816  0
C  C113  1  0.09421959  0.86444422  0.41653793  1  -0.53681  0  -0.151213  -0.501761  0  3.913116  0
O  O114  1  0.90727099  0.13126816  0.75520446  1  -1.162663  0  -0.558386  -0.776724  0  1.984043  0
O  O115  1  0.09275428  0.86869162  0.25508679  1  -1.191053  0  -0.558777  -0.777726  0  1.983449  0
O  O116  1  0.57211365  0.13026842  0.94062918  1  -1.224232  0  -0.581254  -0.798806  0  2.043537  0
O  O117  1  0.42786473  0.86957360  0.44066505  1  -1.222995  0  -0.581241  -0.798713  0  2.043589  0
O  O118  1  0.42945539  0.86733154  0.05906186  1  -1.217343  0  -0.58169  -0.797727  0  2.046152  0
O  O119  1  0.57057207  0.13279804  0.55905566  1  -1.217583  0  -0.581591  -0.797564  0  2.046642  0
O  O120  1  0.37876573  0.54896062  0.92209673  1  -1.386419  0  -0.372395  -0.655483  0  2.146975  0
O  O121  1  0.62145628  0.45099878  0.42211887  1  -1.386938  0  -0.372869  -0.656251  0  2.146641  0
O  O122  1  0.62486539  0.44966952  0.08034816  1  -1.414535  0  -0.378878  -0.662042  0  2.13605  0
O  O123  1  0.37484891  0.55025990  0.58034605  1  -1.415025  0  -0.37922  -0.662538  0  2.136437  0
O  O124  1  0.35624864  0.38389569  0.00140399  1  -1.40681  0  -0.431216  -0.823455  0  2.271623  0
O  O125  1  0.64378327  0.61613496  0.50144275  1  -1.406171  0  -0.431217  -0.823398  0  2.271676  0
O  O126  1  0.64741112  0.61262167  0.00066457  1  -1.401063  0  -0.433278  -0.823139  0  2.268134  0
O  O127  1  0.35251798  0.38727664  0.50064731  1  -1.401509  0  -0.433014  -0.823059  0  2.268271  0
O  O128  1  0.41434228  0.63642966  0.01986460  1  -1.424301  0  -0.4307  -0.824514  0  2.307108  0
O  O129  1  0.58560046  0.36363053  0.51988069  1  -1.42363  0  -0.430793  -0.824395  0  2.307007  0
O  O130  1  0.58809783  0.35946176  0.98230674  1  -1.426075  0  -0.42617  -0.822215  0  2.30338  0
O  O131  1  0.41192260  0.64042722  0.48231622  1  -1.425759  0  -0.425908  -0.821985  0  2.303535  0
O  O132  1  0.33342021  0.83482329  0.84134872  1  -1.368737  0  -0.372418  -0.625354  0  2.113947  0
O  O133  1  0.66639163  0.16484802  0.34143254  1  -1.370147  0  -0.372369  -0.625497  0  2.113502  0
O  O134  1  0.67315113  0.15973471  0.16154977  1  -1.354568  0  -0.371722  -0.625339  0  2.11331  0
O  O135  1  0.32696423  0.84049161  0.66149421  1  -1.354388  0  -0.371434  -0.624624  0  2.11377  0
O  O136  1  0.32034159  0.01192519  0.90760818  1  -1.414207  0  -0.440071  -0.838024  0  2.332953  0
O  O137  1  0.67956582  0.98786085  0.40765432  1  -1.414922  0  -0.440101  -0.838013  0  2.33284  0
O  O138  1  0.67857999  0.98450169  0.09257594  1  -1.413583  0  -0.441346  -0.835255  0  2.332115  0
O  O139  1  0.32155829  0.01564061  0.59254878  1  -1.41418  0  -0.441674  -0.835417  0  2.332645  0
O  O140  1  0.25633987  0.00611596  0.80520373  1  -1.395967  0  -0.419546  -0.784839  0  2.269957  0
O  O141  1  0.74349685  0.99354255  0.30523955  1  -1.397159  0  -0.419511  -0.784805  0  2.269414  0
O  O142  1  0.74593240  0.98133219  0.19376690  1  -1.397156  0  -0.419667  -0.785997  0  2.281057  0
O  O143  1  0.25423727  0.01899530  0.69373878  1  -1.397501  0  -0.419617  -0.785904  0  2.280937  0
O  O144  1  0.95754093  0.91522677  0.16197618  1  -1.44334  0  -0.43313  -0.878219  0  2.377209  0
O  O145  1  0.04269509  0.08532868  0.66203876  1  -1.444273  0  -0.432758  -0.878056  0  2.376615  0
O  O146  1  0.04837564  0.06984119  0.84304690  1  -1.415097  0  -0.437016  -0.843345  0  2.355226  0
O  O147  1  0.95143724  0.92985382  0.34302021  1  -1.416107  0  -0.436977  -0.843737  0  2.355985  0
O  O148  1  0.84775498  0.83979848  0.06665226  1  -1.434154  0  -0.40409  -0.823796  0  2.239595  0
O  O149  1  0.15226580  0.16019126  0.56665932  1  -1.434079  0  -0.404145  -0.824174  0  2.239657  0
O  O150  1  0.15455446  0.15813546  0.93779945  1  -1.432552  0  -0.40845  -0.826416  0  2.237831  0
O  O151  1  0.84538711  0.84174041  0.43779427  1  -1.432315  0  -0.40875  -0.826436  0  2.237378  0
O  O152  1  0.89783868  0.67501734  0.13144117  1  -1.41447  0  -0.375931  -0.662452  0  2.17983  0
O  O153  1  0.10217780  0.32535128  0.63127121  1  -1.374345  0  -0.376055  -0.662718  0  2.180363  0
O  O154  1  0.11996863  0.31602188  0.86575805  1  -1.400224  0  -0.374422  -0.65885  0  2.174396  0
O  O155  1  0.87994595  0.68373950  0.36573312  1  -1.399287  0  -0.373599  -0.657836  0  2.174275  0
O  O156  1  0.40595169  0.30833451  0.89260314  1  -0.877406  0  -0.745542  -0.739709  0  1.769047  0
O  O157  1  0.59405416  0.69141585  0.39262935  1  -0.877646  0  -0.745377  -0.739671  0  1.769932  0
O  O158  1  0.59607241  0.68660077  0.10909733  1  -0.891374  0  -0.748365  -0.756058  0  1.766846  0
O  O159  1  0.40388803  0.31358539  0.60911014  1  -0.890864  0  -0.748138  -0.756298  0  1.766444  0
O  O160  1  0.35509136  0.11368302  0.01957153  1  -0.887055  0  -0.763946  -0.751569  0  1.732153  0
O  O161  1  0.64486906  0.88631377  0.51960402  1  -0.885655  0  -0.763868  -0.751513  0  1.731933  0
O  O162  1  0.64752686  0.88060964  0.98175040  1  -0.872771  0  -0.761593  -0.742246  0  1.726268  0
O  O163  1  0.35245392  0.11930739  0.48175672  1  -0.872545  0  -0.761575  -0.742194  0  1.726363  0
O  O164  1  0.19993987  0.24249459  0.75685354  1  -0.906119  0  -0.76061  -0.770815  0  1.708643  0
O  O165  1  0.80019843  0.75750715  0.25650908  1  -0.906619  0  -0.760936  -0.771413  0  1.70782  0
O  O166  1  0.00266224  0.88879881  0.74966194  1  -0.853629  0  -0.763788  -0.71593  0  1.694814  0
O  O167  1  0.99734052  0.11129177  0.24984397  1  -0.853356  0  -0.763739  -0.715878  0  1.694782  0
