# generated using pymatgen
data_CuH14C20(NO)4
_symmetry_space_group_name_H-M   'P 1'
_cell_length_a   12.74923748
_cell_length_b   15.70339816
_cell_length_c   15.70493743
_cell_angle_alpha   80.49053700
_cell_angle_beta   66.03191477
_cell_angle_gamma   66.04895936
_symmetry_Int_Tables_number   1
_chemical_formula_structural   CuH14C20(NO)4
_chemical_formula_sum   'Cu4 H56 C80 N16 O16'
_cell_volume   2625.71159668
_cell_formula_units_Z   4
loop_
 _symmetry_equiv_pos_site_id
 _symmetry_equiv_pos_as_xyz
  1  'x, y, z'
loop_
 _atom_site_type_symbol
 _atom_site_label
 _atom_site_symmetry_multiplicity
 _atom_site_fract_x
 _atom_site_fract_y
 _atom_site_fract_z
 _atom_site_occupancy
 _atom_site_pbe_bader_charge
 _atom_site_pbe_bader_spin_density
 _atom_site_pbe_cm5_charge
 _atom_site_pbe_ddec_charge
 _atom_site_pbe_ddec_spin_density
 _atom_site_pbe_ddec_sum_bond_order
 _atom_site_pbe_magmom
Cu  Cu0  1  0.99999899  0.49999915  0.50000081  1  1.066718  0.568627  0.747909  0.780817  0.728677  2.205398  0.569
Cu  Cu1  1  0.49999943  0.00000045  0.99999999  1  1.06895  0.56901  0.74775  0.779561  0.729129  2.209664  0.569
Cu  Cu2  1  0.50000043  0.50000052  0.00000025  1  1.065345  0.568669  0.747556  0.779446  0.728851  2.207064  0.569
Cu  Cu3  1  0.50000043  0.99999905  0.50000044  1  1.066165  0.568582  0.747997  0.779745  0.728727  2.209  0.569
H  H4  1  0.61886359  0.46523680  0.15022035  1  0.162497  0.000312  0.144118  0.114232  -1.7e-05  0.986287  0.0
H  H5  1  0.73436396  0.03478878  0.34977937  1  0.160052  0.000312  0.143758  0.113848  -1.8e-05  0.986147  0.0
H  H6  1  0.76935125  0.84977918  0.96517166  1  0.160358  0.000308  0.143875  0.113914  -1.8e-05  0.986434  0.0
H  H7  1  0.08423801  0.65025504  0.53469438  1  0.165865  0.000313  0.144015  0.114301  -1.7e-05  0.985808  0.0
H  H8  1  0.38113688  0.53476395  0.84977958  1  0.162485  0.000312  0.144121  0.114238  -1.7e-05  0.9863  0.0
H  H9  1  0.26563640  0.96520989  0.65022000  1  0.160026  0.000312  0.143805  0.113951  -1.8e-05  0.986175  0.0
H  H10  1  0.23064645  0.15022227  0.03482899  1  0.160329  0.000308  0.143867  0.113909  -1.8e-05  0.986429  0.0
H  H11  1  0.91576171  0.34974571  0.46530802  1  0.165911  0.000313  0.144019  0.114298  -1.7e-05  0.985802  0.0
H  H12  1  0.44602538  0.71649094  0.02953138  1  0.201705  0.000668  0.126717  0.139553  0.000259  1.006405  0.001
H  H13  1  0.69176813  0.78373643  0.47076583  1  0.173552  0.000686  0.126329  0.139532  0.000261  1.005876  0.001
H  H14  1  0.47557779  0.97045818  0.21626128  1  0.202386  0.00067  0.126842  0.139682  0.000259  1.006169  0.001
H  H15  1  0.16246063  0.52957331  0.28359003  1  0.180706  0.000679  0.126918  0.140863  0.000259  1.006333  0.001
H  H16  1  0.55397579  0.28350842  0.97046855  1  0.201898  0.000668  0.126704  0.13955  0.000259  1.006409  0.001
H  H17  1  0.30823431  0.21626154  0.52923438  1  0.173551  0.000686  0.126318  0.139481  0.00026  1.005943  0.001
H  H18  1  0.52442147  0.02954258  0.78373900  1  0.202407  0.00067  0.126846  0.139672  0.000259  1.006209  0.001
H  H19  1  0.83753691  0.47042466  0.71641253  1  0.180676  0.000678  0.126931  0.140854  0.000259  1.006344  0.001
H  H20  1  0.52915454  0.75688765  0.14943441  1  0.144278  0.000957  0.123873  0.12917  0.000476  1.019684  0.001
H  H21  1  0.93529277  0.74307026  0.35066289  1  0.143412  0.000959  0.123851  0.129585  0.000475  1.018476  0.001
H  H22  1  0.67849535  0.85039427  0.25689033  1  0.129363  0.000971  0.123672  0.129137  0.000475  1.019366  0.001
H  H23  1  0.28617869  0.64946526  0.24299814  1  0.149779  0.000955  0.123914  0.129541  0.000475  1.019348  0.001
H  H24  1  0.47084437  0.24311380  0.85056588  1  0.14429  0.000957  0.123875  0.129196  0.000476  1.019711  0.001
H  H25  1  0.06470961  0.25692910  0.64933669  1  0.143416  0.000959  0.12386  0.129584  0.000475  1.018464  0.001
H  H26  1  0.32150356  0.14960718  0.74310995  1  0.129349  0.000971  0.123683  0.129137  0.000475  1.019348  0.001
H  H27  1  0.71381965  0.35053271  0.75700103  1  0.149677  0.000955  0.123909  0.129566  0.000475  1.019339  0.001
H  H28  1  0.50898986  0.71628493  0.31377646  1  0.098578  0.000215  0.099189  0.102849  9.8e-05  1.071008  0.0
H  H29  1  0.03911569  0.78376606  0.18618912  1  0.077649  0.000215  0.099214  0.102013  9.8e-05  1.070866  0.0
H  H30  1  0.82272774  0.68602007  0.21639011  1  0.07706  0.000219  0.099159  0.102652  9.8e-05  1.07063  0.0
H  H31  1  0.22535102  0.81392586  0.28364943  1  0.080721  0.000216  0.099407  0.103268  9.8e-05  1.07003  0.0
H  H32  1  0.49100975  0.28371512  0.68622383  1  0.098587  0.000215  0.099194  0.102866  9.8e-05  1.070996  0.0
H  H33  1  0.96088490  0.21623330  0.81381053  1  0.077662  0.000215  0.099193  0.101991  9.8e-05  1.07088  0.0
H  H34  1  0.17727226  0.31398277  0.78361010  1  0.076956  0.00022  0.099154  0.102625  9.8e-05  1.070626  0.0
H  H35  1  0.77464928  0.18607280  0.71635086  1  0.08072  0.000216  0.099401  0.103262  9.8e-05  1.070032  0.0
H  H36  1  0.61612365  0.69629449  0.42229756  1  0.136007  5.4e-05  0.10808  0.113838  3e-05  1.014786  0.0
H  H37  1  0.23458126  0.80399313  0.07739587  1  0.099402  5.4e-05  0.108113  0.114524  2.9e-05  1.014185  0.0
H  H38  1  0.03842740  0.57735542  0.19628529  1  0.134028  5.3e-05  0.10805  0.113974  3e-05  1.014655  0.0
H  H39  1  0.31229167  0.92261005  0.30373814  1  0.097522  5.4e-05  0.10814  0.113365  3e-05  1.014965  0.0
H  H40  1  0.38387573  0.30370487  0.57770245  1  0.135999  5.4e-05  0.108087  0.113859  3e-05  1.014731  0.0
H  H41  1  0.76541939  0.19600623  0.92260286  1  0.099386  5.4e-05  0.108094  0.11446  2.9e-05  1.014178  0.0
H  H42  1  0.96157133  0.42264882  0.80371464  1  0.133903  5.3e-05  0.108053  0.113952  3e-05  1.01461  0.0
H  H43  1  0.68770985  0.07738861  0.69626180  1  0.097493  5.5e-05  0.108142  0.113384  3e-05  1.014936  0.0
H  H44  1  0.90919095  0.45112039  0.27353297  1  0.094565  0.000626  0.109316  0.117121  0.000505  0.986751  0.0
H  H45  1  0.13396171  0.04882894  0.22646524  1  0.080805  0.000648  0.108921  0.116597  0.000509  0.987774  0.0
H  H46  1  0.18274807  0.72627203  0.95112404  1  0.09484  0.000638  0.109333  0.117272  0.000505  0.986441  0.0
H  H47  1  0.36059981  0.77344416  0.54867115  1  0.113857  0.000623  0.109449  0.11742  0.000507  0.987513  0.0
H  H48  1  0.09080877  0.54887966  0.72646548  1  0.094556  0.000626  0.109328  0.117142  0.000505  0.986736  0.0
H  H49  1  0.86603980  0.95116973  0.77353470  1  0.080769  0.000648  0.108908  0.116587  0.000509  0.987806  0.0
H  H50  1  0.81725125  0.27372872  0.04887533  1  0.09464  0.000638  0.10935  0.117277  0.000505  0.986462  0.0
H  H51  1  0.63939807  0.22655450  0.45132986  1  0.113848  0.000624  0.109439  0.117387  0.000507  0.987507  0.0
H  H52  1  0.80309022  0.47024835  0.16410654  1  0.105429  6.7e-05  0.109031  0.116497  2.5e-05  0.996363  0.0
H  H53  1  0.93758492  0.02964239  0.33604538  1  0.060874  6.9e-05  0.108514  0.116183  2.5e-05  0.996085  0.0
H  H54  1  0.96720176  0.83576815  0.97024863  1  0.080648  6.8e-05  0.108833  0.116224  2.5e-05  0.996587  0.0
H  H55  1  0.27377652  0.66387905  0.52948336  1  0.062055  6.9e-05  0.108771  0.116311  2.5e-05  0.996422  0.0
H  H56  1  0.19690875  0.52975310  0.83589283  1  0.105435  6.7e-05  0.10902  0.116493  2.5e-05  0.996317  0.0
H  H57  1  0.06241717  0.97035627  0.66395483  1  0.060858  6.9e-05  0.108503  0.116175  2.5e-05  0.996068  0.0
H  H58  1  0.03279871  0.16423400  0.02974975  1  0.080488  6.8e-05  0.10884  0.116218  2.5e-05  0.996608  0.0
H  H59  1  0.72622136  0.33611962  0.47051764  1  0.062083  6.9e-05  0.108777  0.116303  2.5e-05  0.996423  0.0
C  C60  1  0.58285321  0.53831876  0.13303383  1  0.948869  -0.002128  0.145993  0.094249  -0.002626  3.896726  -0.001
C  C61  1  0.75424443  0.96172728  0.36703623  1  0.965334  -0.002136  0.14672  0.099644  -0.002625  3.900858  -0.001
C  C62  1  0.71607699  0.86691001  0.03825743  1  0.97984  -0.00216  0.147465  0.100661  -0.002615  3.897562  -0.001
C  C63  1  0.12129998  0.63307039  0.46162402  1  0.963514  -0.002148  0.147145  0.098631  -0.002612  3.90092  -0.001
C  C64  1  0.41714605  0.46168200  0.86696645  1  0.949298  -0.002127  0.145987  0.094214  -0.002624  3.896835  -0.001
C  C65  1  0.24575714  0.03827138  0.63296278  1  0.965324  -0.002136  0.146716  0.099578  -0.002626  3.900778  -0.001
C  C66  1  0.28392226  0.13309074  0.96174285  1  0.979853  -0.002159  0.147427  0.100611  -0.002615  3.897622  -0.001
C  C67  1  0.87869986  0.36692897  0.53837810  1  0.963566  -0.002147  0.147164  0.098728  -0.002611  3.900913  -0.001
C  C68  1  0.49189894  0.66985805  0.07368475  1  0.38173  0.000986  0.008238  -0.013999  0.000699  3.952483  0.001
C  C69  1  0.73531002  0.83026549  0.42655691  1  0.414345  0.000976  0.009322  -0.011779  0.000674  3.947698  0.001
C  C70  1  0.56566964  0.92631802  0.16973422  1  0.382713  0.000988  0.009028  -0.012211  0.000677  3.949267  0.001
C  C71  1  0.16181208  0.57371065  0.33015154  1  0.396994  0.000997  0.008457  -0.014653  0.000686  3.948689  0.001
C  C72  1  0.50809992  0.33014340  0.92631646  1  0.381502  0.000987  0.008325  -0.013871  0.000699  3.952353  0.001
C  C73  1  0.26469207  0.16973317  0.57344331  1  0.414354  0.000976  0.009283  -0.0118  0.000675  3.947759  0.001
C  C74  1  0.43432892  0.07368413  0.83026607  1  0.382718  0.000988  0.009045  -0.012205  0.000677  3.949254  0.001
C  C75  1  0.83818505  0.42628940  0.66985038  1  0.396881  0.000998  0.008388  -0.014677  0.000686  3.948698  0.001
C  C76  1  0.53242506  0.69136270  0.13290571  1  0.267233  0.00357  0.00217  -0.101595  0.002361  3.885888  0.003
C  C77  1  0.85660102  0.80865364  0.36726846  1  0.262769  0.003559  0.002262  -0.097679  0.002359  3.885335  0.003
C  C78  1  0.66532359  0.86701888  0.19133859  1  0.28146  0.003532  0.002083  -0.098155  0.002357  3.890031  0.003
C  C79  1  0.22393905  0.63290467  0.30855722  1  0.271849  0.003559  0.001847  -0.099052  0.00236  3.889005  0.003
C  C80  1  0.46757391  0.30863736  0.86709521  1  0.267319  0.003569  0.002123  -0.10171  0.00236  3.885818  0.003
C  C81  1  0.14340107  0.19134503  0.63273175  1  0.262815  0.003559  0.002254  -0.097669  0.002358  3.885354  0.003
C  C82  1  0.33467595  0.13298257  0.80866106  1  0.281445  0.003532  0.002032  -0.098158  0.002357  3.889959  0.003
C  C83  1  0.77605906  0.36709330  0.69144562  1  0.272  0.003559  0.001878  -0.099009  0.00236  3.888887  0.003
C  C84  1  0.65001067  0.59446491  0.23291665  1  0.237925  0.000422  0.095015  0.166151  0.000269  4.023565  0.0
C  C85  1  0.97744436  0.90551888  0.26711281  1  0.276025  0.000423  0.094415  0.169429  0.000269  4.021813  0.0
C  C86  1  0.88294860  0.76690864  0.09452600  1  0.259933  0.000422  0.094956  0.169214  0.000272  4.023872  0.0
C  C87  1  0.24474261  0.73292311  0.40536378  1  0.251679  0.000423  0.094461  0.166989  0.000268  4.025154  0.0
C  C88  1  0.34999038  0.40553585  0.76708356  1  0.238059  0.000422  0.094971  0.166184  0.000268  4.023609  0.0
C  C89  1  0.02255680  0.09448048  0.73288712  1  0.27568  0.000422  0.094448  0.169489  0.000269  4.021804  0.0
C  C90  1  0.11705152  0.23309281  0.90547393  1  0.259919  0.000422  0.094968  0.169187  0.000272  4.02379  0.0
C  C91  1  0.75525654  0.26707556  0.59463595  1  0.252079  0.000424  0.094472  0.167028  0.000269  4.025051  0.0
C  C92  1  0.59680377  0.65856276  0.30500106  1  -0.005058  0.001028  -0.09401  -0.175772  0.00068  3.998463  0.001
C  C93  1  0.06039511  0.84151245  0.19493501  1  0.02496  0.001013  -0.093985  -0.173347  0.000677  3.992537  0.001
C  C94  1  0.90177238  0.69477491  0.15862561  1  0.026977  0.001011  -0.094614  -0.174901  0.000678  3.997131  0.001
C  C95  1  0.25546586  0.80513323  0.34134567  1  0.002784  0.001029  -0.094599  -0.175185  0.00068  3.993759  0.001
C  C96  1  0.40319543  0.34143799  0.69500015  1  -0.005126  0.001028  -0.094012  -0.175841  0.000681  3.998491  0.001
C  C97  1  0.93960698  0.15848621  0.80506520  1  0.024821  0.001013  -0.094005  -0.173421  0.000677  3.99256  0.001
C  C98  1  0.09822682  0.30522723  0.84137404  1  0.026831  0.001011  -0.094647  -0.174881  0.000678  3.997037  0.001
C  C99  1  0.74453507  0.19486544  0.65865398  1  0.002779  0.001028  -0.094634  -0.175216  0.00068  3.993783  0.001
C  C100  1  0.65654085  0.64724835  0.36545929  1  -0.047062  0.000754  -0.080469  -0.080621  0.00033  3.964206  0.001
C  C101  1  0.16917716  0.85296908  0.13431155  1  -0.027289  0.000757  -0.079925  -0.081303  0.000321  3.964401  0.001
C  C102  1  0.02197471  0.63424939  0.14726129  1  -0.068002  0.000765  -0.079459  -0.080137  0.00033  3.965065  0.001
C  C103  1  0.30377772  0.86566125  0.35269608  1  -0.001744  0.000753  -0.080174  -0.079441  0.000326  3.962878  0.001
C  C104  1  0.34345910  0.35275101  0.63454100  1  -0.047467  0.000754  -0.08047  -0.080622  0.00033  3.964151  0.001
C  C105  1  0.83082313  0.14703097  0.86568718  1  -0.02716  0.000757  -0.079889  -0.081188  0.000321  3.964255  0.001
C  C106  1  0.97802408  0.36575346  0.85273928  1  -0.067911  0.000766  -0.079456  -0.080088  0.000331  3.96501  0.001
C  C107  1  0.69622287  0.13433811  0.64730357  1  -0.001747  0.000754  -0.080157  -0.079448  0.000326  3.962892  0.001
C  C108  1  0.76951126  0.57286030  0.35426907  1  -0.013575  0.009668  -0.018515  -0.03089  0.006721  3.953204  0.008
C  C109  1  0.19659943  0.92731279  0.14557120  1  -0.053101  0.009629  -0.019013  -0.033448  0.006685  3.958636  0.007
C  C110  1  0.12374557  0.64552604  0.07287651  1  -0.03316  0.009628  -0.019388  -0.031434  0.006706  3.955874  0.008
C  C111  1  0.34242733  0.85433888  0.42705846  1  -0.016413  0.009652  -0.018208  -0.032131  0.006728  3.955449  0.008
C  C112  1  0.23049001  0.42714045  0.64572747  1  -0.013836  0.009668  -0.0185  -0.030892  0.006721  3.95317  0.008
C  C113  1  0.80339966  0.07268727  0.85442789  1  -0.053117  0.009629  -0.019036  -0.033425  0.006685  3.958611  0.007
C  C114  1  0.87625322  0.35447681  0.92712406  1  -0.032682  0.009626  -0.019391  -0.031516  0.006705  3.955916  0.008
C  C115  1  0.65757320  0.14566048  0.57294211  1  -0.016345  0.009651  -0.018183  -0.032084  0.006728  3.955489  0.008
C  C116  1  0.82058862  0.50813874  0.28267101  1  -0.065019  0.000188  -0.082603  -0.08266  5.4e-05  3.981648  0.0
C  C117  1  0.11139143  0.99190569  0.21729505  1  -0.018149  0.000185  -0.082395  -0.081031  6.2e-05  3.981843  0.0
C  C118  1  0.10324215  0.71714774  0.00814180  1  -0.050272  0.000192  -0.082825  -0.083483  5.8e-05  3.984209  0.0
C  C119  1  0.32893880  0.78261086  0.49170977  1  -0.050944  0.000194  -0.083207  -0.083221  5.9e-05  3.984919  0.0
C  C120  1  0.17941128  0.49186201  0.71732864  1  -0.064573  0.000188  -0.082645  -0.082745  5.3e-05  3.981599  0.0
C  C121  1  0.88860916  0.00809367  0.78270460  1  -0.018029  0.000185  -0.082395  -0.081059  6.2e-05  3.9818  0.0
C  C122  1  0.89675699  0.28285441  0.99185877  1  -0.050313  0.000193  -0.082817  -0.083401  5.9e-05  3.984273  0.0
C  C123  1  0.67106150  0.21738781  0.50829051  1  -0.050953  0.000195  -0.083235  -0.083224  5.9e-05  3.985005  0.0
C  C124  1  0.76147050  0.51866305  0.22178716  1  -0.032013  0.000247  -0.092493  -0.175002  6.3e-05  3.994552  0.0
C  C125  1  0.00195568  0.98132071  0.27825623  1  -0.017772  0.000244  -0.09201  -0.174767  6.3e-05  3.991627  0.0
C  C126  1  0.98324409  0.77805875  0.01867046  1  -0.013095  0.000242  -0.092416  -0.174092  6.2e-05  3.995085  0.0
C  C127  1  0.28047399  0.72166391  0.48113613  1  -0.020528  0.000247  -0.091822  -0.172739  6.5e-05  3.993601  0.0
C  C128  1  0.23853101  0.48133701  0.77821121  1  -0.03206  0.000247  -0.092475  -0.174986  6.4e-05  3.994469  0.0
C  C129  1  0.99804548  0.01867865  0.72174370  1  -0.017767  0.000245  -0.091972  -0.174714  6.4e-05  3.991549  0.0
C  C130  1  0.01675534  0.22194409  0.98132947  1  -0.012855  0.000242  -0.092463  -0.174146  6.1e-05  3.995208  0.0
C  C131  1  0.71952481  0.27833545  0.51886360  1  -0.02094  0.000246  -0.091833  -0.172737  6.5e-05  3.993602  0.0
C  C132  1  0.83513621  0.56613795  0.41753606  1  1.572589  -0.001884  0.185594  0.541259  -0.002462  4.255545  -0.004
C  C133  1  0.31880373  0.93414578  0.08246251  1  1.573829  -0.001927  0.184998  0.540473  -0.002483  4.258573  -0.004
C  C134  1  0.25266521  0.58230121  0.06615095  1  1.572875  -0.001884  0.185559  0.540944  -0.00246  4.256876  -0.004
C  C135  1  0.40128428  0.91760330  0.43389577  1  1.557948  -0.001869  0.18463  0.539987  -0.002472  4.255068  -0.004
C  C136  1  0.16486294  0.43386071  0.58246367  1  1.572259  -0.001884  0.185578  0.541351  -0.002462  4.255501  -0.004
C  C137  1  0.68119715  0.06585427  0.91753650  1  1.573793  -0.001927  0.185025  0.540474  -0.002483  4.258578  -0.004
C  C138  1  0.74733336  0.41770094  0.93384934  1  1.572148  -0.001883  0.18553  0.540939  -0.002459  4.256942  -0.004
C  C139  1  0.59871752  0.08239606  0.56610352  1  1.557624  -0.00187  0.184635  0.540025  -0.002471  4.254919  -0.004
N  N140  1  0.52351030  0.57447997  0.07505281  1  -1.172801  0.074607  -0.371218  -0.27735  0.049996  3.658951  0.065
N  N141  1  0.67300467  0.92563547  0.42509348  1  -1.183348  0.074476  -0.372237  -0.278555  0.049899  3.661856  0.065
N  N142  1  0.59874408  0.92494027  0.07435392  1  -1.195453  0.074602  -0.372756  -0.278479  0.049891  3.656957  0.065
N  N143  1  0.09802366  0.57510537  0.42553784  1  -1.189611  0.074569  -0.372235  -0.277104  0.049852  3.656198  0.065
N  N144  1  0.47648826  0.42552217  0.92494748  1  -1.17311  0.074606  -0.371227  -0.277372  0.049995  3.659061  0.065
N  N145  1  0.32699690  0.07436320  0.57490553  1  -1.183372  0.074475  -0.372217  -0.278464  0.049898  3.661755  0.065
N  N146  1  0.40125367  0.07506118  0.92564580  1  -1.195419  0.0746  -0.372702  -0.278435  0.04989  3.656974  0.065
N  N147  1  0.90197723  0.42489330  0.57446273  1  -1.189628  0.074567  -0.372241  -0.27715  0.049851  3.656223  0.065
N  N148  1  0.59048327  0.60724098  0.16987341  1  -1.261722  0.002182  -0.225614  0.022819  0.001159  3.790221  0.002
N  N149  1  0.86763305  0.89274207  0.33019734  1  -1.263266  0.002177  -0.225593  0.008386  0.001159  3.808583  0.002
N  N150  1  0.76041382  0.83001246  0.10725678  1  -1.271118  0.002184  -0.225942  0.007904  0.001163  3.808356  0.002
N  N151  1  0.19793015  0.66988056  0.39263789  1  -1.268499  0.002184  -0.225866  0.010151  0.001163  3.812817  0.002
N  N152  1  0.40951506  0.39276047  0.83012659  1  -1.261883  0.002183  -0.225562  0.022881  0.001159  3.790264  0.002
N  N153  1  0.13236812  0.10725729  0.66980259  1  -1.262941  0.002177  -0.225636  0.008282  0.001159  3.808577  0.002
N  N154  1  0.23958572  0.16998899  0.89274287  1  -1.271129  0.002185  -0.225904  0.00797  0.001163  3.808271  0.002
N  N155  1  0.80206865  0.33011880  0.60736184  1  -1.268457  0.002184  -0.225848  0.010037  0.001163  3.812855  0.002
O  O156  1  0.94512278  0.50087705  0.39655170  1  -1.121845  0.122262  -0.336832  -0.554723  0.077668  2.275507  0.11
O  O157  1  0.34234578  0.99947737  0.10354808  1  -1.112856  0.122182  -0.336345  -0.553357  0.077585  2.274235  0.11
O  O158  1  0.34164005  0.60338865  0.00090430  1  -1.11674  0.122237  -0.336655  -0.554012  0.07773  2.274607  0.11
O  O159  1  0.44600441  0.89649248  0.49917194  1  -1.110452  0.122383  -0.336353  -0.553938  0.077787  2.273852  0.11
O  O160  1  0.05487718  0.49912231  0.60344859  1  -1.12184  0.122261  -0.336818  -0.554722  0.077667  2.275543  0.11
O  O161  1  0.65765388  0.00052269  0.89645129  1  -1.112848  0.122185  -0.336324  -0.55335  0.077587  2.274286  0.11
O  O162  1  0.65836019  0.39661141  0.99909535  1  -1.115996  0.122234  -0.336681  -0.55406  0.077728  2.274653  0.11
O  O163  1  0.55399740  0.10350549  0.50082891  1  -1.110494  0.122378  -0.336386  -0.554004  0.077784  2.273889  0.11
O  O164  1  0.78374642  0.62127589  0.48433095  1  -1.16553  0.000922  -0.329179  -0.555193  -0.000622  2.111057  0.002
O  O165  1  0.38964541  0.87899863  0.01570307  1  -1.171022  0.000915  -0.328632  -0.553985  -0.000626  2.112424  0.002
O  O166  1  0.26814139  0.51544465  0.12126154  1  -1.169296  0.000915  -0.329015  -0.554819  -0.000629  2.112073  0.002
O  O167  1  0.40505477  0.98447293  0.37881163  1  -1.168992  0.000935  -0.32875  -0.553877  -0.000611  2.111118  0.002
O  O168  1  0.21625049  0.37871999  0.51566985  1  -1.165002  0.000923  -0.329166  -0.55526  -0.000622  2.110933  0.002
O  O169  1  0.61035581  0.12100073  0.98429594  1  -1.170986  0.000915  -0.328656  -0.554007  -0.000626  2.11231  0.002
O  O170  1  0.73185816  0.48455680  0.87873811  1  -1.169357  0.000915  -0.328966  -0.554763  -0.000629  2.112161  0.002
O  O171  1  0.59494952  0.01552503  0.62118759  1  -1.168711  0.000936  -0.32874  -0.553882  -0.000611  2.11101  0.002
