# generated using pymatgen
data_Cd5H40C26(N3O4)4
_symmetry_space_group_name_H-M   'P 1'
_cell_length_a   9.04868532
_cell_length_b   9.68481088
_cell_length_c   13.03666908
_cell_angle_alpha   94.21371697
_cell_angle_beta   109.25109202
_cell_angle_gamma   113.38061616
_symmetry_Int_Tables_number   1
_chemical_formula_structural   Cd5H40C26(N3O4)4
_chemical_formula_sum   'Cd5 H40 C26 N12 O16'
_cell_volume   962.10686538
_cell_formula_units_Z   1
loop_
 _symmetry_equiv_pos_site_id
 _symmetry_equiv_pos_as_xyz
  1  'x, y, z'
loop_
 _atom_site_type_symbol
 _atom_site_label
 _atom_site_symmetry_multiplicity
 _atom_site_fract_x
 _atom_site_fract_y
 _atom_site_fract_z
 _atom_site_occupancy
 _atom_site_hle17_bader_spin_density
 _atom_site_hle17_ddec_charge
 _atom_site_hle17_ddec_spin_density
 _atom_site_hle17_ddec_sum_bond_order
 _atom_site_hle17_magmom
 _atom_site_hse06_10hf_bader_spin_density
 _atom_site_hse06_10hf_ddec_charge
 _atom_site_hse06_10hf_ddec_spin_density
 _atom_site_hse06_10hf_ddec_sum_bond_order
 _atom_site_hse06_10hf_magmom
 _atom_site_hse06_bader_spin_density
 _atom_site_hse06_ddec_charge
 _atom_site_hse06_ddec_spin_density
 _atom_site_hse06_ddec_sum_bond_order
 _atom_site_hse06_magmom
 _atom_site_pbe_bader_spin_density
 _atom_site_pbe_cm5_charge
 _atom_site_pbe_ddec_charge
 _atom_site_pbe_ddec_spin_density
 _atom_site_pbe_ddec_sum_bond_order
 _atom_site_pbe_magmom
Cd  Cd0  1  0.83786770  0.43895164  0.27968451  1  0  1.205421  0  1.735583  0  0  1.017282  0  2.199596  0  0  1.068647  0  2.147399  0  0  0.79309  0.978954  0  2.235532  0
Cd  Cd1  1  0.16213170  0.56104842  0.72031468  1  0  1.205396  0  1.735604  0  0  1.017275  0  2.199614  0  0  1.068643  0  2.147416  0  0  0.793097  0.978947  0  2.235551  0
Cd  Cd2  1  0.04548977  0.17797520  0.28799286  1  0  1.15669  0  1.638207  0  0  0.953243  0  2.08634  0  0  1.009564  0  2.035562  0  0  0.786559  0.913008  0  2.120254  0
Cd  Cd3  1  0.95450905  0.82202370  0.71200768  1  0  1.156679  0  1.638211  0  0  0.95325  0  2.086303  0  0  1.009573  0  2.035526  0  0  0.786556  0.913016  0  2.120219  0
Cd  Cd4  1  0.99999946  0.00000140  0.99999958  1  0  1.032115  0  1.830053  0  0  0.818391  0  2.298876  0  0  0.869647  0  2.256125  0  0  0.791935  0.779632  0  2.329054  0
H  H5  1  0.83799430  0.65047979  0.45633978  1  0  0.418733  0  0.886648  0  0  0.390459  0  0.946958  0  0  0.401125  0  0.931412  0  0  0.285979  0.382525  0  0.958556  0
H  H6  1  0.16200920  0.34952142  0.54366117  1  0  0.418712  0  0.886671  0  0  0.390441  0  0.946975  0  0  0.401107  0  0.931429  0  0  0.285967  0.382507  0  0.958572  0
H  H7  1  0.87263777  0.52977871  0.51652831  1  0  0.420519  0  0.888572  0  0  0.387889  0  0.956009  0  0  0.399505  0  0.939113  0  0  0.284132  0.379543  0  0.968137  0
H  H8  1  0.12736398  0.47022134  0.48347295  1  0  0.420492  0  0.8886  0  0  0.387855  0  0.956056  0  0  0.399469  0  0.939163  0  0  0.284099  0.379509  0  0.968183  0
H  H9  1  0.19703660  0.12812703  0.51469017  1  0  0.429643  0  0.874097  0  0  0.392843  0  0.949063  0  0  0.404094  0  0.93273  0  0  0.292349  0.38448  0  0.96119  0
H  H10  1  0.80296280  0.87187302  0.48530979  1  0  0.429654  0  0.874085  0  0  0.392842  0  0.949065  0  0  0.404093  0  0.932734  0  0  0.292347  0.384479  0  0.961193  0
H  H11  1  0.35792656  0.28280783  0.51920180  1  0  0.431885  0  0.869287  0  0  0.397672  0  0.938645  0  0  0.408734  0  0.92253  0  0  0.293886  0.389481  0  0.95052  0
H  H12  1  0.64207225  0.71719107  0.48079719  1  0  0.431894  0  0.869272  0  0  0.397678  0  0.938635  0  0  0.408738  0  0.922523  0  0  0.293889  0.389487  0  0.950512  0
H  H13  1  0.86356118  0.61599510  0.05330970  1  0  0.0915  0  0.93314  0  0  0.103075  0  0.994358  0  0  0.105161  0  0.991657  0  0  0.133777  0.101543  0  0.99627  0
H  H14  1  0.13644230  0.38400609  0.94668971  1  0  0.091522  0  0.933145  0  0  0.103075  0  0.994389  0  0  0.10516  0  0.991689  0  0  0.133774  0.101542  0  0.9963  0
H  H15  1  0.96219566  0.83190148  0.37642870  1  0  0.098107  0  0.959936  0  0  0.107809  0  1.024055  0  0  0.10985  0  1.021651  0  0  0.135161  0.10619  0  1.02607  0
H  H16  1  0.03780257  0.16809627  0.62357164  1  0  0.09808  0  0.959961  0  0  0.107783  0  1.024069  0  0  0.109816  0  1.021689  0  0  0.13516  0.106164  0  1.026085  0
H  H17  1  0.43957725  0.22390349  0.05717963  1  0  0.088993  0  0.946905  0  0  0.09821  0  1.013765  0  0  0.100037  0  1.011305  0  0  0.133193  0.097066  0  1.015075  0
H  H18  1  0.56042275  0.77609773  0.94282053  1  0  0.089009  0  0.94687  0  0  0.098205  0  1.013757  0  0  0.100029  0  1.0113  0  0  0.133196  0.097065  0  1.015056  0
H  H19  1  0.51271281  0.39947849  0.38393079  1  0  0.101532  0  0.964281  0  0  0.106119  0  1.034977  0  0  0.109398  0  1.030869  0  0  0.131974  0.103588  0  1.038216  0
H  H20  1  0.48728601  0.60052041  0.61606897  1  0  0.10154  0  0.964289  0  0  0.106134  0  1.034969  0  0  0.109413  0  1.03086  0  0  0.131969  0.103603  0  1.038207  0
H  H21  1  0.58562643  0.03999637  0.90109931  1  0  0.09865  0  0.936069  0  0  0.11441  0  0.995085  0  0  0.116388  0  0.994765  0  0  0.096276  0.112934  0  0.995444  0
H  H22  1  0.41437533  0.96000601  0.09890207  1  0  0.098678  0  0.936098  0  0  0.114423  0  0.995124  0  0  0.11641  0  0.9948  0  0  0.096301  0.112945  0  0.995483  0
H  H23  1  0.76033488  0.17231233  0.87629779  1  0  0.090873  0  0.959595  0  0  0.104167  0  1.025734  0  0  0.105921  0  1.025931  0  0  0.093234  0.103067  0  1.025198  0
H  H24  1  0.23966511  0.82768889  0.12370159  1  0  0.09093  0  0.959677  0  0  0.104225  0  1.025793  0  0  0.105981  0  1.02599  0  0  0.09327  0.103124  0  1.025255  0
H  H25  1  0.43742620  0.19491092  0.87965066  1  0  0.064572  0  0.931119  0  0  0.083818  0  0.987976  0  0  0.084521  0  0.988995  0  0  0.086476  0.083344  0  0.986795  0
H  H26  1  0.56257319  0.80508913  0.12034853  1  0  0.064575  0  0.931125  0  0  0.083823  0  0.987979  0  0  0.084527  0  0.988996  0  0  0.086475  0.08335  0  0.986796  0
H  H27  1  0.63312388  0.36754547  0.94184537  1  0  0.062793  0  0.955713  0  0  0.078542  0  1.019971  0  0  0.080342  0  1.018844  0  0  0.084964  0.077182  0  1.020571  0
H  H28  1  0.36687553  0.63245459  0.05815459  1  0  0.062782  0  0.95573  0  0  0.078538  0  1.019981  0  0  0.080339  0  1.018854  0  0  0.084962  0.077178  0  1.020581  0
H  H29  1  0.48675592  0.17862168  0.70148129  1  0  0.061384  0  0.973723  0  0  0.082729  0  1.032669  0  0  0.082756  0  1.034251  0  0  0.087624  0.082448  0  1.031914  0
H  H30  1  0.51324465  0.82137838  0.29851893  1  0  0.061366  0  0.97373  0  0  0.082715  0  1.032685  0  0  0.082741  0  1.034267  0  0  0.08762  0.082434  0  1.031931  0
H  H31  1  0.46601575  0.34476633  0.74134415  1  0  0.066185  0  0.93801  0  0  0.083206  0  1.002112  0  0  0.08413  0  1.002609  0  0  0.087079  0.082965  0  1.0006  0
H  H32  1  0.53398541  0.65523488  0.25865627  1  0  0.066187  0  0.937989  0  0  0.083214  0  1.00209  0  0  0.084138  0  1.002588  0  0  0.087084  0.082974  0  1.000578  0
H  H33  1  0.81559294  0.33414052  0.77875693  1  0  0.093313  0  0.964316  0  0  0.109021  0  1.026012  0  0  0.110507  0  1.026516  0  0  0.0954  0.108167  0  1.025049  0
H  H34  1  0.18440705  0.66586069  0.22124246  1  0  0.093305  0  0.964351  0  0  0.109014  0  1.02604  0  0  0.1105  0  1.026548  0  0  0.095401  0.10816  0  1.025077  0
H  H35  1  0.79849283  0.49912639  0.82410024  1  0  0.103631  0  0.925158  0  0  0.119464  0  0.984044  0  0  0.121529  0  0.983741  0  0  0.098781  0.117913  0  0.984465  0
H  H36  1  0.20150832  0.50087482  0.17589941  1  0  0.10364  0  0.925138  0  0  0.119473  0  0.984018  0  0  0.121542  0  0.983711  0  0  0.098772  0.11792  0  0.984442  0
H  H37  1  0.51823650  0.07694684  0.33746676  1  0  0.10586  0  0.921147  0  0  0.12336  0  0.976317  0  0  0.125212  0  0.976492  0  0  0.101494  0.122051  0  0.97625  0
H  H38  1  0.48176349  0.92305437  0.66253262  1  0  0.10584  0  0.921154  0  0  0.123329  0  0.976334  0  0  0.125181  0  0.97651  0  0  0.101486  0.122022  0  0.976266  0
H  H39  1  0.66729987  0.23272964  0.45181781  1  0  0.111492  0  0.941579  0  0  0.125887  0  1.003046  0  0  0.127892  0  1.002676  0  0  0.101964  0.124533  0  1.003337  0
H  H40  1  0.33269895  0.76726926  0.54818196  1  0  0.111496  0  0.941632  0  0  0.125899  0  1.003082  0  0  0.127904  0  1.002711  0  0  0.101978  0.124545  0  1.003372  0
H  H41  1  0.57117947  0.89465873  0.46544389  1  0  0.053055  0  1.005785  0  0  0.071119  0  1.07039  0  0  0.071966  0  1.07083  0  0  0.087906  0.070217  0  1.070448  0
H  H42  1  0.42881816  0.10534016  0.53455407  1  0  0.053049  0  1.005714  0  0  0.071109  0  1.070325  0  0  0.071955  0  1.070767  0  0  0.08789  0.07021  0  1.070376  0
H  H43  1  0.69229914  0.05729008  0.57866811  1  0  0.060222  0  0.933574  0  0  0.080903  0  0.991662  0  0  0.081186  0  0.992939  0  0  0.085572  0.08052  0  0.990915  0
H  H44  1  0.30770026  0.94270767  0.42133250  1  0  0.060198  0  0.933607  0  0  0.080895  0  0.991667  0  0  0.081183  0  0.992938  0  0  0.08557  0.080512  0  0.990921  0
C  C45  1  0.89729585  0.70208267  0.12602450  1  0  0.196833  0  3.748956  0  0  0.140372  0  4.025613  0  0  0.153366  0  4.039775  0  0  0.134076  0.132285  0  4.013456  0
C  C46  1  0.10270588  0.29791738  0.87397522  1  0  0.196814  0  3.748981  0  0  0.14037  0  4.025628  0  0  0.153362  0  4.039792  0  0  0.134086  0.132283  0  4.013468  0
C  C47  1  0.94577446  0.80975067  0.28973786  1  0  0.213775  0  3.72201  0  0  0.158409  0  3.99325  0  0  0.171952  0  4.007545  0  0  0.137668  0.149659  0  3.982257  0
C  C48  1  0.05422845  0.19024938  0.71026289  1  0  0.213866  0  3.722038  0  0  0.158497  0  3.993285  0  0  0.172037  0  4.007578  0  0  0.137702  0.149745  0  3.982295  0
C  C49  1  0.41537713  0.24937284  0.13077584  1  0  0.202176  0  3.750096  0  0  0.146  0  4.023727  0  0  0.159572  0  4.03802  0  0  0.135489  0.137286  0  4.012611  0
C  C50  1  0.58462227  0.75062722  0.86922412  1  0  0.202165  0  3.750064  0  0  0.145999  0  4.023698  0  0  0.159573  0  4.03799  0  0  0.135483  0.137286  0  4.012583  0
C  C51  1  0.45297615  0.34014264  0.29615656  1  0  0.212587  0  3.713018  0  0  0.156705  0  3.987762  0  0  0.170131  0  4.002168  0  0  0.139363  0.147895  0  3.977624  0
C  C52  1  0.54702267  0.65985627  0.70384321  1  0  0.212505  0  3.71311  0  0  0.156624  0  3.98786  0  0  0.17005  0  4.002265  0  0  0.139313  0.147814  0  3.977722  0
C  C53  1  0.78901297  0.21499002  0.04554106  1  0  0.719537  0  3.83045  0  0  0.672983  0  4.125311  0  0  0.707448  0  4.117981  0  0  0.210023  0.649952  0  4.129949  0
C  C54  1  0.21098471  0.78501122  0.95446088  1  0  0.719504  0  3.830582  0  0  0.672898  0  4.125552  0  0  0.707363  0  4.11822  0  0  0.209912  0.649864  0  4.13019  0
C  C55  1  0.67336296  0.16449960  0.92041293  1  0  -0.26851  0  3.653343  0  0  -0.302122  0  3.89964  0  0  -0.308629  0  3.90892  0  0  -0.170639  -0.298782  0  3.894182  0
C  C56  1  0.32663821  0.83550162  0.07958825  1  0  -0.268569  0  3.653536  0  0  -0.302139  0  3.899825  0  0  -0.30866  0  3.909113  0  0  -0.17066  -0.298791  0  3.894358  0
C  C57  1  0.56952523  0.25658787  0.88020039  1  0  -0.079714  0  3.663581  0  0  -0.117088  0  3.920774  0  0  -0.117521  0  3.933912  0  0  -0.16997  -0.116665  0  3.911745  0
C  C58  1  0.43047417  0.74341219  0.11979957  1  0  -0.079735  0  3.663624  0  0  -0.117102  0  3.920809  0  0  -0.117534  0  3.933951  0  0  -0.169978  -0.116681  0  3.911779  0
C  C59  1  0.55227658  0.28813441  0.76449669  1  0  -0.082084  0  3.689603  0  0  -0.12463  0  3.948702  0  0  -0.124597  0  3.962705  0  0  -0.172503  -0.124769  0  3.939054  0
C  C60  1  0.44772283  0.71186565  0.23550404  1  0  -0.082026  0  3.689534  0  0  -0.124596  0  3.948663  0  0  -0.124562  0  3.962671  0  0  -0.172494  -0.124734  0  3.939016  0
C  C61  1  0.72758617  0.38955293  0.75969545  1  0  -0.277779  0  3.700609  0  0  -0.314397  0  3.954762  0  0  -0.320807  0  3.964841  0  0  -0.172787  -0.310167  0  3.947983  0
C  C62  1  0.27241382  0.61044828  0.24030471  1  0  -0.277807  0  3.700637  0  0  -0.314409  0  3.954807  0  0  -0.320826  0  3.964895  0  0  -0.172771  -0.310177  0  3.948029  0
C  C63  1  0.72021578  0.43211616  0.64903417  1  0  0.721682  0  3.806323  0  0  0.665527  0  4.116712  0  0  0.698474  0  4.110107  0  0  0.21618  0.642772  0  4.120423  0
C  C64  1  0.27978421  0.56788506  0.35096598  1  0  0.721733  0  3.806305  0  0  0.665533  0  4.116759  0  0  0.698481  0  4.110153  0  0  0.216186  0.642778  0  4.120469  0
C  C65  1  0.77977514  0.10999803  0.38722123  1  0  0.714896  0  3.813763  0  0  0.66129  0  4.115116  0  0  0.695497  0  4.108234  0  0  0.211646  0.637748  0  4.118791  0
C  C66  1  0.22022426  0.89000203  0.61277873  1  0  0.714868  0  3.813654  0  0  0.661273  0  4.115008  0  0  0.695477  0  4.108119  0  0  0.211609  0.637729  0  4.118684  0
C  C67  1  0.63229069  0.11193352  0.41675438  1  0  -0.274567  0  3.685748  0  0  -0.310403  0  3.939064  0  0  -0.31685  0  3.948016  0  0  -0.168603  -0.30618  0  3.932858  0
C  C68  1  0.36770812  0.88806539  0.58324539  1  0  -0.274554  0  3.685747  0  0  -0.310388  0  3.939064  0  0  -0.31683  0  3.948009  0  0  -0.168597  -0.306164  0  3.932857  0
C  C69  1  0.58485057  0.00940988  0.49524325  1  0  -0.086601  0  3.706187  0  0  -0.128286  0  3.962653  0  0  -0.128784  0  3.976982  0  0  -0.175864  -0.127854  0  3.952845  0
C  C70  1  0.41514941  0.99058902  0.50475602  1  0  -0.086567  0  3.706124  0  0  -0.128229  0  3.962562  0  0  -0.128726  0  3.976889  0  0  -0.175852  -0.127798  0  3.952745  0
N  N71  1  0.97504103  0.92075457  0.23389473  1  0  -0.307254  0  3.198656  0  0  -0.241895  0  3.486631  0  0  -0.25989  0  3.50457  0  0  -0.264007  -0.229356  0  3.473355  0
N  N72  1  0.02495954  0.07924548  0.76610549  1  0  -0.30729  0  3.198657  0  0  -0.24193  0  3.486632  0  0  -0.259923  0  3.504567  0  0  -0.264023  -0.229391  0  3.473357  0
N  N73  1  0.94462610  0.85188033  0.12846267  1  0  -0.294639  0  3.198006  0  0  -0.229855  0  3.48282  0  0  -0.246529  0  3.502322  0  0  -0.259718  -0.217333  0  3.46722  0
N  N74  1  0.05537446  0.14811972  0.87153679  1  0  -0.294651  0  3.198069  0  0  -0.229865  0  3.48288  0  0  -0.246539  0  3.502379  0  0  -0.259723  -0.217343  0  3.467279  0
N  N75  1  0.89690521  0.67043806  0.22549928  1  0  -0.45132  0  3.20258  0  0  -0.37285  0  3.490356  0  0  -0.396446  0  3.504222  0  0  -0.3628  -0.355251  0  3.477473  0
N  N76  1  0.10309535  0.32956199  0.77450017  1  0  -0.451348  0  3.202615  0  0  -0.372875  0  3.49038  0  0  -0.396468  0  3.504244  0  0  -0.362831  -0.355274  0  3.477497  0
N  N77  1  0.28130580  0.25200054  0.24053477  1  0  -0.309147  0  3.195459  0  0  -0.237029  0  3.476746  0  0  -0.256934  0  3.497426  0  0  -0.263557  -0.223024  0  3.461579  0
N  N78  1  0.71869361  0.74799952  0.75946519  1  0  -0.309117  0  3.195504  0  0  -0.237006  0  3.476796  0  0  -0.25691  0  3.497475  0  0  -0.263557  -0.223  0  3.461629  0
N  N79  1  0.25709590  0.19310380  0.13393190  1  0  -0.297358  0  3.204609  0  0  -0.232379  0  3.487833  0  0  -0.249571  0  3.508125  0  0  -0.265887  -0.220319  0  3.473039  0
N  N80  1  0.74290233  0.80689625  0.86606703  1  0  -0.29734  0  3.204591  0  0  -0.232355  0  3.487815  0  0  -0.249546  0  3.508105  0  0  -0.265874  -0.220297  0  3.473021  0
N  N81  1  0.54171341  0.34166092  0.23020367  1  0  -0.452388  0  3.226112  0  0  -0.374093  0  3.515494  0  0  -0.397927  0  3.529307  0  0  -0.364697  -0.356876  0  3.50439  0
N  N82  1  0.45828600  0.65833914  0.76979706  1  0  -0.452345  0  3.22617  0  0  -0.374048  0  3.515533  0  0  -0.397882  0  3.529344  0  0  -0.364651  -0.356831  0  3.504428  0
O  O83  1  0.87654144  0.14037165  0.08450254  1  0  -0.689432  0  2.026279  0  0  -0.616932  0  2.299714  0  0  -0.646834  0  2.285546  0  0  -0.341173  -0.59696  0  2.309009  0
O  O84  1  0.12345391  0.85962730  0.91550105  1  0  -0.689454  0  2.026387  0  0  -0.616918  0  2.299835  0  0  -0.646819  0  2.285666  0  0  -0.341091  -0.596945  0  2.309131  0
O  O85  1  0.79270001  0.32806852  0.10297636  1  0  -0.660338  0  2.037227  0  0  -0.594158  0  2.297564  0  0  -0.622259  0  2.285102  0  0  -0.332338  -0.575945  0  2.306125  0
O  O86  1  0.20729940  0.67193617  0.89702308  1  0  -0.660291  0  2.037167  0  0  -0.594156  0  2.297605  0  0  -0.622257  0  2.285141  0  0  -0.332362  -0.575949  0  2.306182  0
O  O87  1  0.86927588  0.52361373  0.64605597  1  0  -0.738009  0  2.091499  0  0  -0.65209  0  2.3575  0  0  -0.682682  0  2.342885  0  0  -0.344656  -0.62979  0  2.366378  0
O  O88  1  0.13072292  0.47638516  0.35394225  1  0  -0.737998  0  2.091447  0  0  -0.652072  0  2.357489  0  0  -0.682662  0  2.34287  0  0  -0.344658  -0.629773  0  2.366368  0
O  O89  1  0.57904136  0.38361970  0.56529079  1  0  -0.615598  0  1.977842  0  0  -0.552389  0  2.201888  0  0  -0.576945  0  2.193158  0  0  -0.302887  -0.53494  0  2.207667  0
O  O90  1  0.42095863  0.61637920  0.43470925  1  0  -0.615651  0  1.977853  0  0  -0.552405  0  2.201898  0  0  -0.576964  0  2.193173  0  0  -0.3029  -0.534957  0  2.207678  0
O  O91  1  0.82506682  0.19638675  0.32060444  1  0  -0.700392  0  2.098412  0  0  -0.609982  0  2.373247  0  0  -0.644297  0  2.360197  0  0  -0.343442  -0.584381  0  2.379908  0
O  O92  1  0.17493376  0.80361331  0.67939655  1  0  -0.700399  0  2.09837  0  0  -0.60998  0  2.373187  0  0  -0.6443  0  2.36015  0  0  -0.343439  -0.584382  0  2.379859  0
O  O93  1  0.85292435  0.02708199  0.42341640  1  0  -0.625372  0  1.987211  0  0  -0.559822  0  2.216366  0  0  -0.585919  0  2.208504  0  0  -0.305222  -0.54143  0  2.221346  0
O  O94  1  0.14707504  0.97291806  0.57658202  1  0  -0.62531  0  1.987133  0  0  -0.559803  0  2.216294  0  0  -0.585925  0  2.208481  0  0  -0.305196  -0.541411  0  2.221274  0
O  O95  1  0.88223739  0.57227430  0.45020111  1  0  -0.852979  0  1.887821  0  0  -0.78822  0  2.093483  0  0  -0.810416  0  2.058874  0  0  -0.604513  -0.772783  0  2.118538  0
O  O96  1  0.11776611  0.42772691  0.54980060  1  0  -0.852933  0  1.887875  0  0  -0.788173  0  2.093518  0  0  -0.810369  0  2.058914  0  0  -0.604474  -0.772736  0  2.118572  0
O  O97  1  0.22721124  0.22661457  0.48863286  1  0  -0.849129  0  1.907131  0  0  -0.783105  0  2.109783  0  0  -0.805891  0  2.074648  0  0  -0.572002  -0.766345  0  2.135096  0
O  O98  1  0.77278933  0.77338549  0.51136737  1  0  -0.849139  0  1.907102  0  0  -0.783118  0  2.109773  0  0  -0.805904  0  2.07464  0  0  -0.572007  -0.766358  0  2.135089  0
