# generated using pymatgen
data_CdH18C26N4O5
_symmetry_space_group_name_H-M   'P 1'
_cell_length_a   13.01118601
_cell_length_b   14.44638755
_cell_length_c   16.87559984
_cell_angle_alpha   107.72848085
_cell_angle_beta   90.00003900
_cell_angle_gamma   90.00023344
_symmetry_Int_Tables_number   1
_chemical_formula_structural   CdH18C26N4O5
_chemical_formula_sum   'Cd4 H72 C104 N16 O20'
_cell_volume   3021.37767532
_cell_formula_units_Z   4
loop_
 _symmetry_equiv_pos_site_id
 _symmetry_equiv_pos_as_xyz
  1  'x, y, z'
loop_
 _atom_site_type_symbol
 _atom_site_label
 _atom_site_symmetry_multiplicity
 _atom_site_fract_x
 _atom_site_fract_y
 _atom_site_fract_z
 _atom_site_occupancy
 _atom_site_pbe_bader_charge
 _atom_site_pbe_bader_spin_density
 _atom_site_pbe_cm5_charge
 _atom_site_pbe_ddec_charge
 _atom_site_pbe_ddec_spin_density
 _atom_site_pbe_ddec_sum_bond_order
 _atom_site_pbe_magmom
Cd  Cd0  1  0.97610149  0.59443327  0.10984892  1  1.282145  0  0.774792  0.880419  0  2.209395  0
Cd  Cd1  1  0.47610296  0.40556983  0.39015078  1  1.282165  0  0.774782  0.880384  0  2.209408  0
Cd  Cd2  1  0.02389844  0.40556690  0.89015048  1  1.282147  0  0.774779  0.880413  0  2.209392  0
Cd  Cd3  1  0.52389774  0.59443034  0.60985039  1  1.282215  0  0.774762  0.880326  0  2.209458  0
H  H4  1  0.93344846  0.26921876  0.62841641  1  0.100802  0  0.103055  0.12386  0  1.018279  0
H  H5  1  0.43344907  0.73078169  0.87158314  1  0.10078  0  0.103066  0.123882  0  1.018278  0
H  H6  1  0.06655147  0.73078069  0.37158339  1  0.100788  0  0.103052  0.123875  0  1.018314  0
H  H7  1  0.56655163  0.26921848  0.12841804  1  0.100772  0  0.103048  0.123863  0  1.018226  0
H  H8  1  0.46128650  0.46369030  0.15290872  1  0.09433  0  0.118426  0.084841  0  0.984772  0
H  H9  1  0.96128883  0.53631056  0.34709039  1  0.094267  0  0.118423  0.084868  0  0.98472  0
H  H10  1  0.53871266  0.53630842  0.84709089  1  0.094338  0  0.11841  0.084816  0  0.984759  0
H  H11  1  0.03871264  0.46368889  0.65290823  1  0.094355  0  0.118441  0.084876  0  0.984719  0
H  H12  1  0.79471813  0.39576194  0.66260842  1  0.074251  0  0.099697  0.102736  0  1.028497  0
H  H13  1  0.29471968  0.60423793  0.83739031  1  0.074174  0  0.099705  0.102773  0  1.028435  0
H  H14  1  0.20528334  0.60423751  0.33739138  1  0.074238  0  0.099714  0.102746  0  1.028448  0
H  H15  1  0.70528102  0.39576225  0.16261027  1  0.074162  0  0.099702  0.102737  0  1.02844  0
H  H16  1  0.78716033  0.81750300  0.95214359  1  0.065385  0  0.112122  0.116937  0  0.988568  0
H  H17  1  0.28716049  0.18249974  0.54785766  1  0.065417  0  0.112099  0.116969  0  0.988483  0
H  H18  1  0.21283806  0.18249790  0.04785718  1  0.065365  0  0.112124  0.116955  0  0.988541  0
H  H19  1  0.71283868  0.81750043  0.45214470  1  0.065436  0  0.11213  0.11699  0  0.988503  0
H  H20  1  0.22483639  0.59727796  0.10768395  1  0.142441  0  0.1192  0.090963  0  1.021223  0
H  H21  1  0.72483662  0.40272480  0.39231435  1  0.142522  0  0.119208  0.090963  0  1.021267  0
H  H22  1  0.77516354  0.40272149  0.89231525  1  0.142566  0  0.119243  0.091006  0  1.021252  0
H  H23  1  0.27516331  0.59727465  0.60768427  1  0.142473  0  0.119227  0.09099  0  1.02117  0
H  H24  1  0.72919775  0.57816000  0.10170044  1  0.161875  0  0.121556  0.098187  0  1.023332  0
H  H25  1  0.22920006  0.42183841  0.39829614  1  0.162045  0  0.121549  0.098215  0  1.023284  0
H  H26  1  0.27080218  0.42184090  0.89829974  1  0.161863  0  0.121535  0.098145  0  1.023352  0
H  H27  1  0.77080063  0.57816103  0.60170425  1  0.162039  0  0.12156  0.098217  0  1.023342  0
H  H28  1  0.93152824  0.73166180  0.99996701  1  0.13296  0  0.123495  0.100412  0  0.979541  0
H  H29  1  0.43152874  0.26834010  0.50003291  1  0.13248  0  0.12349  0.100395  0  0.979573  0
H  H30  1  0.06847092  0.26833765  0.00003160  1  0.132475  0  0.123503  0.100449  0  0.979444  0
H  H31  1  0.56847119  0.73165862  0.49996788  1  0.132938  0  0.123488  0.100421  0  0.979536  0
H  H32  1  0.81560832  0.98539810  0.46515798  1  0.094797  0  0.107344  0.120011  0  0.992307  0
H  H33  1  0.31560694  0.01460214  0.03483853  1  0.094745  0  0.107352  0.120011  0  0.992257  0
H  H34  1  0.18439161  0.01460208  0.53484201  1  0.094788  0  0.10735  0.120029  0  0.9923  0
H  H35  1  0.68439299  0.98539876  0.96516047  1  0.094758  0  0.107326  0.119986  0  0.992313  0
H  H36  1  0.60528983  0.77977453  0.98241706  1  0.113517  0  0.110473  0.110774  0  1.033723  0
H  H37  1  0.10529090  0.22022670  0.51758252  1  0.113565  0  0.110449  0.110754  0  1.033747  0
H  H38  1  0.39470857  0.22022637  0.01758371  1  0.113546  0  0.110493  0.110801  0  1.033705  0
H  H39  1  0.89470903  0.77977419  0.48241884  1  0.113563  0  0.110423  0.110713  0  1.033767  0
H  H40  1  0.48420647  0.68861023  0.03994416  1  0.134382  0  0.113314  0.078913  0  1.026995  0
H  H41  1  0.98420788  0.31139073  0.46005499  1  0.134397  0  0.113346  0.078926  0  1.026973  0
H  H42  1  0.51579346  0.31138994  0.96005701  1  0.134389  0  0.113335  0.078914  0  1.02698  0
H  H43  1  0.01579282  0.68860945  0.53994500  1  0.134411  0  0.11334  0.078938  0  1.026973  0
H  H44  1  0.83210987  0.82754522  0.34936741  1  0.100727  0  0.10011  0.098441  0  1.023463  0
H  H45  1  0.33210777  0.17245655  0.15062891  1  0.100488  0  0.100121  0.098464  0  1.023479  0
H  H46  1  0.16788929  0.17245496  0.65063258  1  0.100728  0  0.100129  0.098437  0  1.023488  0
H  H47  1  0.66789370  0.82754363  0.84937049  1  0.100499  0  0.100093  0.098422  0  1.023476  0
H  H48  1  0.15259959  0.34895173  0.24549336  1  0.078691  0  0.109684  0.114694  0  0.996582  0
H  H49  1  0.65260312  0.65105072  0.25450423  1  0.078614  0  0.109684  0.114721  0  0.996584  0
H  H50  1  0.84739957  0.65104844  0.75450663  1  0.078695  0  0.109664  0.114683  0  0.996589  0
H  H51  1  0.34739681  0.34895018  0.74549536  1  0.078648  0  0.109615  0.114596  0  0.996661  0
H  H52  1  0.09982325  0.93461182  0.25829850  1  0.09878  0  0.107536  0.112706  0  0.988438  0
H  H53  1  0.59982105  0.06539623  0.24169757  1  0.098858  0  0.107568  0.112791  0  0.988427  0
H  H54  1  0.90017668  0.06538762  0.74170129  1  0.098785  0  0.107541  0.112725  0  0.988426  0
H  H55  1  0.40017888  0.93460467  0.75830261  1  0.098854  0  0.107545  0.112768  0  0.988494  0
H  H56  1  0.78565521  0.13043107  0.39319177  1  0.081218  0  0.104294  0.121677  0  1.007846  0
H  H57  1  0.28565621  0.86956904  0.10680646  1  0.081263  0  0.104303  0.121678  0  1.007851  0
H  H58  1  0.21434472  0.86957056  0.60680801  1  0.081244  0  0.104297  0.121674  0  1.007824  0
H  H59  1  0.71434525  0.13043113  0.89319412  1  0.081286  0  0.104312  0.121704  0  1.00782  0
H  H60  1  0.33577587  0.37789360  0.21282749  1  0.177813  0  0.111336  0.131205  0  1.045525  0
H  H61  1  0.83577930  0.62210890  0.28717080  1  0.177674  0  0.11129  0.131141  0  1.045615  0
H  H62  1  0.66422329  0.62210657  0.78717249  1  0.17781  0  0.111329  0.131219  0  1.045484  0
H  H63  1  0.16422063  0.37789127  0.71282742  1  0.177697  0  0.1113  0.131147  0  1.045603  0
H  H64  1  0.01339111  0.44399755  0.20231597  1  0.137192  0  0.116683  0.090499  0  1.015467  0
H  H65  1  0.51339348  0.55600576  0.29768236  1  0.137233  0  0.1167  0.0905  0  1.015507  0
H  H66  1  0.98660805  0.55600262  0.79768401  1  0.137209  0  0.116691  0.090525  0  1.015462  0
H  H67  1  0.48660568  0.44399442  0.70231703  1  0.137238  0  0.116694  0.090513  0  1.015542  0
H  H68  1  0.64762966  0.25425029  0.42838917  1  0.157098  0  0.102429  0.120573  0  1.04991  0
H  H69  1  0.14763084  0.74574923  0.07160943  1  0.157136  0  0.102434  0.12057  0  1.049896  0
H  H70  1  0.35237027  0.74575133  0.57161120  1  0.157099  0  0.102443  0.120612  0  1.049924  0
H  H71  1  0.85236986  0.25425167  0.92839075  1  0.157126  0  0.102431  0.120579  0  1.049896  0
H  H72  1  0.08625769  0.09164077  0.37499308  1  0.078071  0  0.103027  0.11644  0  1.011105  0
H  H73  1  0.58625842  0.90836649  0.12500633  1  0.078184  0  0.103006  0.1164  0  1.011121  0
H  H74  1  0.91374301  0.90835941  0.62500631  1  0.078074  0  0.103024  0.116448  0  1.011122  0
H  H75  1  0.41374074  0.09163441  0.87499445  1  0.078161  0  0.103024  0.116455  0  1.011148  0
C  C76  1  0.96668953  0.87200493  0.29734595  1  0.002243  0  -0.023685  -0.04135  0  3.984956  0
C  C77  1  0.46668727  0.12800177  0.20264996  1  0.002242  0  -0.023686  -0.041292  0  3.984546  0
C  C78  1  0.03330963  0.12799524  0.70265345  1  0.002215  0  -0.02371  -0.041417  0  3.985026  0
C  C79  1  0.53331266  0.87199913  0.79734963  1  0.002205  0  -0.02366  -0.041203  0  3.984518  0
C  C80  1  0.87010755  0.26689456  0.58549200  1  -0.016298  0  -0.10818  -0.212778  0  3.994008  0
C  C81  1  0.37010898  0.73310562  0.91450803  1  -0.016295  0  -0.10817  -0.212761  0  3.994065  0
C  C82  1  0.12989161  0.73310416  0.41450701  1  -0.016283  0  -0.108158  -0.212787  0  3.994051  0
C  C83  1  0.62989249  0.26689309  0.08549335  1  -0.016262  0  -0.108171  -0.212807  0  3.994015  0
C  C84  1  0.40076637  0.51172834  0.14208390  1  0.629314  0  0.078651  0.060549  0  3.933424  0
C  C85  1  0.90076849  0.48827298  0.35791589  1  0.629305  0  0.078613  0.060536  0  3.933403  0
C  C86  1  0.59923356  0.48827038  0.85791570  1  0.629336  0  0.078667  0.060578  0  3.933358  0
C  C87  1  0.09923221  0.51172574  0.64208253  1  0.62921  0  0.078625  0.060538  0  3.933376  0
C  C88  1  0.79304864  0.33674762  0.60421416  1  -0.001849  0  -0.083641  -0.061904  0  3.981791  0
C  C89  1  0.29304820  0.66325296  0.89578476  1  -0.001781  0  -0.083705  -0.062065  0  3.981816  0
C  C90  1  0.20695283  0.66325183  0.39578505  1  -0.001826  0  -0.083688  -0.061986  0  3.981701  0
C  C91  1  0.70695173  0.33674721  0.10421583  1  -0.001819  0  -0.083683  -0.061949  0  3.981699  0
C  C92  1  0.29479367  0.49116031  0.15868247  1  -0.02293  0  -0.004552  0.020228  0  4.010914  0
C  C93  1  0.79479433  0.50883984  0.34131636  1  -0.022175  0  -0.00452  0.020169  0  4.011092  0
C  C94  1  0.70520626  0.50883914  0.84131732  1  -0.022213  0  -0.004582  0.020157  0  4.010925  0
C  C95  1  0.20520560  0.49115961  0.65868166  1  -0.022188  0  -0.004561  0.020137  0  4.010953  0
C  C96  1  0.71246487  0.33348643  0.54793199  1  -0.031026  0  -0.034851  -0.073072  0  4.00777  0
C  C97  1  0.21246449  0.66651381  0.95206620  1  -0.031033  0  -0.034857  -0.073028  0  4.007722  0
C  C98  1  0.28753583  0.66651447  0.45206996  1  -0.031046  0  -0.034803  -0.072918  0  4.007616  0
C  C99  1  0.78753621  0.33348709  0.04793398  1  -0.031031  0  -0.034851  -0.073046  0  4.007723  0
C  C100  1  0.95019807  0.04665085  0.42564133  1  0.364525  0  0.084237  0.259718  0  4.042688  0
C  C101  1  0.45019865  0.95335214  0.07435656  1  0.364357  0  0.084269  0.259803  0  4.042551  0
C  C102  1  0.04980186  0.95334932  0.57435866  1  0.364523  0  0.084242  0.259733  0  4.04269  0
C  C103  1  0.54980205  0.04664803  0.92564284  1  0.364339  0  0.08428  0.259789  0  4.042616  0
C  C104  1  0.97697275  0.77658316  0.23049940  1  1.555345  0  0.185399  0.553377  0  4.259432  0
C  C105  1  0.47697405  0.22342285  0.26949810  1  1.555428  0  0.185365  0.553147  0  4.259585  0
C  C106  1  0.02302642  0.22341701  0.76950058  1  1.555351  0  0.185413  0.553422  0  4.259448  0
C  C107  1  0.52302665  0.77657805  0.73050148  1  1.555451  0  0.185386  0.553201  0  4.259534  0
C  C108  1  0.65235330  0.67632051  0.04512286  1  -0.031181  0  -0.00651  0.018666  0  4.020699  0
C  C109  1  0.15235522  0.32367976  0.45487475  1  -0.031877  0  -0.006501  0.018657  0  4.020619  0
C  C110  1  0.34764586  0.32368038  0.95487850  1  -0.031549  0  -0.006607  0.0185  0  4.02068  0
C  C111  1  0.84764548  0.67631969  0.54512505  1  -0.031175  0  -0.006509  0.018689  0  4.020645  0
C  C112  1  0.86701002  0.19289013  0.50913410  1  0.326757  0  0.084975  0.261731  0  4.056011  0
C  C113  1  0.36701108  0.80711004  0.99086593  1  0.326172  0  0.08499  0.261795  0  4.056094  0
C  C114  1  0.13299068  0.80711005  0.49086529  1  0.326741  0  0.085011  0.261784  0  4.056088  0
C  C115  1  0.63298962  0.19289013  0.00913525  1  0.326149  0  0.085028  0.261862  0  4.056032  0
C  C116  1  0.77071745  0.76541693  0.98553550  1  -0.031797  0  -0.081262  -0.126539  0  3.997675  0
C  C117  1  0.27071858  0.23458428  0.51446416  1  -0.032016  0  -0.08121  -0.12656  0  3.997563  0
C  C118  1  0.22928171  0.23458324  0.01446449  1  -0.031779  0  -0.081253  -0.126577  0  3.99771  0
C  C119  1  0.72928058  0.76541516  0.48553741  1  -0.031956  0  -0.08121  -0.126531  0  3.997672  0
C  C120  1  0.63422853  0.41273985  0.56713183  1  1.556195  0  0.196588  0.569418  0  4.220985  0
C  C121  1  0.13422701  0.58726078  0.93287057  1  1.556159  0  0.196568  0.569424  0  4.220904  0
C  C122  1  0.36577371  0.58726250  0.43286991  1  1.556187  0  0.196546  0.569355  0  4.220723  0
C  C123  1  0.86577292  0.41273940  0.06712883  1  1.556145  0  0.196558  0.569416  0  4.220907  0
C  C124  1  0.21182133  0.54180247  0.13825814  1  0.491161  0  0.064218  0.076636  0  3.868926  0
C  C125  1  0.71182178  0.45819951  0.36173995  1  0.491247  0  0.064277  0.076737  0  3.869123  0
C  C126  1  0.78817860  0.45819625  0.86174088  1  0.49102  0  0.064182  0.076616  0  3.868913  0
C  C127  1  0.28817969  0.54179922  0.63825906  1  0.491303  0  0.064264  0.076728  0  3.869005  0
C  C128  1  0.73836074  0.63200742  0.06885254  1  0.507513  0  0.064517  0.071681  0  3.859081  0
C  C129  1  0.23836361  0.36799249  0.43114502  1  0.507111  0  0.064521  0.071666  0  3.859105  0
C  C130  1  0.26163919  0.36799348  0.93114764  1  0.507507  0  0.064542  0.071767  0  3.859059  0
C  C131  1  0.76163786  0.63200768  0.56885556  1  0.507251  0  0.064516  0.071637  0  3.859182  0
C  C132  1  0.85126991  0.71826119  0.01152948  1  0.440442  0  0.053741  0.099757  0  3.926359  0
C  C133  1  0.35127167  0.28174065  0.48847042  1  0.441141  0  0.053749  0.099744  0  3.926455  0
C  C134  1  0.14872848  0.28173898  0.98847051  1  0.440892  0  0.053746  0.099775  0  3.926279  0
C  C135  1  0.64872903  0.71825880  0.51152938  1  0.440684  0  0.053702  0.099687  0  3.926385  0
C  C136  1  0.87712304  0.97380759  0.41928925  1  -0.032622  0  -0.101338  -0.203149  0  4.013174  0
C  C137  1  0.37712175  0.02619509  0.08070792  1  -0.032239  0  -0.10141  -0.203257  0  4.01311  0
C  C138  1  0.12287766  0.02619331  0.58071034  1  -0.032616  0  -0.101365  -0.203222  0  4.013211  0
C  C139  1  0.62287818  0.97380654  0.91929245  1  -0.032259  0  -0.101399  -0.203201  0  4.0132  0
C  C140  1  0.67012122  0.74424042  0.00216464  1  -0.014953  0  -0.062701  -0.078544  0  3.926398  0
C  C141  1  0.17012288  0.25576137  0.49783457  1  -0.014568  0  -0.062736  -0.078595  0  3.926279  0
C  C142  1  0.32987717  0.25576048  0.99783554  1  -0.014595  0  -0.062656  -0.078472  0  3.926309  0
C  C143  1  0.82987706  0.74424025  0.50216699  1  -0.014964  0  -0.062701  -0.078546  0  3.92625  0
C  C144  1  0.54753883  0.65368826  0.06322291  1  0.579231  0  0.073524  0.057971  0  3.921982  0
C  C145  1  0.04754007  0.34631083  0.43677553  1  0.579607  0  0.073556  0.05811  0  3.921997  0
C  C146  1  0.45245957  0.34631191  0.93677708  1  0.579862  0  0.07353  0.058073  0  3.922083  0
C  C147  1  0.95245986  0.65368789  0.56322349  1  0.579235  0  0.073515  0.058011  0  3.922067  0
C  C148  1  0.88641482  0.88670860  0.35532847  1  -0.054115  0  -0.086565  -0.08  0  3.998635  0
C  C149  1  0.38641244  0.11329267  0.14466774  1  -0.054226  0  -0.086543  -0.079948  0  3.998512  0
C  C150  1  0.11358435  0.11329157  0.64467092  1  -0.054104  0  -0.086535  -0.079887  0  3.998652  0
C  C151  1  0.61358595  0.88670823  0.85533244  1  -0.054164  0  -0.086516  -0.079973  0  3.998598  0
C  C152  1  0.17195996  0.40237695  0.21417965  1  0.006307  0  -0.082276  -0.126164  0  3.99463  0
C  C153  1  0.67196328  0.59762631  0.28581935  1  0.006414  0  -0.082277  -0.126195  0  3.994666  0
C  C154  1  0.82803920  0.59762322  0.78582034  1  0.006318  0  -0.082219  -0.126134  0  3.994611  0
C  C155  1  0.32803512  0.40237315  0.71417808  1  0.00649  0  -0.082149  -0.125983  0  3.994666  0
C  C156  1  0.03805030  0.94646177  0.30395858  1  -0.046155  0  -0.080957  -0.067812  0  3.977736  0
C  C157  1  0.53805108  0.05354456  0.19603819  1  -0.046251  0  -0.081019  -0.067982  0  3.977478  0
C  C158  1  0.96194963  0.05353840  0.69604081  1  -0.046125  0  -0.080977  -0.067861  0  3.977731  0
C  C159  1  0.46194885  0.94645634  0.80396140  1  -0.046257  0  -0.080977  -0.067942  0  3.977533  0
C  C160  1  0.78688508  0.18759967  0.45268679  1  0.001817  0  -0.110426  -0.222661  0  4.014979  0
C  C161  1  0.28688577  0.81240044  0.04731204  1  0.001764  0  -0.110466  -0.222724  0  4.015045  0
C  C162  1  0.21311332  0.81240123  0.54731280  1  0.001789  0  -0.110441  -0.222641  0  4.01499  0
C  C163  1  0.71311339  0.18760046  0.95268874  1  0.001752  0  -0.110472  -0.222729  0  4.014989  0
C  C164  1  0.27349570  0.41935637  0.19665235  1  -0.053441  0  -0.057339  -0.055269  0  3.888742  0
C  C165  1  0.77349972  0.58064514  0.30334506  1  -0.05419  0  -0.05732  -0.055213  0  3.888863  0
C  C166  1  0.72650346  0.58064235  0.80334726  1  -0.054162  0  -0.057337  -0.055268  0  3.88876  0
C  C167  1  0.22650021  0.41935431  0.69665355  1  -0.054209  0  -0.057343  -0.055223  0  3.888805  0
C  C168  1  0.09440450  0.45555368  0.19176870  1  0.422498  0  0.045323  0.085059  0  3.943478  0
C  C169  1  0.59440836  0.54444925  0.30822780  1  0.422353  0  0.045281  0.08502  0  3.943535  0
C  C170  1  0.90559467  0.54444576  0.80823110  1  0.422516  0  0.045311  0.085037  0  3.9435  0
C  C171  1  0.40559234  0.45554947  0.69177121  1  0.422268  0  0.045242  0.084929  0  3.943634  0
C  C172  1  0.70980080  0.25785839  0.47256129  1  -0.065088  0  -0.084788  -0.068604  0  3.97035  0
C  C173  1  0.20980116  0.74214140  0.02743741  1  -0.065106  0  -0.084768  -0.068543  0  3.970256  0
C  C174  1  0.29019990  0.74214251  0.52743889  1  -0.065096  0  -0.084832  -0.06876  0  3.970404  0
C  C175  1  0.79019954  0.25785878  0.97256318  1  -0.065071  0  -0.084785  -0.068613  0  3.970292  0
C  C176  1  0.03042175  0.03357224  0.36834042  1  -0.00176  0  -0.101224  -0.19811  0  3.994215  0
C  C177  1  0.53042275  0.96643333  0.13165675  1  -0.001673  0  -0.101135  -0.197964  0  3.994115  0
C  C178  1  0.96957818  0.96642721  0.63165879  1  -0.001772  0  -0.101213  -0.198105  0  3.994204  0
C  C179  1  0.46957641  0.03356757  0.86834403  1  -0.001669  0  -0.101204  -0.198093  0  3.994287  0
N  N180  1  0.11440742  0.52364665  0.15403973  1  -1.221336  0  -0.330557  -0.235355  0  3.539245  0
N  N181  1  0.61440948  0.47635636  0.34595918  1  -1.221304  0  -0.330553  -0.235339  0  3.539352  0
N  N182  1  0.88559174  0.47635279  0.84596007  1  -1.221344  0  -0.330567  -0.235358  0  3.539222  0
N  N183  1  0.38559046  0.52364455  0.65403982  1  -1.221301  0  -0.330535  -0.235311  0  3.539356  0
N  N184  1  0.83477321  0.65263495  0.05229802  1  -1.214213  0  -0.319605  -0.220719  0  3.498983  0
N  N185  1  0.33477600  0.34736537  0.44770088  1  -1.214111  0  -0.319593  -0.220661  0  3.499005  0
N  N186  1  0.16522673  0.34736523  0.94770197  1  -1.214206  0  -0.31961  -0.22077  0  3.49901  0
N  N187  1  0.66522624  0.65263335  0.55230050  1  -1.214262  0  -0.319571  -0.220656  0  3.498896  0
N  N188  1  0.42338937  0.58447253  0.11567656  1  -0.761832  0  -0.213471  -0.171618  0  3.318143  0
N  N189  1  0.92339118  0.41552889  0.38432268  1  -0.761752  0  -0.21351  -0.171645  0  3.318016  0
N  N190  1  0.57660979  0.41552692  0.88432265  1  -0.76182  0  -0.213494  -0.171604  0  3.317948  0
N  N191  1  0.07660952  0.58446983  0.61567574  1  -0.76175  0  -0.213476  -0.171608  0  3.318033  0
N  N192  1  0.52796171  0.59395346  0.10503090  1  -0.737338  0  -0.212095  -0.174742  0  3.321078  0
N  N193  1  0.02796395  0.40604627  0.39496888  1  -0.737378  0  -0.21208  -0.174825  0  3.321044  0
N  N194  1  0.47203668  0.40604453  0.89496971  1  -0.737981  0  -0.212064  -0.174781  0  3.321091  0
N  N195  1  0.97203752  0.59395318  0.60502973  1  -0.73738  0  -0.212097  -0.174809  0  3.321138  0
O  O196  1  0.56457767  0.41402307  0.51389643  1  -1.206198  0  -0.345702  -0.602413  0  2.349322  0
O  O197  1  0.06457773  0.58597871  0.98610505  1  -1.206238  0  -0.34567  -0.602357  0  2.349355  0
O  O198  1  0.43542226  0.58597928  0.48610591  1  -1.206337  0  -0.345642  -0.602315  0  2.349186  0
O  O199  1  0.93542220  0.41402146  0.01389494  1  -1.206266  0  -0.34568  -0.602358  0  2.349343  0
O  O200  1  0.64027274  0.47982436  0.63674589  1  -1.182276  0  -0.328843  -0.558608  0  2.238791  0
O  O201  1  0.14027624  0.52017338  0.86325694  1  -1.182143  0  -0.328834  -0.558667  0  2.238732  0
O  O202  1  0.35972719  0.52017508  0.36325568  1  -1.182165  0  -0.328862  -0.55864  0  2.23867  0
O  O203  1  0.85972446  0.47982680  0.13674305  1  -1.182124  0  -0.328828  -0.558658  0  2.238713  0
O  O204  1  0.03106201  0.77059147  0.16655667  1  -1.175926  0  -0.335905  -0.566357  0  2.166367  0
O  O205  1  0.53106755  0.22941702  0.33343651  1  -1.175776  0  -0.335819  -0.56616  0  2.16649  0
O  O206  1  0.96893792  0.22940870  0.83344331  1  -1.175933  0  -0.335886  -0.566339  0  2.166421  0
O  O207  1  0.46893161  0.77058388  0.66656307  1  -1.175803  0  -0.335871  -0.56625  0  2.166482  0
O  O208  1  0.95084158  0.13130403  0.49240962  1  -1.106741  0  -0.151233  -0.225977  0  2.618415  0
O  O209  1  0.45084326  0.86869751  0.00758966  1  -1.106143  0  -0.151266  -0.226086  0  2.618399  0
O  O210  1  0.04915912  0.86869542  0.50759018  1  -1.106743  0  -0.151279  -0.226017  0  2.618437  0
O  O211  1  0.54915667  0.13130412  0.99241071  1  -1.106109  0  -0.15127  -0.226083  0  2.618311  0
O  O212  1  0.92958336  0.70355537  0.24149475  1  -1.180776  0  -0.342048  -0.577345  0  2.234661  0
O  O213  1  0.42957577  0.29644972  0.25850426  1  -1.181023  0  -0.342106  -0.57735  0  2.234562  0
O  O214  1  0.07041657  0.29644481  0.75850524  1  -1.180779  0  -0.342066  -0.577383  0  2.234667  0
O  O215  1  0.57042417  0.70355264  0.74149571  1  -1.181006  0  -0.342063  -0.577308  0  2.234593  0
