# generated using pymatgen
data_ZnH8C8NO5
_symmetry_space_group_name_H-M   'P 1'
_cell_length_a   7.16389793
_cell_length_b   15.04541225
_cell_length_c   19.65101288
_cell_angle_alpha   89.99977188
_cell_angle_beta   89.99972195
_cell_angle_gamma   90.00014863
_symmetry_Int_Tables_number   1
_chemical_formula_structural   ZnH8C8NO5
_chemical_formula_sum   'Zn8 H64 C64 N8 O40'
_cell_volume   2118.06079537
_cell_formula_units_Z   8
loop_
 _symmetry_equiv_pos_site_id
 _symmetry_equiv_pos_as_xyz
  1  'x, y, z'
loop_
 _atom_site_type_symbol
 _atom_site_label
 _atom_site_symmetry_multiplicity
 _atom_site_fract_x
 _atom_site_fract_y
 _atom_site_fract_z
 _atom_site_occupancy
 _atom_site_pbe_bader_charge
 _atom_site_pbe_bader_spin_density
 _atom_site_pbe_cm5_charge
 _atom_site_pbe_ddec_charge
 _atom_site_pbe_ddec_spin_density
 _atom_site_pbe_ddec_sum_bond_order
 _atom_site_pbe_magmom
Zn  Zn0  1  0.24960383  0.11908731  0.12285026  1  1.341322  0  0.668856  0.889887  0  2.237828  0
Zn  Zn1  1  0.75039969  0.88091060  0.62284832  1  1.341203  0  0.66879  0.889841  0  2.237909  0
Zn  Zn2  1  0.25039803  0.61909288  0.12285051  1  1.341362  0  0.668803  0.88982  0  2.237934  0
Zn  Zn3  1  0.74960689  0.38091167  0.62284655  1  1.341152  0  0.668816  0.88989  0  2.237918  0
Zn  Zn4  1  0.76140741  0.36918400  0.04369422  1  1.339746  0  0.668615  0.889171  0  2.241833  0
Zn  Zn5  1  0.23859857  0.63081763  0.54369191  1  1.339704  0  0.668626  0.889179  0  2.241867  0
Zn  Zn6  1  0.73858876  0.86918491  0.04369194  1  1.339547  0  0.668606  0.88918  0  2.241886  0
Zn  Zn7  1  0.26140186  0.13081872  0.54369266  1  1.339722  0  0.66864  0.889158  0  2.24188  0
H  H8  1  0.35711371  0.98884637  0.05605430  1  0.620702  0  0.284619  0.374369  0  0.971952  0
H  H9  1  0.64287535  0.01115255  0.55604964  1  0.620694  0  0.284623  0.374403  0  0.971902  0
H  H10  1  0.14287845  0.48885196  0.05605374  1  0.620718  0  0.284594  0.374354  0  0.971965  0
H  H11  1  0.85712317  0.51115427  0.55604868  1  0.62068  0  0.284626  0.374403  0  0.971895  0
H  H12  1  0.13435790  0.98983524  0.05448308  1  0.634073  0  0.285261  0.37332  0  0.970575  0
H  H13  1  0.86563118  0.01016834  0.55448006  1  0.633924  0  0.285333  0.373392  0  0.970464  0
H  H14  1  0.36563289  0.48983579  0.05448416  1  0.633956  0  0.2853  0.373323  0  0.970571  0
H  H15  1  0.63436736  0.51016845  0.55447949  1  0.634051  0  0.285331  0.373393  0  0.970458  0
H  H16  1  0.86931295  0.23864643  0.11054483  1  0.641599  0  0.285225  0.374099  0  0.9716  0
H  H17  1  0.13068934  0.76135353  0.61054230  1  0.641729  0  0.285151  0.37404  0  0.971693  0
H  H18  1  0.63068442  0.73864654  0.11054223  1  0.641719  0  0.285154  0.374028  0  0.971699  0
H  H19  1  0.36931368  0.26135608  0.61054185  1  0.641474  0  0.285144  0.374001  0  0.97175  0
H  H20  1  0.64656131  0.24007796  0.11175056  1  0.637398  0  0.284725  0.373719  0  0.971383  0
H  H21  1  0.35344236  0.75992466  0.61174968  1  0.637612  0  0.284665  0.373621  0  0.971507  0
H  H22  1  0.85343745  0.74007901  0.11175011  1  0.637392  0  0.284716  0.373717  0  0.97139  0
H  H23  1  0.14656203  0.25992494  0.61174860  1  0.637605  0  0.284699  0.373651  0  0.971461  0
H  H24  1  0.26071005  0.25362195  0.92534863  1  0.087518  0  0.106743  0.150855  0  0.970406  0
H  H25  1  0.73929079  0.74638305  0.42534523  1  0.087987  0  0.106757  0.150821  0  0.970375  0
H  H26  1  0.23928310  0.75362020  0.92534686  1  0.087485  0  0.106746  0.150839  0  0.970406  0
H  H27  1  0.76071215  0.24637815  0.42534446  1  0.087425  0  0.106712  0.150768  0  0.970351  0
H  H28  1  0.26132926  0.14506650  0.96549685  1  0.097487  0  0.113474  0.16766  0  0.985488  0
H  H29  1  0.73868080  0.85493763  0.46549465  1  0.097457  0  0.113463  0.167664  0  0.98539  0
H  H30  1  0.23866835  0.64506275  0.96549356  1  0.097489  0  0.113499  0.167671  0  0.985378  0
H  H31  1  0.76132636  0.35493340  0.46549337  1  0.097436  0  0.11346  0.167631  0  0.98547  0
H  H32  1  0.75212657  0.50366435  0.24124313  1  0.088336  0  0.106961  0.151121  0  0.969353  0
H  H33  1  0.24786837  0.49633959  0.74124071  1  0.088456  0  0.107012  0.151215  0  0.969348  0
H  H34  1  0.74787057  0.00365146  0.24124390  1  0.088465  0  0.107014  0.151238  0  0.969354  0
H  H35  1  0.25212716  0.99634118  0.74124095  1  0.08848  0  0.107033  0.151278  0  0.969325  0
H  H36  1  0.75769335  0.39511841  0.20110541  1  0.148401  0  0.113425  0.167322  0  0.985275  0
H  H37  1  0.24230771  0.60488441  0.70110063  1  0.148587  0  0.113426  0.167347  0  0.985258  0
H  H38  1  0.74230223  0.89511069  0.20110210  1  0.149551  0  0.113454  0.167395  0  0.985294  0
H  H39  1  0.25769325  0.10488549  0.70109935  1  0.148568  0  0.113442  0.167407  0  0.985311  0
H  H40  1  0.12086427  0.12341176  0.27002955  1  0.144512  0  0.11822  0.090926  0  1.020336  0
H  H41  1  0.87914145  0.87657808  0.77002638  1  0.144747  0  0.118164  0.090847  0  1.020387  0
H  H42  1  0.37916354  0.62342347  0.27002448  1  0.144648  0  0.118166  0.090823  0  1.020451  0
H  H43  1  0.62085195  0.37658232  0.77002178  1  0.144624  0  0.118167  0.090837  0  1.020324  0
H  H44  1  0.09788201  0.23098781  0.36669160  1  0.110222  0  0.109854  0.123067  0  1.028654  0
H  H45  1  0.90212241  0.76900087  0.86668465  1  0.11054  0  0.10993  0.123219  0  1.028586  0
H  H46  1  0.40215345  0.73099557  0.36668801  1  0.110538  0  0.109915  0.123071  0  1.028678  0
H  H47  1  0.59786772  0.26900640  0.86668161  1  0.110445  0  0.109972  0.123258  0  1.028589  0
H  H48  1  0.29171930  0.43426022  0.22751355  1  0.140516  0  0.108542  0.120958  0  1.042115  0
H  H49  1  0.70826884  0.56572984  0.72750655  1  0.140303  0  0.108511  0.12098  0  1.042074  0
H  H50  1  0.20827445  0.93426508  0.22751235  1  0.1402  0  0.108556  0.121035  0  1.042063  0
H  H51  1  0.79172487  0.06573163  0.72750725  1  0.140385  0  0.108523  0.121008  0  1.042011  0
H  H52  1  0.31319952  0.31775052  0.13864247  1  0.133581  0  0.118957  0.092245  0  1.010388  0
H  H53  1  0.68679820  0.68224664  0.63863769  1  0.133418  0  0.118916  0.092195  0  1.010468  0
H  H54  1  0.18680597  0.81775668  0.13864181  1  0.133312  0  0.118938  0.092259  0  1.010337  0
H  H55  1  0.81320989  0.18224779  0.63863886  1  0.133422  0  0.118923  0.092231  0  1.01046  0
H  H56  1  0.11033875  0.52087636  0.29813030  1  0.123044  0  0.109427  0.123351  0  1.030439  0
H  H57  1  0.88966798  0.47911068  0.79812935  1  0.123439  0  0.109456  0.123337  0  1.030485  0
H  H58  1  0.38968255  0.02088425  0.29813082  1  0.123467  0  0.109521  0.123427  0  1.030374  0
H  H59  1  0.61033535  0.97911408  0.79812882  1  0.123313  0  0.109481  0.123442  0  1.03042  0
H  H60  1  0.13291688  0.62817927  0.39484574  1  0.126641  0  0.117867  0.089819  0  1.020166  0
H  H61  1  0.86708995  0.37181392  0.89484974  1  0.126433  0  0.117929  0.089926  0  1.020172  0
H  H62  1  0.36709532  0.12818447  0.39484732  1  0.126483  0  0.117882  0.089899  0  1.020215  0
H  H63  1  0.63290872  0.87181802  0.89484867  1  0.126494  0  0.117897  0.089876  0  1.02012  0
H  H64  1  0.29973804  0.43119406  0.52856979  1  0.125364  0  0.11905  0.092493  0  1.008957  0
H  H65  1  0.70026116  0.56880299  0.02856599  1  0.125455  0  0.119037  0.092492  0  1.009026  0
H  H66  1  0.20026001  0.93120024  0.52856859  1  0.125432  0  0.119033  0.092505  0  1.008988  0
H  H67  1  0.79971267  0.06881011  0.02856515  1  0.125502  0  0.119099  0.092582  0  1.008898  0
H  H68  1  0.28078915  0.31512501  0.43935932  1  0.135011  0  0.108681  0.120897  0  1.039173  0
H  H69  1  0.71920452  0.68486994  0.93935193  1  0.13515  0  0.108668  0.120874  0  1.03929  0
H  H70  1  0.21921507  0.81512988  0.43935809  1  0.135138  0  0.108696  0.120896  0  1.039338  0
H  H71  1  0.78077022  0.18487637  0.93935163  1  0.136868  0  0.108711  0.120979  0  1.039204  0
C  C72  1  0.43359969  0.24087632  0.01486718  1  1.573287  0  0.220812  0.664854  0  4.112446  0
C  C73  1  0.56640808  0.75912480  0.51486340  1  1.573438  0  0.221025  0.665226  0  4.112203  0
C  C74  1  0.06639311  0.74087568  0.01486622  1  1.57339  0  0.22095  0.665067  0  4.112287  0
C  C75  1  0.93360209  0.25912211  0.51486283  1  1.573411  0  0.220919  0.66499  0  4.112371  0
C  C76  1  0.26003123  0.21745333  0.97358996  1  -0.067663  0  -0.17157  -0.473205  0  3.883013  0
C  C77  1  0.73998013  0.78254943  0.47358849  1  -0.068078  0  -0.171592  -0.473212  0  3.882811  0
C  C78  1  0.23997644  0.71745291  0.97358921  1  -0.067682  0  -0.171542  -0.473206  0  3.883134  0
C  C79  1  0.76002654  0.28254918  0.47358772  1  -0.067638  0  -0.171548  -0.473101  0  3.882945  0
C  C80  1  0.08342301  0.23977743  0.01338411  1  1.557618  0  0.22272  0.668541  0  4.107523  0
C  C81  1  0.91658477  0.76022170  0.51337869  1  1.557469  0  0.222644  0.668463  0  4.107351  0
C  C82  1  0.41656700  0.73977657  0.01337999  1  1.55667  0  0.222601  0.668461  0  4.107669  0
C  C83  1  0.58342263  0.26022123  0.51337873  1  1.557573  0  0.222589  0.668466  0  4.107569  0
C  C84  1  0.58186508  0.48932722  0.15143266  1  1.582966  0  0.222936  0.665927  0  4.105908  0
C  C85  1  0.41812828  0.51067586  0.65142786  1  1.583381  0  0.222839  0.665892  0  4.10573  0
C  C86  1  0.91812609  0.98932303  0.15142956  1  1.583698  0  0.222897  0.665913  0  4.105603  0
C  C87  1  0.08187006  0.01067805  0.65142944  1  1.583145  0  0.222868  0.665883  0  4.10592  0
C  C88  1  0.75598224  0.46753586  0.19299528  1  -0.116972  0  -0.170916  -0.472447  0  3.883195  0
C  C89  1  0.24402033  0.53246568  0.69299225  1  -0.117408  0  -0.170984  -0.472631  0  3.88328  0
C  C90  1  0.74401244  0.96752680  0.19299554  1  -0.118392  0  -0.170935  -0.472583  0  3.88327  0
C  C91  1  0.25597896  0.03246742  0.69299200  1  -0.117182  0  -0.171032  -0.47278  0  3.883455  0
C  C92  1  0.93190775  0.49138653  0.15340579  1  1.569088  0  0.221318  0.667859  0  4.110263  0
C  C93  1  0.06808698  0.50861787  0.65340364  1  1.56909  0  0.221346  0.667836  0  4.11025  0
C  C94  1  0.56808620  0.99137991  0.15340787  1  1.569085  0  0.221198  0.66772  0  4.110439  0
C  C95  1  0.43190993  0.00861784  0.65340155  1  1.5691  0  0.221244  0.667658  0  4.110509  0
C  C96  1  0.16092928  0.19269139  0.26372083  1  0.436178  0  0.051703  0.105029  0  3.934548  0
C  C97  1  0.83907094  0.80729716  0.76371845  1  0.435204  0  0.051585  0.104938  0  3.934635  0
C  C98  1  0.33909480  0.69270040  0.26372041  1  0.435985  0  0.051631  0.105061  0  3.934595  0
C  C99  1  0.66092357  0.30730077  0.76371531  1  0.435562  0  0.051695  0.105183  0  3.934532  0
C  C100  1  0.14695345  0.25317812  0.31691292  1  -0.015913  0  -0.080875  -0.17909  0  3.930999  0
C  C101  1  0.85305024  0.74680949  0.81690765  1  -0.015816  0  -0.080822  -0.179075  0  3.931018  0
C  C102  1  0.35307163  0.75318582  0.31690993  1  -0.016089  0  -0.080842  -0.179011  0  3.931022  0
C  C103  1  0.64694184  0.24681442  0.81690656  1  -0.015881  0  -0.080936  -0.179339  0  3.931088  0
C  C104  1  0.19607786  0.34215547  0.30531435  1  -0.004623  0  0.014231  0.10906  0  3.982757  0
C  C105  1  0.80391761  0.65783353  0.80530893  1  -0.004637  0  0.014343  0.109116  0  3.982859  0
C  C106  1  0.30393249  0.84216377  0.30531145  1  -0.004755  0  0.014205  0.109144  0  3.982643  0
C  C107  1  0.69607136  0.15783918  0.80530726  1  -0.004548  0  0.014241  0.109142  0  3.982676  0
C  C108  1  0.25282681  0.36610517  0.23958228  1  -0.04602  0  -0.080585  -0.165392  0  3.907981  0
C  C109  1  0.74717234  0.63388682  0.73957755  1  -0.046005  0  -0.080653  -0.165514  0  3.907856  0
C  C110  1  0.24718038  0.86611473  0.23958304  1  -0.04575  0  -0.080624  -0.16555  0  3.907916  0
C  C111  1  0.75282575  0.13388989  0.73957679  1  -0.046024  0  -0.080595  -0.16555  0  3.907891  0
C  C112  1  0.26501168  0.30115926  0.18959564  1  0.468774  0  0.052706  0.113898  0  3.917209  0
C  C113  1  0.73498396  0.69883631  0.68959072  1  0.469016  0  0.052728  0.113934  0  3.917369  0
C  C114  1  0.23499723  0.80116548  0.18959642  1  0.469277  0  0.05271  0.113848  0  3.917259  0
C  C115  1  0.76501655  0.19883740  0.68958994  1  0.469046  0  0.052703  0.113955  0  3.917369  0
C  C116  1  0.19642524  0.40837352  0.36056941  1  -0.04985  0  0.013844  0.106933  0  3.985157  0
C  C117  1  0.80357088  0.59161719  0.86056268  1  -0.049278  0  0.013796  0.10683  0  3.985303  0
C  C118  1  0.30358472  0.90838116  0.36056855  1  -0.048904  0  0.013914  0.106873  0  3.985075  0
C  C119  1  0.69641419  0.09162284  0.86056405  1  -0.04919  0  0.013906  0.107059  0  3.984947  0
C  C120  1  0.15427812  0.49803408  0.34837758  1  -0.069184  0  -0.08063  -0.17831  0  3.930817  0
C  C121  1  0.84572096  0.50195669  0.84837511  1  -0.069823  0  -0.08077  -0.178352  0  3.930923  0
C  C122  1  0.34573388  0.99804044  0.34837714  1  -0.069927  0  -0.080879  -0.178455  0  3.930859  0
C  C123  1  0.65426938  0.00196030  0.84837402  1  -0.069705  0  -0.080772  -0.178511  0  3.930941  0
C  C124  1  0.16745650  0.55832475  0.40170500  1  0.472207  0  0.051887  0.105906  0  3.933557  0
C  C125  1  0.83254744  0.44166840  0.90170478  1  0.473432  0  0.051886  0.105854  0  3.933342  0
C  C126  1  0.33255523  0.05833058  0.40170563  1  0.473377  0  0.051946  0.10594  0  3.93333  0
C  C127  1  0.66744592  0.94167387  0.90170415  1  0.473379  0  0.051895  0.105976  0  3.933416  0
C  C128  1  0.25769847  0.44849712  0.47704523  1  0.479926  0  0.052723  0.113158  0  3.916891  0
C  C129  1  0.74229748  0.55149964  0.97704279  1  0.479876  0  0.052729  0.113175  0  3.916978  0
C  C130  1  0.24230735  0.94850136  0.47704549  1  0.479681  0  0.052649  0.113025  0  3.916881  0
C  C131  1  0.75768442  0.05150736  0.97704253  1  0.479737  0  0.052581  0.11304  0  3.917067  0
C  C132  1  0.24669206  0.38373597  0.42686421  1  -0.041461  0  -0.080468  -0.164314  0  3.905683  0
C  C133  1  0.75329898  0.61625639  0.92686054  1  -0.041968  0  -0.080404  -0.164196  0  3.905894  0
C  C134  1  0.25331688  0.88374089  0.42686496  1  -0.042036  0  -0.080418  -0.164169  0  3.905894  0
C  C135  1  0.74667975  0.11626277  0.92686081  1  -0.043851  0  -0.080459  -0.164367  0  3.905951  0
N  N136  1  0.22211712  0.21548192  0.20133515  1  -1.22273  0  -0.316555  -0.223894  0  3.504704  0
N  N137  1  0.77788533  0.78451093  0.70132837  1  -1.22219  0  -0.316493  -0.223813  0  3.504854  0
N  N138  1  0.27790094  0.71549218  0.20133433  1  -1.223004  0  -0.316464  -0.223834  0  3.504719  0
N  N139  1  0.72211269  0.28451396  0.70132766  1  -1.222592  0  -0.316512  -0.223947  0  3.504901  0
N  N140  1  0.22056955  0.53465828  0.46486917  1  -1.214144  0  -0.316563  -0.222961  0  3.504424  0
N  N141  1  0.77943214  0.46533921  0.96486795  1  -1.215187  0  -0.316564  -0.222969  0  3.504038  0
N  N142  1  0.27943841  0.03466204  0.46486887  1  -1.215045  0  -0.316495  -0.22296  0  3.503994  0
N  N143  1  0.72055492  0.96534541  0.96486621  1  -1.214767  0  -0.316512  -0.223063  0  3.504094  0
O  O144  1  0.24678722  0.02558060  0.04179403  1  -1.239055  0  -0.584451  -0.750206  0  2.112223  0
O  O145  1  0.75321180  0.97442038  0.54179128  1  -1.238881  0  -0.584493  -0.750285  0  2.112253  0
O  O146  1  0.25320964  0.52558352  0.04179528  1  -1.238994  0  -0.584478  -0.750191  0  2.112306  0
O  O147  1  0.74679078  0.47442144  0.54179003  1  -1.238854  0  -0.584518  -0.750295  0  2.112278  0
O  O148  1  0.75953054  0.27559447  0.12466780  1  -1.263149  0  -0.58484  -0.750981  0  2.11306  0
O  O149  1  0.24047295  0.72440609  0.62466265  1  -1.263441  0  -0.584726  -0.750838  0  2.113178  0
O  O150  1  0.74046544  0.77559538  0.12466603  1  -1.263236  0  -0.584785  -0.750939  0  2.113049  0
O  O151  1  0.25952689  0.22440850  0.62466494  1  -1.263301  0  -0.584761  -0.750848  0  2.113169  0
O  O152  1  0.45771316  0.20059348  0.07177320  1  -1.183656  0  -0.308393  -0.5686  0  2.313727  0
O  O153  1  0.54229663  0.79940801  0.57177442  1  -1.183641  0  -0.308531  -0.568882  0  2.313468  0
O  O154  1  0.04228702  0.70059281  0.07177482  1  -1.183666  0  -0.308483  -0.568717  0  2.313645  0
O  O155  1  0.95771020  0.29941200  0.57177228  1  -1.183691  0  -0.308444  -0.568691  0  2.313468  0
O  O156  1  0.54332822  0.29890487  0.99077344  1  -1.172283  0  -0.314862  -0.560415  0  2.263418  0
O  O157  1  0.45668151  0.70109846  0.49077576  1  -1.172426  0  -0.314877  -0.560432  0  2.263703  0
O  O158  1  0.95666738  0.79890339  0.99077332  1  -1.17233  0  -0.314897  -0.560475  0  2.263553  0
O  O159  1  0.04332560  0.20109595  0.49077537  1  -1.172293  0  -0.314831  -0.560373  0  2.26378  0
O  O160  1  0.04962528  0.19612675  0.06798292  1  -1.186624  0  -0.309027  -0.567311  0  2.346483  0
O  O161  1  0.95037897  0.80387276  0.56797934  1  -1.186738  0  -0.308953  -0.567269  0  2.34632  0
O  O162  1  0.45037214  0.69613059  0.06797925  1  -1.186496  0  -0.308962  -0.56726  0  2.346541  0
O  O163  1  0.54962793  0.30387491  0.56797893  1  -1.186345  0  -0.308902  -0.56725  0  2.346245  0
O  O164  1  0.97882996  0.30046974  0.99030896  1  -1.180205  0  -0.310725  -0.556906  0  2.291812  0
O  O165  1  0.02116860  0.69953359  0.49030543  1  -1.179901  0  -0.310716  -0.556859  0  2.29182  0
O  O166  1  0.52116006  0.80046838  0.99030604  1  -1.179349  0  -0.310702  -0.556841  0  2.291606  0
O  O167  1  0.47883431  0.19953562  0.49030682  1  -1.18031  0  -0.310721  -0.556896  0  2.292014  0
O  O168  1  0.55578458  0.44789744  0.09512725  1  -1.187536  0  -0.308796  -0.568607  0  2.326103  0
O  O169  1  0.44422071  0.55210393  0.59512635  1  -1.187722  0  -0.308699  -0.56854  0  2.326141  0
O  O170  1  0.94420853  0.94789595  0.09512461  1  -1.187695  0  -0.308796  -0.568645  0  2.326127  0
O  O171  1  0.05577303  0.05210542  0.59512848  1  -1.187626  0  -0.30876  -0.568514  0  2.326292  0
O  O172  1  0.47152431  0.54730888  0.17487115  1  -1.192449  0  -0.31008  -0.558458  0  2.289139  0
O  O173  1  0.52847711  0.45268942  0.67486939  1  -1.192561  0  -0.31012  -0.558518  0  2.288881  0
O  O174  1  0.02847227  0.04730502  0.17487180  1  -1.192908  0  -0.310057  -0.558427  0  2.288931  0
O  O175  1  0.97151798  0.95269062  0.67487180  1  -1.192654  0  -0.310076  -0.558469  0  2.28882  0
O  O176  1  0.96307679  0.44916452  0.09800461  1  -1.187713  0  -0.308107  -0.565738  0  2.333279  0
O  O177  1  0.03692566  0.55083817  0.59800188  1  -1.187883  0  -0.308064  -0.565653  0  2.3334  0
O  O178  1  0.53691488  0.94916251  0.09800472  1  -1.187701  0  -0.308031  -0.565634  0  2.333321  0
O  O179  1  0.46307222  0.05083884  0.59800075  1  -1.18797  0  -0.308008  -0.565543  0  2.333487  0
O  O180  1  0.03660605  0.55179701  0.17729583  1  -1.174285  0  -0.315906  -0.559631  0  2.266772  0
O  O181  1  0.96338976  0.44820527  0.67729332  1  -1.174166  0  -0.315956  -0.559651  0  2.266627  0
O  O182  1  0.46338773  0.05178971  0.17729674  1  -1.174218  0  -0.315917  -0.55964  0  2.266784  0
O  O183  1  0.53660807  0.94820792  0.67729191  1  -1.174056  0  -0.315915  -0.559552  0  2.266668  0
