# generated using pymatgen
data_ZnH10C15NO9
_symmetry_space_group_name_H-M   'P 1'
_cell_length_a   9.66768304
_cell_length_b   10.73919964
_cell_length_c   11.00196915
_cell_angle_alpha   93.73705421
_cell_angle_beta   86.35235035
_cell_angle_gamma   90.23624294
_symmetry_Int_Tables_number   1
_chemical_formula_structural   ZnH10C15NO9
_chemical_formula_sum   'Zn2 H20 C30 N2 O18'
_cell_volume   1137.52147937
_cell_formula_units_Z   2
loop_
 _symmetry_equiv_pos_site_id
 _symmetry_equiv_pos_as_xyz
  1  'x, y, z'
loop_
 _atom_site_type_symbol
 _atom_site_label
 _atom_site_symmetry_multiplicity
 _atom_site_fract_x
 _atom_site_fract_y
 _atom_site_fract_z
 _atom_site_occupancy
 _atom_site_pbe_bader_charge
 _atom_site_pbe_bader_spin_density
 _atom_site_pbe_cm5_charge
 _atom_site_pbe_ddec_charge
 _atom_site_pbe_ddec_spin_density
 _atom_site_pbe_ddec_sum_bond_order
 _atom_site_pbe_magmom
Zn  Zn0  1  0.64332140  0.49842338  0.48943460  1  1.280649  0  0.684713  0.823668  0  2.392124  0
Zn  Zn1  1  0.34936096  0.50286000  0.50708875  1  1.282739  0  0.678709  0.819138  0  2.42113  0
H  H2  1  0.73319596  0.89577382  0.52032770  1  0.067176  0  0.111332  0.10295  0  0.949958  0
H  H3  1  0.43401184  0.84504720  0.34626803  1  0.11281  0  0.100946  0.111418  0  1.046679  0
H  H4  1  0.14839840  0.43057903  0.32107003  1  0.176544  0  0.139278  0.129215  0  0.979832  0
H  H5  1  0.88621554  0.41711923  0.31445636  1  0.195673  0  0.137368  0.125534  0  0.998912  0
H  H6  1  0.68806234  0.83916227  0.72993869  1  0.085067  0  0.103928  0.043807  0  0.966496  0
H  H7  1  0.25873551  0.93855052  0.77281764  1  0.049431  0  0.109754  0.041405  0  0.93077  0
H  H8  1  0.65112077  0.10989617  0.26901103  1  0.116297  0  0.113124  0.060349  0  0.968644  0
H  H9  1  0.26648635  0.15110257  0.35794056  1  0.08734  0  0.113797  0.054651  0  0.95875  0
H  H10  1  0.26981378  0.67825397  0.85038710  1  0.102527  0  0.102694  0.043998  0  1.01508  0
H  H11  1  0.68126798  0.29215782  0.78338227  1  0.12038  0  0.113377  0.062481  0  0.972311  0
H  H12  1  0.26418900  0.78986834  0.23802490  1  0.644611  0  0.329101  0.383154  0  0.886961  0
H  H13  1  0.29226903  0.90585276  0.54566402  1  0.107435  0  0.11426  0.109865  0  0.96124  0
H  H14  1  0.86815629  0.46338909  0.99580451  1  0.669765  0  0.31847  0.373784  0  0.927811  0
H  H15  1  0.84326161  0.56286608  0.67533031  1  0.171292  0  0.136676  0.119496  0  0.979873  0
H  H16  1  0.10387352  0.56557519  0.68577001  1  0.164605  0  0.134925  0.119522  0  1.00124  0
H  H17  1  0.66985819  0.14514539  0.61228662  1  0.068105  0  0.096763  0.103231  0  1.011251  0
H  H18  1  0.42538050  0.11923003  0.68931375  1  0.051964  0  0.102256  0.112685  0  0.966385  0
H  H19  1  0.71892780  0.09971661  0.45900109  1  0.040048  0  0.097777  0.104993  0  0.987919  0
H  H20  1  0.28847807  0.12304915  0.59085525  1  0.075718  0  0.099218  0.109542  0  0.989694  0
H  H21  1  0.60982922  0.89010504  0.34376831  1  0.055723  0  0.10456  0.115551  0  0.961386  0
C  C22  1  0.48077043  0.48447532  0.73974040  1  1.590126  0  0.220766  0.586854  0  4.172597  0
C  C23  1  0.93587012  0.45240602  0.39617754  1  0.461554  0  0.085414  0.084094  0  3.80659  0
C  C24  1  0.91219913  0.53315980  0.59684764  1  0.51295  0  0.076136  0.070681  0  3.860992  0
C  C25  1  0.05540188  0.53619293  0.60182998  1  0.47788  0  0.076379  0.067033  0  3.847762  0
C  C26  1  0.51300852  0.73869661  0.53013958  1  1.606999  0  0.220711  0.588475  0  4.134801  0
C  C27  1  0.50737100  0.51155935  0.26416372  1  1.594045  0  0.220506  0.597124  0  4.176641  0
C  C28  1  0.48947841  0.26141201  0.48732588  1  1.585145  0  0.219325  0.576612  0  4.120213  0
C  C29  1  0.64599543  0.94718438  0.56987493  1  -0.026205  0  -0.088524  -0.100281  0  3.829844  0
C  C30  1  0.38247554  0.93722931  0.59633385  1  -0.036612  0  -0.089668  -0.112617  0  3.874666  0
C  C31  1  0.64220093  0.08339739  0.53393933  1  -0.044473  0  -0.163964  -0.216617  0  3.869694  0
C  C32  1  0.39019475  0.08157492  0.60101905  1  -0.074501  0  -0.155606  -0.214618  0  3.857159  0
C  C33  1  0.46152983  0.04439254  0.37792388  1  -0.050199  0  -0.01747  -0.043739  0  3.760078  0
C  C34  1  0.50710516  0.90833128  0.39042801  1  -0.063794  0  -0.151526  -0.224122  0  3.808923  0
C  C35  1  0.51331033  0.88063822  0.52699308  1  0.004651  0  -0.004026  0.00409  0  3.752503  0
C  C36  1  0.49618267  0.12025649  0.49973156  1  0.036499  0  -0.003559  0.008943  0  3.74896  0
C  C37  1  0.67144516  0.93601238  0.70381056  1  0.930005  0  0.101519  0.309013  0  3.886556  0
C  C38  1  0.35190136  0.89410571  0.72240352  1  0.932687  0  0.117648  0.315391  0  3.880833  0
C  C39  1  0.53749517  0.09518111  0.26501236  1  0.954212  0  0.115004  0.29258  0  3.851044  0
C  C40  1  0.30752505  0.05430352  0.35372516  1  0.967643  0  0.122087  0.314734  0  3.858495  0
C  C41  1  0.24965949  0.58852481  0.89313454  1  0.993844  0  0.102709  0.28821  0  3.952831  0
C  C42  1  0.71297779  0.37491857  0.84033617  1  0.9387  0  0.112508  0.30386  0  3.920032  0
C  C43  1  0.27894691  0.62522100  0.15411472  1  1.554187  0  0.235242  0.589066  0  4.119782  0
C  C44  1  0.37411028  0.53631542  0.94955310  1  0.039095  0  0.012856  0.025814  0  3.887253  0
C  C45  1  0.73472580  0.39176159  0.11203084  1  1.555005  0  0.233718  0.580191  0  4.121245  0
C  C46  1  0.60232044  0.43682006  0.92496773  1  0.029414  0  0.001535  -0.003202  0  3.93993  0
C  C47  1  0.38686905  0.54962593  0.07591828  1  -0.032159  0  0.015138  -0.047375  0  3.859011  0
C  C48  1  0.61355337  0.44655152  0.05211374  1  -0.05572  0  0.010134  -0.072437  0  3.882872  0
C  C49  1  0.50446992  0.50316683  0.12705990  1  0.107258  0  0.013645  -0.029943  0  3.863919  0
C  C50  1  0.48364175  0.48244912  0.87506824  1  -0.020556  0  -0.00042  -0.087094  0  3.933676  0
C  C51  1  0.07946894  0.45780726  0.40040918  1  0.544826  0  0.080144  0.075661  0  3.833011  0
N  N52  1  0.85390325  0.49149471  0.49427656  1  -1.22008  0  -0.299029  -0.161777  0  3.509325  0
N  N53  1  0.13775577  0.49996701  0.50292175  1  -1.209538  0  -0.29808  -0.162614  0  3.512328  0
O  O54  1  0.59537278  0.46275918  0.67814993  1  -1.148456  0  -0.287804  -0.530746  0  2.336518  0
O  O55  1  0.41938391  0.81696212  0.77029476  1  -1.073973  0  -0.238063  -0.340717  0  2.196808  0
O  O56  1  0.47710420  0.11674444  0.17466174  1  -1.068245  0  -0.25025  -0.330916  0  2.104664  0
O  O57  1  0.23209687  0.96541252  0.33009204  1  -1.107306  0  -0.253053  -0.361956  0  2.158897  0
O  O58  1  0.13462525  0.54097720  0.90060383  1  -1.080687  0  -0.257893  -0.350053  0  2.147265  0
O  O59  1  0.83557522  0.40664209  0.84086334  1  -1.101544  0  -0.254611  -0.375524  0  2.205381  0
O  O60  1  0.15924389  0.59441061  0.17673343  1  -1.119905  0  -0.277234  -0.472607  0  2.121825  0
O  O61  1  0.33367273  0.73709024  0.18919996  1  -1.143679  0  -0.32977  -0.479344  0  2.263152  0
O  O62  1  0.71719952  0.31873925  0.19217384  1  -1.114565  0  -0.271768  -0.462298  0  2.168314  0
O  O63  1  0.86285601  0.43050305  0.07844337  1  -1.141368  0  -0.328267  -0.468845  0  2.268125  0
O  O64  1  0.36627661  0.51019175  0.69650559  1  -1.139819  0  -0.287009  -0.507822  0  2.337934  0
O  O65  1  0.62638018  0.68347210  0.54325853  1  -1.164108  0  -0.311803  -0.543013  0  2.356067  0
O  O66  1  0.39715331  0.68663911  0.51063981  1  -1.176058  0  -0.319528  -0.550548  0  2.364615  0
O  O67  1  0.61885616  0.54335944  0.31227886  1  -1.155993  0  -0.30723  -0.523579  0  2.300976  0
O  O68  1  0.39278918  0.48535679  0.32021384  1  -1.160152  0  -0.303751  -0.54351  0  2.356092  0
O  O69  1  0.60218209  0.31515601  0.45618571  1  -1.158262  0  -0.304333  -0.522284  0  2.382477  0
O  O70  1  0.37239533  0.31394607  0.51046156  1  -1.158289  0  -0.312193  -0.539684  0  2.359853  0
O  O71  1  0.67829496  0.02496341  0.77846401  1  -1.096377  0  -0.269715  -0.36898  0  2.121554  0
