# generated using pymatgen
data_ZnH22C28NO6
_symmetry_space_group_name_H-M   'P 1'
_cell_length_a   9.46586158
_cell_length_b   10.98207938
_cell_length_c   12.22700000
_cell_angle_alpha   110.09376096
_cell_angle_beta   96.67264833
_cell_angle_gamma   96.40012100
_symmetry_Int_Tables_number   1
_chemical_formula_structural   ZnH22C28NO6
_chemical_formula_sum   'Zn2 H44 C56 N2 O12'
_cell_volume   1169.88313201
_cell_formula_units_Z   2
loop_
 _symmetry_equiv_pos_site_id
 _symmetry_equiv_pos_as_xyz
  1  'x, y, z'
loop_
 _atom_site_type_symbol
 _atom_site_label
 _atom_site_symmetry_multiplicity
 _atom_site_fract_x
 _atom_site_fract_y
 _atom_site_fract_z
 _atom_site_occupancy
 _atom_site_hle17_bader_spin_density
 _atom_site_hle17_ddec_charge
 _atom_site_hle17_ddec_spin_density
 _atom_site_hle17_ddec_sum_bond_order
 _atom_site_hle17_magmom
 _atom_site_hse06_10hf_bader_spin_density
 _atom_site_hse06_10hf_ddec_charge
 _atom_site_hse06_10hf_ddec_spin_density
 _atom_site_hse06_10hf_ddec_sum_bond_order
 _atom_site_hse06_10hf_magmom
 _atom_site_hse06_bader_spin_density
 _atom_site_hse06_ddec_charge
 _atom_site_hse06_ddec_spin_density
 _atom_site_hse06_ddec_sum_bond_order
 _atom_site_hse06_magmom
 _atom_site_pbe_bader_charge
 _atom_site_pbe_bader_spin_density
 _atom_site_pbe_cm5_charge
 _atom_site_pbe_ddec_charge
 _atom_site_pbe_ddec_spin_density
 _atom_site_pbe_ddec_sum_bond_order
 _atom_site_pbe_magmom
Zn  Zn0  1  0.91386122  0.97390453  0.58169987  1  0  1.040421  0  1.879106  0  0  0.871573  0  2.349016  0  0  0.924008  0  2.282893  0  1.299843  0  0.668428  0.834873  0  2.394699  0
Zn  Zn1  1  0.08613459  0.02609741  0.41830166  1  0  1.040563  0  1.879009  0  0  0.871755  0  2.348897  0  0  0.924181  0  2.282784  0  1.299938  0  0.66844  0.835058  0  2.39458  0
H  H2  1  0.40317549  0.80265149  0.45739978  1  0  0.094282  0  0.953313  0  0  0.103975  0  1.01669  0  0  0.107292  0  1.01383  0  0.091446  0  0.102003  0.101709  0  1.018652  0
H  H3  1  0.59682636  0.19734849  0.54259842  1  0  0.094297  0  0.953225  0  0  0.103996  0  1.016604  0  0  0.107315  0  1.013741  0  0.091341  0  0.102003  0.10173  0  1.018564  0
H  H4  1  0.60426147  0.69948617  0.51356356  1  0  0.113848  0  0.979898  0  0  0.120699  0  1.048108  0  0  0.124636  0  1.045399  0  0.093396  0  0.102861  0.117724  0  1.050297  0
H  H5  1  0.39573772  0.30051086  0.48643267  1  0  0.113806  0  0.979891  0  0  0.120677  0  1.048098  0  0  0.124612  0  1.045395  0  0.093461  0  0.102849  0.117743  0  1.05024  0
H  H6  1  0.37212711  0.61039198  0.76857256  1  0  0.118875  0  0.967915  0  0  0.121968  0  1.039439  0  0  0.126691  0  1.036516  0  0.083037  0  0.102474  0.118515  0  1.041955  0
H  H7  1  0.62787543  0.38961193  0.23142610  1  0  0.11881  0  0.967987  0  0  0.121962  0  1.039463  0  0  0.126686  0  1.036537  0  0.082947  0  0.102492  0.118511  0  1.041978  0
H  H8  1  0.17098628  0.71621234  0.71035980  1  0  0.098152  0  0.955544  0  0  0.106354  0  1.019382  0  0  0.109369  0  1.01788  0  0.091096  0  0.099966  0.104612  0  1.019733  0
H  H9  1  0.82901750  0.28379255  0.28963927  1  0  0.098193  0  0.955529  0  0  0.106355  0  1.019402  0  0  0.109366  0  1.017904  0  0.091036  0  0.099975  0.104616  0  1.019741  0
H  H10  1  0.77099230  0.69047161  0.62731147  1  0  0.07378  0  0.929633  0  0  0.088873  0  0.98937  0  0  0.088953  0  0.988794  0  0.072276  0  0.108208  0.088389  0  0.990456  0
H  H11  1  0.22900830  0.30952738  0.37268631  1  0  0.073794  0  0.929656  0  0  0.088889  0  0.989407  0  0  0.08897  0  0.988831  0  0.072282  0  0.108219  0.088422  0  0.990475  0
H  H12  1  0.72733107  0.51612037  0.55481651  1  0  0.067235  0  0.946114  0  0  0.078586  0  1.013203  0  0  0.077803  0  1.014918  0  0.080325  0  0.102733  0.079087  0  1.012016  0
H  H13  1  0.27266848  0.48387863  0.44518118  1  0  0.06726  0  0.946138  0  0  0.078615  0  1.01322  0  0  0.077834  0  1.014931  0  0.080361  0  0.102736  0.079101  0  1.012053  0
H  H14  1  0.92319869  0.41295407  0.60539565  1  0  0.099366  0  0.960006  0  0  0.110328  0  1.018695  0  0  0.112504  0  1.018749  0  0.078384  0  0.102447  0.108777  0  1.018752  0
H  H15  1  0.07680280  0.58704394  0.39460110  1  0  0.099337  0  0.960055  0  0  0.110314  0  1.018719  0  0  0.112492  0  1.018773  0  0.078274  0  0.10242  0.108764  0  1.018776  0
H  H16  1  0.11761562  0.39738937  0.75252766  1  0  0.095867  0  0.971912  0  0  0.106503  0  1.032466  0  0  0.108308  0  1.032628  0  0.093008  0  0.100685  0.105161  0  1.032481  0
H  H17  1  0.88238498  0.60260963  0.24747094  1  0  0.09584  0  0.971963  0  0  0.106487  0  1.032502  0  0  0.108291  0  1.032665  0  0.093406  0  0.100692  0.105156  0  1.032503  0
H  H18  1  0.01717293  0.73692204  0.01694422  1  0  0.088014  0  0.959523  0  0  0.098478  0  1.021877  0  0  0.101072  0  1.021219  0  0.069595  0  0.097167  0.09677  0  1.022158  0
H  H19  1  0.98282324  0.26307597  0.98305368  1  0  0.08806  0  0.959528  0  0  0.098543  0  1.021855  0  0  0.101137  0  1.021196  0  0.069545  0  0.097175  0.096833  0  1.022139  0
H  H20  1  0.81902624  0.74984252  0.87006910  1  0  0.081131  0  0.989246  0  0  0.091513  0  1.055147  0  0  0.093634  0  1.055441  0  0.058745  0  0.094342  0.090003  0  1.05499  0
H  H21  1  0.18097065  0.25015353  0.12992826  1  0  0.081124  0  0.989255  0  0  0.091518  0  1.055138  0  0  0.09364  0  1.055427  0  0.058973  0  0.094356  0.090006  0  1.054984  0
H  H22  1  0.55843039  0.67774570  0.33513909  1  0  0.09768  0  0.968982  0  0  0.108644  0  1.030924  0  0  0.111524  0  1.02855  0  0.096044  0  0.104368  0.106503  0  1.032787  0
H  H23  1  0.44155923  0.32225133  0.66486036  1  0  0.097526  0  0.968938  0  0  0.108509  0  1.030882  0  0  0.11142  0  1.028468  0  0.096207  0  0.104315  0.106366  0  1.032751  0
H  H24  1  0.34947794  0.58015675  0.17641270  1  0  0.112536  0  0.966391  0  0  0.121248  0  1.030219  0  0  0.124719  0  1.029184  0  0.091027  0  0.104876  0.118625  0  1.031395  0
H  H25  1  0.65051914  0.41983438  0.82357989  1  0  0.112507  0  0.966396  0  0  0.121244  0  1.030198  0  0  0.124716  0  1.029162  0  0.091066  0  0.104862  0.11862  0  1.031374  0
H  H26  1  0.58258473  0.71055048  0.94255375  1  0  0.112816  0  0.948467  0  0  0.122748  0  1.010816  0  0  0.126573  0  1.00891  0  0.091876  0  0.105406  0.119976  0  1.012401  0
H  H27  1  0.41742350  0.28944950  0.05744993  1  0  0.112764  0  0.948484  0  0  0.122702  0  1.010815  0  0  0.126529  0  1.008906  0  0.091963  0  0.105378  0.119929  0  1.012401  0
H  H28  1  0.79400140  0.81003195  0.10715328  1  0  0.089597  0  0.958991  0  0  0.098965  0  1.025062  0  0  0.102388  0  1.021691  0  0.076326  0  0.098143  0.096474  0  1.027389  0
H  H29  1  0.20599654  0.18997000  0.89285498  1  0  0.089659  0  0.958829  0  0  0.098951  0  1.02499  0  0  0.102378  0  1.021617  0  0.076254  0  0.098116  0.096461  0  1.027319  0
H  H30  1  0.18175022  0.61906950  0.07335005  1  0  0.060772  0  0.933572  0  0  0.074698  0  0.995798  0  0  0.075193  0  0.995299  0  0.067066  0  0.104056  0.074147  0  0.996604  0
H  H31  1  0.81825322  0.38093342  0.92664757  1  0  0.060751  0  0.933553  0  0  0.074686  0  0.995777  0  0  0.075184  0  0.995268  0  0.067004  0  0.104051  0.074138  0  0.996582  0
H  H32  1  0.20130330  0.45831183  0.97984729  1  0  0.060019  0  0.96045  0  0  0.07075  0  1.031209  0  0  0.070107  0  1.032844  0  0.083931  0  0.098252  0.071542  0  1.029521  0
H  H33  1  0.79869660  0.54168913  0.02015267  1  0  0.060025  0  0.960433  0  0  0.070752  0  1.031215  0  0  0.070112  0  1.032836  0  0.083931  0  0.098251  0.071545  0  1.029527  0
H  H34  1  0.97366322  0.95786620  0.81708092  1  0  0.084904  0  0.930615  0  0  0.093632  0  0.99477  0  0  0.096471  0  0.99175  0  0.087243  0  0.120393  0.091484  0  0.997042  0
H  H35  1  0.02633826  0.04213771  0.18291846  1  0  0.084931  0  0.930559  0  0  0.093645  0  0.994726  0  0  0.096483  0  0.991707  0  0.087251  0  0.120387  0.091495  0  0.997  0
H  H36  1  0.85252634  0.98769561  0.99449459  1  0  0.101322  0  0.951029  0  0  0.115158  0  1.007648  0  0  0.117527  0  1.007825  0  0.066193  0  0.107174  0.113321  0  1.00786  0
H  H37  1  0.14747763  0.01230437  0.00550543  1  0  0.101288  0  0.950997  0  0  0.115132  0  1.007613  0  0  0.1175  0  1.007791  0  0.066355  0  0.107174  0.113296  0  1.007826  0
H  H38  1  0.47627317  0.04722867  0.79460586  1  0  0.109393  0  0.962288  0  0  0.11979  0  1.021698  0  0  0.121354  0  1.024221  0  0.084061  0  0.108547  0.118693  0  1.020071  0
H  H39  1  0.52372922  0.95276836  0.20539720  1  0  0.10939  0  0.96233  0  0  0.119793  0  1.021731  0  0  0.121356  0  1.024258  0  0.084028  0  0.10854  0.118695  0  1.020105  0
H  H40  1  0.61373050  0.01879163  0.62904172  1  0  0.091476  0  0.920182  0  0  0.102739  0  0.977698  0  0  0.105093  0  0.975318  0  0.112656  0  0.125235  0.10095  0  0.979518  0
H  H41  1  0.38626620  0.98120933  0.37095795  1  0  0.091468  0  0.920187  0  0  0.1027  0  0.977743  0  0  0.105081  0  0.975331  0  0.11268  0  0.125221  0.100911  0  0.979561  0
H  H42  1  0.57828650  0.14252122  0.06075627  1  0  0.093564  0  0.942414  0  0  0.108907  0  1.007364  0  0  0.109875  0  1.007761  0  0.069609  0  0.100216  0.108233  0  1.007115  0
H  H43  1  0.42171695  0.85747581  0.93924689  1  0  0.093576  0  0.942401  0  0  0.108888  0  1.007371  0  0  0.109859  0  1.007769  0  0.069546  0  0.100199  0.108215  0  1.007119  0
H  H44  1  0.64220475  0.00509783  0.07851768  1  0  0.078283  0  0.943125  0  0  0.095627  0  1.003976  0  0  0.096507  0  1.004143  0  0.040191  0  0.095301  0.095004  0  1.003909  0
H  H45  1  0.35779852  0.99489821  0.92148271  1  0  0.078322  0  0.943192  0  0  0.095668  0  1.004008  0  0  0.096551  0  1.004178  0  0.040361  0  0.095332  0.095044  0  1.003944  0
C  C46  1  0.16083069  0.84045879  0.55044065  1  0  0.655502  0  3.902016  0  0  0.607225  0  4.190716  0  0  0.643009  0  4.183123  0  1.547361  0  0.204702  0.582759  0  4.195284  0
C  C47  1  0.83916833  0.15953726  0.44956262  1  0  0.655862  0  3.901993  0  0  0.607508  0  4.190737  0  0  0.643311  0  4.183138  0  1.547322  0  0.204812  0.583045  0  4.195306  0
C  C48  1  0.27530300  0.76885426  0.58135225  1  0  -0.114039  0  3.797588  0  0  -0.093581  0  4.03621  0  0  -0.104468  0  4.059628  0  -0.027346  0  -0.038061  -0.086403  0  4.020526  0
C  C49  1  0.72470363  0.23114867  0.41864483  1  0  -0.114209  0  3.797708  0  0  -0.093614  0  4.03619  0  0  -0.104558  0  4.059678  0  -0.027293  0  -0.038033  -0.086444  0  4.020516  0
C  C50  1  0.39728080  0.76080365  0.52596980  1  0  -0.03907  0  3.761762  0  0  -0.063011  0  4.013842  0  0  -0.059389  0  4.032463  0  -0.057027  0  -0.085687  -0.065181  0  4.000958  0
C  C51  1  0.60272389  0.23919436  0.47402805  1  0  -0.039043  0  3.76166  0  0  -0.063029  0  4.013727  0  0  -0.059391  0  4.032361  0  -0.056991  0  -0.085682  -0.065199  0  4.000855  0
C  C52  1  0.51027351  0.70191128  0.55731693  1  0  -0.221685  0  3.771372  0  0  -0.244016  0  4.033292  0  0  -0.251676  0  4.053098  0  -0.06014  0  -0.114551  -0.238546  0  4.01962  0
C  C53  1  0.48972940  0.29808870  0.44268055  1  0  -0.221606  0  3.771181  0  0  -0.243934  0  4.033151  0  0  -0.251592  0  4.052958  0  -0.059941  0  -0.114539  -0.238497  0  4.019458  0
C  C54  1  0.50241493  0.65049076  0.64717445  1  0  0.282213  0  3.811457  0  0  0.272268  0  4.072079  0  0  0.285937  0  4.087188  0  0.421805  0  0.084264  0.262986  0  4.061199  0
C  C55  1  0.49758496  0.34951021  0.35282551  1  0  0.282184  0  3.811244  0  0  0.27217  0  4.071981  0  0  0.285837  0  4.087093  0  0.421884  0  0.084238  0.262886  0  4.061111  0
C  C56  1  0.37838634  0.65340914  0.70078219  1  0  -0.200972  0  3.742627  0  0  -0.220617  0  4.001505  0  0  -0.227708  0  4.018865  0  0.02134  0  -0.109926  -0.215886  0  3.989992  0
C  C57  1  0.62161514  0.34659477  0.29921637  1  0  -0.20087  0  3.742464  0  0  -0.220533  0  4.001324  0  0  -0.227622  0  4.01868  0  0.021398  0  -0.109904  -0.215806  0  3.989811  0
C  C58  1  0.26663654  0.71250196  0.66820119  1  0  -0.048626  0  3.762459  0  0  -0.071282  0  4.010744  0  0  -0.067271  0  4.028793  0  -0.054805  0  -0.086752  -0.073826  0  3.998102  0
C  C59  1  0.73336564  0.28750588  0.33179947  1  0  -0.048642  0  3.762567  0  0  -0.071317  0  4.010851  0  0  -0.067285  0  4.028916  0  -0.054955  0  -0.086769  -0.073858  0  3.998212  0
C  C60  1  0.74264395  0.59716788  0.64075687  1  0  0.049995  0  3.61496  0  0  -0.012221  0  3.871746  0  0  -0.003005  0  3.875471  0  0.386176  0  -0.059198  -0.018327  0  3.868988  0
C  C61  1  0.25735541  0.40283013  0.35924131  1  0  0.049914  0  3.615157  0  0  -0.01236  0  3.871959  0  0  -0.003134  0  3.875689  0  0.386168  0  -0.059229  -0.01848  0  3.869201  0
C  C62  1  0.85917862  0.58341512  0.72798414  1  0  0.067398  0  3.755382  0  0  0.085841  0  3.993688  0  0  0.085356  0  4.01678  0  0.010447  0  -0.011337  0.086416  0  3.977991  0
C  C63  1  0.14082057  0.41658191  0.27201291  1  0  0.067429  0  3.755532  0  0  0.08598  0  3.993688  0  0  0.085462  0  4.016829  0  0.01049  0  -0.011232  0.086585  0  3.977953  0
C  C64  1  0.94381217  0.48433260  0.69548497  1  0  -0.103257  0  3.724996  0  0  -0.119595  0  3.963585  0  0  -0.122959  0  3.986032  0  -0.047707  0  -0.083426  -0.117881  0  3.948574  0
C  C65  1  0.05618719  0.51566541  0.30451158  1  0  -0.103203  0  3.725186  0  0  -0.119589  0  3.963739  0  0  -0.122946  0  3.986195  0  -0.047467  0  -0.083401  -0.117884  0  3.948719  0
C  C66  1  0.05339825  0.47579461  0.77812824  1  0  -0.086356  0  3.709923  0  0  -0.104525  0  3.95095  0  0  -0.106308  0  3.972478  0  -0.077389  0  -0.083095  -0.102976  0  3.936375  0
C  C67  1  0.94660147  0.52420537  0.22186977  1  0  -0.086333  0  3.709935  0  0  -0.104534  0  3.950974  0  0  -0.106315  0  3.972499  0  -0.077783  0  -0.083132  -0.102996  0  3.936397  0
C  C68  1  0.08093627  0.56663197  0.89405415  1  0  0.053353  0  3.76768  0  0  0.07227  0  4.005615  0  0  0.071133  0  4.029338  0  0.035595  0  -0.018213  0.073323  0  3.989243  0
C  C69  1  0.91906186  0.43336506  0.10594362  1  0  0.05337  0  3.767654  0  0  0.072348  0  4.005509  0  0  0.071213  0  4.029232  0  0.035585  0  -0.018174  0.073407  0  3.98914  0
C  C70  1  0.99641486  0.66617829  0.92634920  1  0  -0.122542  0  3.785016  0  0  -0.139389  0  4.031133  0  0  -0.142521  0  4.054212  0  -0.101821  0  -0.094215  -0.137091  0  4.014683  0
C  C71  1  0.00358345  0.33381972  0.07364807  1  0  -0.122674  0  3.7851  0  0  -0.139557  0  4.031217  0  0  -0.142692  0  4.054293  0  -0.101855  0  -0.094296  -0.137261  0  4.014768  0
C  C72  1  0.88615074  0.67374447  0.84441393  1  0  -0.119497  0  3.776711  0  0  -0.142533  0  4.028409  0  0  -0.145691  0  4.051318  0  -0.06535  0  -0.097476  -0.140341  0  4.012456  0
C  C73  1  0.11384615  0.32625158  0.15558261  1  0  -0.119454  0  3.776774  0  0  -0.142526  0  4.028447  0  0  -0.14567  0  4.051361  0  -0.065641  0  -0.097485  -0.140344  0  4.012487  0
C  C74  1  0.80741331  0.82606929  0.33375673  1  0  0.652135  0  3.917043  0  0  0.603414  0  4.205886  0  0  0.639187  0  4.1986  0  1.557724  0  0.204088  0.579048  0  4.210053  0
C  C75  1  0.19256971  0.17394444  0.66626038  1  0  0.651673  0  3.917207  0  0  0.603011  0  4.206006  0  0  0.638781  0  4.19872  0  1.557954  0  0.204007  0.57865  0  4.210169  0
C  C76  1  0.68728580  0.75567928  0.23339620  1  0  -0.107919  0  3.792072  0  0  -0.088526  0  4.032601  0  0  -0.099593  0  4.055635  0  -0.011397  0  -0.0364  -0.081163  0  4.016987  0
C  C77  1  0.31270806  0.24432364  0.76661282  1  0  -0.107762  0  3.791844  0  0  -0.088423  0  4.032397  0  0  -0.099491  0  4.055437  0  -0.066541  0  -0.036321  -0.081066  0  4.016786  0
C  C78  1  0.56252123  0.68767508  0.25004486  1  0  -0.028788  0  3.742029  0  0  -0.054109  0  3.991778  0  0  -0.049419  0  4.009057  0  -0.028806  0  -0.080798  -0.057128  0  3.979948  0
C  C79  1  0.43746910  0.31231999  0.74995487  1  0  -0.028563  0  3.741718  0  0  -0.053873  0  3.99147  0  0  -0.049207  0  4.00874  0  -0.02828  0  -0.080774  -0.056889  0  3.979641  0
C  C80  1  0.44391396  0.63343443  0.16038715  1  0  -0.207317  0  3.74957  0  0  -0.228043  0  4.005877  0  0  -0.235268  0  4.024333  0  -0.040229  0  -0.10915  -0.223072  0  3.993338  0
C  C81  1  0.55608453  0.36655867  0.83960617  1  0  -0.20739  0  3.749434  0  0  -0.228109  0  4.005795  0  0  -0.235335  0  4.024263  0  -0.040753  0  -0.109182  -0.223136  0  3.993255  0
C  C82  1  0.44908773  0.64847835  0.05138175  1  0  0.285881  0  3.809213  0  0  0.27474  0  4.068734  0  0  0.288695  0  4.083561  0  0.462931  0  0.087849  0.265438  0  4.058434  0
C  C83  1  0.55091661  0.35151770  0.94861464  1  0  0.285737  0  3.809423  0  0  0.274469  0  4.069102  0  0  0.288421  0  4.083932  0  0.463438  0  0.08775  0.265174  0  4.058799  0
C  C84  1  0.57775809  0.70727147  0.03016474  1  0  -0.193611  0  3.743629  0  0  -0.21477  0  4.005018  0  0  -0.221586  0  4.022963  0  -0.072895  0  -0.106251  -0.210593  0  3.993042  0
C  C85  1  0.42224801  0.29272850  0.96983793  1  0  -0.193537  0  3.743894  0  0  -0.214649  0  4.005264  0  0  -0.221465  0  4.023212  0  -0.073489  0  -0.106166  -0.21047  0  3.993284  0
C  C86  1  0.69463099  0.76111416  0.12094300  1  0  -0.061082  0  3.784989  0  0  -0.084376  0  4.038889  0  0  -0.080045  0  4.055842  0  -0.061693  0  -0.090967  -0.087034  0  4.027161  0
C  C87  1  0.30536890  0.23888680  0.87906760  1  0  -0.061189  0  3.784962  0  0  -0.084408  0  4.038843  0  0  -0.08008  0  4.055795  0  -0.00677  0  -0.091018  -0.087064  0  4.027117  0
C  C88  1  0.19795574  0.55956889  0.98420391  1  0  0.050503  0  3.63668  0  0  -0.015997  0  3.899307  0  0  -0.007241  0  3.903807  0  0.358601  0  -0.063651  -0.022081  0  3.89597  0
C  C89  1  0.80204593  0.44043010  0.01579315  1  0  0.050508  0  3.63668  0  0  -0.016035  0  3.899295  0  0  -0.007278  0  3.903802  0  0.358556  0  -0.063666  -0.022124  0  3.895975  0
C  C90  1  0.86374318  0.97901415  0.81747591  1  0  0.130844  0  3.714133  0  0  0.096994  0  3.970496  0  0  0.104983  0  3.987813  0  0.430232  0  0.048618  0.09182  0  3.958846  0
C  C91  1  0.13626025  0.02098877  0.18252498  1  0  0.130759  0  3.714199  0  0  0.09693  0  3.970565  0  0  0.10492  0  3.987879  0  0.430268  0  0.048606  0.091758  0  3.958915  0
C  C92  1  0.79512241  0.99483631  0.91474266  1  0  -0.186444  0  3.734618  0  0  -0.203088  0  3.981019  0  0  -0.211637  0  4.00275  0  0.018018  0  -0.086874  -0.197686  0  3.966537  0
C  C93  1  0.20487767  0.00515974  0.08525826  1  0  -0.186378  0  3.734688  0  0  -0.203029  0  3.981109  0  0  -0.211576  0  4.002836  0  0.017805  0  -0.086886  -0.197627  0  3.966627  0
C  C94  1  0.65255929  0.01894590  0.91018509  1  0  0.170479  0  3.684893  0  0  0.185347  0  3.921596  0  0  0.19161  0  3.942432  0  -0.020945  0  0.019446  0.181218  0  3.907487  0
C  C95  1  0.34743973  0.98105014  0.08981492  1  0  0.170542  0  3.684838  0  0  0.185372  0  3.921554  0  0  0.191641  0  3.94239  0  -0.02123  0  0.019497  0.181244  0  3.907445  0
C  C96  1  0.58632035  0.02763718  0.80504938  1  0  -0.159431  0  3.68452  0  0  -0.176881  0  3.929015  0  0  -0.186205  0  3.953836  0  0.000145  0  -0.077816  -0.171111  0  3.912655  0
C  C97  1  0.41368061  0.97236378  0.19495231  1  0  -0.159425  0  3.68452  0  0  -0.176867  0  3.929014  0  0  -0.186193  0  3.953844  0  0.000364  0  -0.07783  -0.171097  0  3.912656  0
C  C98  1  0.66197554  0.01163324  0.71152772  1  0  0.148926  0  3.680022  0  0  0.11593  0  3.931785  0  0  0.123767  0  3.950171  0  0.486973  0  0.059134  0.110894  0  3.919461  0
C  C99  1  0.33802631  0.98836674  0.28847047  1  0  0.148875  0  3.680059  0  0  0.115899  0  3.931839  0  0  0.123717  0  3.950222  0  0.48693  0  0.059123  0.110863  0  3.919517  0
C  C100  1  0.57783979  0.03665665  0.01546505  1  0  -0.15687  0  3.684768  0  0  -0.199667  0  3.931472  0  0  -0.201072  0  3.942797  0  -0.022487  0  -0.154841  -0.198539  0  3.923476  0
C  C101  1  0.42216277  0.96334136  0.98453669  1  0  -0.157018  0  3.684919  0  0  -0.199722  0  3.931542  0  0  -0.201146  0  3.942882  0  0.004729  0  -0.154887  -0.198595  0  3.923546  0
N  N102  1  0.79828546  0.98688986  0.71686315  1  0  -0.31413  0  3.268325  0  0  -0.233164  0  3.540338  0  0  -0.252869  0  3.554482  0  -1.248657  0  -0.327747  -0.220088  0  3.530914  0
N  N103  1  0.20171550  0.01311110  0.28313691  1  0  -0.314121  0  3.26828  0  0  -0.233163  0  3.540278  0  0  -0.252868  0  3.554431  0  -1.248536  0  -0.327738  -0.220088  0  3.530856  0
O  O104  1  0.05044433  0.84529524  0.60192456  1  0  -0.633836  0  2.030412  0  0  -0.571027  0  2.285774  0  0  -0.59897  0  2.272401  0  -1.170058  0  -0.32537  -0.551531  0  2.294678  0
O  O105  1  0.94956742  0.15471259  0.39807205  1  0  -0.634085  0  2.030088  0  0  -0.571252  0  2.285468  0  0  -0.599201  0  2.272087  0  -1.170229  0  -0.325455  -0.551753  0  2.294371  0
O  O106  1  0.61029934  0.59761595  0.68948629  1  0  -0.287604  0  2.303265  0  0  -0.216843  0  2.538332  0  0  -0.236013  0  2.541487  0  -1.063494  0  -0.178366  -0.202769  0  2.535325  0
O  O107  1  0.38969914  0.40238304  0.31051293  1  0  -0.287593  0  2.303278  0  0  -0.21681  0  2.538381  0  0  -0.235981  0  2.541534  0  -1.063515  0  -0.178404  -0.202738  0  2.535379  0
O  O108  1  0.18349897  0.89404009  0.47515757  1  0  -0.651788  0  2.088898  0  0  -0.586233  0  2.350663  0  0  -0.615209  0  2.337061  0  -1.177924  0  -0.322574  -0.566232  0  2.359398  0
O  O109  1  0.81649970  0.10595399  0.52482789  1  0  -0.651848  0  2.089424  0  0  -0.586304  0  2.351272  0  0  -0.615268  0  2.337641  0  -1.177912  0  -0.322642  -0.566311  0  2.360019  0
O  O110  1  0.78807540  0.82959985  0.43651054  1  0  -0.630886  0  2.041701  0  0  -0.565679  0  2.299281  0  0  -0.594288  0  2.285884  0  -1.169575  0  -0.322439  -0.545945  0  2.308204  0
O  O111  1  0.21191227  0.17039816  0.56349886  1  0  -0.630785  0  2.041704  0  0  -0.565638  0  2.2993  0  0  -0.594248  0  2.285913  0  -1.169576  0  -0.322462  -0.545899  0  2.308213  0
O  O112  1  0.91965962  0.88019988  0.30952373  1  0  -0.649865  0  2.090979  0  0  -0.586297  0  2.353052  0  0  -0.614934  0  2.340037  0  -1.184557  0  -0.323984  -0.56632  0  2.361316  0
O  O113  1  0.08033174  0.11981287  0.69049300  1  0  -0.649539  0  2.090982  0  0  -0.585958  0  2.353008  0  0  -0.6146  0  2.34  0  -1.184854  0  -0.323851  -0.565977  0  2.361258  0
O  O114  1  0.33493883  0.61135102  0.96193029  1  0  -0.284986  0  2.312018  0  0  -0.210374  0  2.544819  0  0  -0.229991  0  2.548758  0  -1.063994  0  -0.172188  -0.196787  0  2.541714  0
O  O115  1  0.66506373  0.38864699  0.03806327  1  0  -0.284836  0  2.31215  0  0  -0.210176  0  2.54501  0  0  -0.229795  0  2.54895  0  -1.063915  0  -0.172086  -0.196601  0  2.541914  0
