# generated using pymatgen
data_MnH8(C3O2)3
_symmetry_space_group_name_H-M   'P 1'
_cell_length_a   5.09756108
_cell_length_b   9.34255564
_cell_length_c   9.74827773
_cell_angle_alpha   90.02551832
_cell_angle_beta   89.08379755
_cell_angle_gamma   90.00551630
_symmetry_Int_Tables_number   1
_chemical_formula_structural   MnH8(C3O2)3
_chemical_formula_sum   'Mn2 H16 C18 O12'
_cell_volume   464.19499331
_cell_formula_units_Z   2
loop_
 _symmetry_equiv_pos_site_id
 _symmetry_equiv_pos_as_xyz
  1  'x, y, z'
loop_
 _atom_site_type_symbol
 _atom_site_label
 _atom_site_symmetry_multiplicity
 _atom_site_fract_x
 _atom_site_fract_y
 _atom_site_fract_z
 _atom_site_occupancy
 _atom_site_hle17_ddec_charge
 _atom_site_hle17_ddec_spin_density
 _atom_site_hle17_ddec_sum_bond_order
 _atom_site_hle17_magmom
 _atom_site_hse06_10hf_ddec_charge
 _atom_site_hse06_10hf_ddec_spin_density
 _atom_site_hse06_10hf_ddec_sum_bond_order
 _atom_site_hse06_10hf_magmom
 _atom_site_hse06_ddec_charge
 _atom_site_hse06_ddec_spin_density
 _atom_site_hse06_ddec_sum_bond_order
 _atom_site_hse06_magmom
 _atom_site_pbe_cm5_charge
 _atom_site_pbe_ddec_charge
 _atom_site_pbe_ddec_spin_density
 _atom_site_pbe_ddec_sum_bond_order
 _atom_site_pbe_magmom
Mn  Mn0  1  0.22084659  0.38174486  0.44669724  1  1.245481  4.777538  1.771246  4.67  1.086541  4.696831  2.280756  4.526  1.143514  4.744765  2.20516  4.593  0.614168  1.042698  4.645525  2.336306  4.457
Mn  Mn1  1  0.77877500  0.88182967  0.55341479  1  1.245178  4.779448  1.771439  4.67  1.085958  4.698812  2.280921  4.526  1.142908  4.746751  2.205332  4.593  0.613984  1.042121  4.647483  2.336454  4.457
H  H2  1  0.78215420  0.23865444  0.54266574  1  0.426951  -0.000356  0.871786  0.001  0.394716  0.000564  0.938002  0.002  0.405846  0.000193  0.921832  0.002  0.300112  0.386867  0.000889  0.94929  0.002
H  H3  1  0.21743575  0.73870187  0.45764407  1  0.427005  -0.000357  0.871698  0.001  0.394812  0.000563  0.937827  0.002  0.405916  0.000192  0.921691  0.002  0.300008  0.386964  0.000889  0.949115  0.002
H  H4  1  0.03179629  0.16627627  0.60695645  1  0.426436  -0.000471  0.87206  0.001  0.397291  0.000554  0.933067  0.002  0.407469  0.000163  0.918238  0.002  0.301278  0.390179  0.000935  0.943404  0.002
H  H5  1  0.96791405  0.66625027  0.39323950  1  0.426484  -0.000471  0.872113  0.001  0.397395  0.000555  0.933016  0.002  0.407599  0.000164  0.918152  0.002  0.301184  0.39028  0.000937  0.943354  0.002
H  H6  1  0.11639802  0.06777658  0.02966870  1  0.099651  2.8e-05  1.004776  0.0  0.108619  0.000114  1.070188  0.0  0.110769  6.4e-05  1.071301  0.0  0.099018  0.107033  0.000151  1.069681  0.0
H  H7  1  0.88377309  0.56782520  0.97014557  1  0.099735  7.2e-05  1.004657  0.0  0.108763  0.000112  1.070071  0.0  0.110919  6.3e-05  1.071185  0.0  0.099094  0.107179  0.000149  1.069566  0.0
H  H8  1  0.83073729  0.11240306  0.83456349  1  0.104329  -0.000705  0.969001  0.0  0.110675  -0.000523  1.033745  0.0  0.11414  -0.000604  1.031203  0.0  0.104951  0.108004  -0.000397  1.035944  0.0
H  H9  1  0.17023462  0.61227395  0.16514142  1  0.104491  -0.00069  0.969005  0.0  0.11142  -0.000523  1.033082  0.0  0.115001  -0.000604  1.03036  0.0  0.105244  0.108687  -0.000397  1.035362  0.0
H  H10  1  0.48154999  0.29894161  0.84925644  1  0.109903  -0.000132  0.933878  0.0  0.122082  -0.000154  0.98747  0.0  0.126106  -0.000188  0.985699  0.0  0.106419  0.11881  -0.000111  0.98938  0.0
H  H11  1  0.51940775  0.79891383  0.15051613  1  0.11015  -0.000129  0.93365  0.0  0.122328  -0.000154  0.987194  0.0  0.126358  -0.000188  0.985419  0.0  0.106438  0.119049  -0.000111  0.989113  0.0
H  H12  1  0.43351472  0.44219088  0.06471116  1  0.091647  -0.000288  0.982079  0.0  0.100786  -0.000144  1.04802  0.0  0.103068  -0.000177  1.047225  0.0  0.101243  0.098981  -9.8e-05  1.048945  0.0
H  H13  1  0.56694023  0.94232490  0.93527308  1  0.092376  -0.000285  0.980813  0.0  0.101058  -0.000145  1.047265  0.0  0.103383  -0.000179  1.046449  0.0  0.101419  0.099236  -0.0001  1.048214  0.0
H  H14  1  0.39718788  0.08955471  0.16566603  1  0.094425  -1.7e-05  0.946471  0.0  0.104923  0.000374  1.013077  0.001  0.105054  0.000214  1.014482  0.0  0.114294  0.105063  0.000545  1.011895  0.001
H  H15  1  0.60239652  0.58988732  0.83436296  1  0.094251  2e-06  0.946668  0.0  0.104732  0.000375  1.013251  0.001  0.104805  0.000216  1.014842  0.0  0.114255  0.10486  0.000547  1.012049  0.001
H  H16  1  0.16523179  0.99395091  0.27135738  1  0.115656  -0.000191  0.915779  0.0  0.125203  0.000114  0.979185  0.001  0.127315  -7.8e-05  0.977363  0.0  0.120881  0.123678  0.000342  0.980633  0.001
H  H17  1  0.83469597  0.49410613  0.72875967  1  0.115654  -0.000188  0.915575  0.0  0.125407  0.000116  0.978738  0.001  0.127545  -7.7e-05  0.976878  0.0  0.121123  0.12386  0.000344  0.980184  0.001
C  C18  1  0.75733856  0.34522034  0.16534502  1  -0.194917  -0.004161  3.725802  -0.003  -0.178155  -0.002325  3.970871  -0.002  -0.190201  -0.003092  3.991163  -0.002  -0.029516  -0.169946  -0.0016  3.957685  -0.002
C  C19  1  0.24255387  0.84531636  0.83467280  1  -0.195411  -0.004176  3.725704  -0.003  -0.178226  -0.002339  3.970388  -0.002  -0.190287  -0.003106  3.990714  -0.002  -0.029492  -0.17001  -0.001616  3.957179  -0.002
C  C20  1  0.95252669  0.23777173  0.15590877  1  0.278677  0.004141  3.730328  0.004  0.260952  0.005131  3.988009  0.005  0.274407  0.004021  4.003724  0.004  0.093955  0.251411  0.006506  3.977551  0.006
C  C21  1  0.04736243  0.73784517  0.84407656  1  0.278245  0.004202  3.73103  0.005  0.260359  0.005136  3.98889  0.005  0.273805  0.004031  4.004633  0.004  0.09397  0.250826  0.006517  3.978408  0.006
C  C22  1  0.97264883  0.15335008  0.03742862  1  -0.202689  -0.002265  3.749596  -0.002  -0.219599  -0.000416  3.998962  0.0  -0.227093  -0.001132  4.019693  -0.001  -0.108929  -0.214929  -0.000347  3.985862  0.0
C  C23  1  0.02760477  0.65340940  0.96249489  1  -0.202164  -0.002464  3.749153  -0.002  -0.219245  -0.000422  3.999099  0.0  -0.226718  -0.001147  4.019795  -0.001  -0.108943  -0.21459  -0.000357  3.986015  0.0
C  C24  1  0.80844322  0.17728873  0.92681366  1  -0.023076  0.003743  3.751429  0.003  -0.038189  0.004264  4.002005  0.003  -0.034412  0.003379  4.018199  0.003  -0.084533  -0.041173  0.005572  3.992135  0.004
C  C25  1  0.19217917  0.67731205  0.07301321  1  -0.023308  0.003745  3.750426  0.003  -0.039049  0.004278  4.001542  0.003  -0.035296  0.003392  4.017659  0.003  -0.08471  -0.042009  0.005594  3.991726  0.004
C  C26  1  0.61248916  0.28130537  0.93492244  1  -0.0981  -0.002972  3.769338  -0.002  -0.115716  -0.001426  4.029253  -0.001  -0.120383  -0.001981  4.048002  -0.001  -0.10051  -0.112285  -0.000921  4.016986  -0.001
C  C27  1  0.38822277  0.78132629  0.06490289  1  -0.098076  -0.002954  3.769163  -0.002  -0.115568  -0.00143  4.029139  -0.001  -0.12025  -0.001988  4.047919  -0.001  -0.100388  -0.112128  -0.000927  4.016854  -0.001
C  C28  1  0.58707441  0.36184528  0.05431884  1  -0.058892  0.003001  3.768575  0.003  -0.082724  0.003078  4.019418  0.003  -0.079431  0.002521  4.038201  0.002  -0.088022  -0.085007  0.0048  4.006802  0.004
C  C29  1  0.41315687  0.86200458  0.94562976  1  -0.059422  0.002992  3.767671  0.003  -0.082996  0.003086  4.018435  0.003  -0.079747  0.002528  4.037291  0.002  -0.08808  -0.085258  0.004813  4.00576  0.004
C  C30  1  0.71336328  0.44381114  0.28445934  1  0.709289  0.022603  3.828967  0.022  0.648428  0.033328  4.129696  0.03  0.687688  0.025238  4.118521  0.024  0.229714  0.619719  0.043273  4.137587  0.038
C  C31  1  0.28626385  0.94384935  0.71560749  1  0.708889  0.022593  3.830236  0.022  0.647691  0.033325  4.131111  0.03  0.686908  0.025235  4.120011  0.024  0.22912  0.619  0.043274  4.138954  0.038
C  C32  1  0.28244878  0.09259217  0.26216927  1  -0.081231  0.001333  3.598929  0.002  -0.140762  0.002499  3.860104  0.002  -0.137429  0.001519  3.860954  0.002  -0.059201  -0.14328  0.003552  3.859385  0.003
C  C33  1  0.71719854  0.59267697  0.73784997  1  -0.080708  0.001303  3.597858  0.002  -0.140388  0.002505  3.858902  0.002  -0.137075  0.001527  3.859699  0.002  -0.058946  -0.142823  0.003561  3.858083  0.003
C  C34  1  0.48049678  0.09839417  0.37667198  1  0.70809  0.009221  3.826974  0.01  0.647024  0.01579  4.140422  0.015  0.682224  0.011903  4.132565  0.012  0.23459  0.62241  0.019766  4.144736  0.018
C  C35  1  0.51934054  0.59834399  0.62329721  1  0.707633  0.009221  3.828571  0.01  0.646434  0.01582  4.1419  0.015  0.68165  0.011925  4.134022  0.012  0.234027  0.621797  0.019799  4.146206  0.018
O  O36  1  0.11417936  0.21624789  0.26616242  1  -0.301215  0.017562  2.440661  0.01  -0.218307  0.024491  2.68498  0.016  -0.239468  0.02235  2.687172  0.014  -0.162993  -0.202981  0.026641  2.682786  0.018
O  O37  1  0.88547407  0.71639791  0.73392117  1  -0.300889  0.017546  2.43972  0.01  -0.218157  0.024473  2.684398  0.016  -0.239323  0.02233  2.686617  0.014  -0.163102  -0.20286  0.026624  2.682177  0.018
O  O38  1  0.90976695  0.48520087  0.35638721  1  -0.684886  0.041354  2.088832  0.026  -0.608121  0.052136  2.358861  0.032  -0.638612  0.045141  2.33967  0.026  -0.317077  -0.585679  0.059613  2.371933  0.039
O  O39  1  0.08987918  0.98522073  0.64377406  1  -0.684466  0.041388  2.090454  0.026  -0.606967  0.052129  2.359994  0.032  -0.637327  0.045126  2.340668  0.026  -0.316598  -0.584594  0.059612  2.373136  0.039
O  O40  1  0.48194278  0.48795322  0.30760280  1  -0.644057  0.027619  2.052747  0.014  -0.584271  0.036452  2.32669  0.019  -0.613004  0.031143  2.311285  0.015  -0.308765  -0.562907  0.04197  2.337368  0.024
O  O41  1  0.51765514  0.98807066  0.69244665  1  -0.644078  0.027698  2.053002  0.014  -0.58424  0.036528  2.327129  0.019  -0.612908  0.031207  2.311562  0.015  -0.308699  -0.562903  0.042059  2.337904  0.024
O  O42  1  0.95841461  0.26052331  0.58016571  1  -0.833815  0.032167  1.869753  0.02  -0.775692  0.041344  2.075539  0.026  -0.799833  0.03685  2.039972  0.022  -0.566747  -0.757197  0.045343  2.100184  0.029
O  O43  1  0.04118813  0.76058545  0.42002871  1  -0.834066  0.032223  1.870052  0.02  -0.775879  0.04138  2.075743  0.026  -0.800018  0.036881  2.040212  0.022  -0.566509  -0.757378  0.045382  2.100376  0.029
O  O44  1  0.62754241  0.98973911  0.38392846  1  -0.63306  0.033986  2.006115  0.02  -0.567661  0.042641  2.277401  0.024  -0.598039  0.037594  2.261383  0.019  -0.307273  -0.544766  0.047814  2.287854  0.028
O  O45  1  0.37254732  0.48958473  0.61595642  1  -0.632899  0.034102  2.007947  0.02  -0.567289  0.042701  2.279102  0.024  -0.597676  0.03765  2.263046  0.019  -0.30688  -0.544389  0.047878  2.289591  0.028
O  O46  1  0.49460296  0.20894931  0.45268437  1  -0.654649  0.036227  2.109163  0.025  -0.578415  0.044206  2.366077  0.03  -0.610159  0.039138  2.352699  0.025  -0.287359  -0.555021  0.04915  2.374831  0.035
O  O47  1  0.50511597  0.70881832  0.54731203  1  -0.654553  0.036206  2.109664  0.025  -0.577981  0.04419  2.366035  0.03  -0.609706  0.039122  2.352658  0.025  -0.287214  -0.554598  0.049131  2.374787  0.035
