# generated using pymatgen
data_YPH15C7NO7
_symmetry_space_group_name_H-M   'P 1'
_cell_length_a   5.42549612
_cell_length_b   12.33515051
_cell_length_c   20.18564048
_cell_angle_alpha   89.99957823
_cell_angle_beta   88.77166065
_cell_angle_gamma   90.00059148
_symmetry_Int_Tables_number   1
_chemical_formula_structural   YPH15C7NO7
_chemical_formula_sum   'Y4 P4 H60 C28 N4 O28'
_cell_volume   1350.59964991
_cell_formula_units_Z   4
loop_
 _symmetry_equiv_pos_site_id
 _symmetry_equiv_pos_as_xyz
  1  'x, y, z'
loop_
 _atom_site_type_symbol
 _atom_site_label
 _atom_site_symmetry_multiplicity
 _atom_site_fract_x
 _atom_site_fract_y
 _atom_site_fract_z
 _atom_site_occupancy
 _atom_site_pbe_bader_charge
 _atom_site_pbe_bader_spin_density
 _atom_site_pbe_cm5_charge
 _atom_site_pbe_ddec_charge
 _atom_site_pbe_ddec_spin_density
 _atom_site_pbe_ddec_sum_bond_order
 _atom_site_pbe_magmom
Y  Y0  1  0.36680308  0.85618451  0.02695890  1  2.279871  0  1.320766  1.853454  0  2.375245  0
Y  Y1  1  0.63318279  0.35619501  0.47304959  1  2.279871  0  1.32072  1.853468  0  2.375295  0
Y  Y2  1  0.63318369  0.14380407  0.97304417  1  2.279917  0  1.320712  1.85345  0  2.375313  0
Y  Y3  1  0.36681732  0.64381789  0.52695164  1  2.279791  0  1.320749  1.853385  0  2.375329  0
P  P4  1  0.12442546  0.97506065  0.91118223  1  3.29697  0  0.336766  1.313498  0  5.380233  0
P  P5  1  0.87557320  0.47507694  0.58882021  1  3.29693  0  0.336846  1.313536  0  5.380126  0
P  P6  1  0.87557063  0.02492712  0.08882045  1  3.296947  0  0.336817  1.313576  0  5.380284  0
P  P7  1  0.12442646  0.52493191  0.41118300  1  3.296924  0  0.336762  1.313577  0  5.380174  0
H  H8  1  0.79116319  0.81791140  0.93716333  1  0.656902  0  0.302977  0.410356  0  0.923071  0
H  H9  1  0.20882744  0.31792034  0.56284483  1  0.656852  0  0.302938  0.410312  0  0.923148  0
H  H10  1  0.20883808  0.18208286  0.06284088  1  0.656906  0  0.30297  0.410361  0  0.923069  0
H  H11  1  0.79117624  0.68208527  0.43715694  1  0.656895  0  0.302946  0.410313  0  0.923166  0
H  H12  1  0.55826040  0.81424131  0.89085684  1  0.610529  0  0.317738  0.387865  0  0.920502  0
H  H13  1  0.44172334  0.31422935  0.60915673  1  0.610404  0  0.317704  0.387909  0  0.920298  0
H  H14  1  0.44173846  0.18577484  0.10914984  1  0.610497  0  0.317691  0.387863  0  0.92041  0
H  H15  1  0.55828022  0.68576004  0.39084553  1  0.610337  0  0.317732  0.387903  0  0.920321  0
H  H16  1  0.20232584  0.63062626  0.05652620  1  0.613922  0  0.330524  0.405756  0  0.880633  0
H  H17  1  0.79765269  0.13063352  0.44349186  1  0.6145  0  0.330478  0.405636  0  0.880762  0
H  H18  1  0.79768600  0.36935503  0.94347217  1  0.614237  0  0.330488  0.405732  0  0.88081  0
H  H19  1  0.20235628  0.86937290  0.55651096  1  0.614432  0  0.330454  0.405616  0  0.8807  0
H  H20  1  0.95557871  0.69853987  0.04257998  1  0.645304  0  0.298953  0.398856  0  0.939383  0
H  H21  1  0.04439716  0.19855449  0.45742676  1  0.645435  0  0.298913  0.398778  0  0.939479  0
H  H22  1  0.04442037  0.30144303  0.95741776  1  0.645249  0  0.299005  0.399109  0  0.93904  0
H  H23  1  0.95560410  0.80145923  0.54256951  1  0.645604  0  0.29895  0.39886  0  0.93938  0
H  H24  1  0.28140482  0.03942957  0.80856289  1  0.067073  0  0.120864  0.136879  0  1.007294  0
H  H25  1  0.71860942  0.53944017  0.69144156  1  0.067058  0  0.120882  0.136914  0  1.007372  0
H  H26  1  0.71859772  0.96056874  0.19144382  1  0.067133  0  0.120891  0.136864  0  1.007435  0
H  H27  1  0.28139369  0.46056625  0.30856267  1  0.067022  0  0.120868  0.136857  0  1.007433  0
H  H28  1  0.39769917  0.90928934  0.82300522  1  0.044919  0  0.098965  0.085939  0  1.036256  0
H  H29  1  0.60230395  0.40930304  0.67700109  1  0.044752  0  0.098995  0.086018  0  1.036224  0
H  H30  1  0.60229808  0.09070735  0.17700044  1  0.044776  0  0.098947  0.085959  0  1.036233  0
H  H31  1  0.39769778  0.59070743  0.32300114  1  0.044972  0  0.09897  0.085963  0  1.036214  0
H  H32  1  0.23727932  0.92483565  0.69093803  1  0.018472  0  0.084824  0.044688  0  1.000387  0
H  H33  1  0.76277443  0.42484998  0.80906677  1  0.018517  0  0.084774  0.044616  0  1.000685  0
H  H34  1  0.76275139  0.07515455  0.30906651  1  0.018566  0  0.084803  0.044644  0  1.000513  0
H  H35  1  0.23722672  0.57514671  0.19093794  1  0.018322  0  0.084766  0.044586  0  1.000621  0
H  H36  1  0.07068673  0.04346621  0.71534168  1  0.042346  0  0.104336  0.083091  0  0.997811  0
H  H37  1  0.92937409  0.54347234  0.78466128  1  0.042223  0  0.104337  0.083021  0  0.997906  0
H  H38  1  0.92934995  0.95652967  0.28466094  1  0.042318  0  0.104314  0.083072  0  0.99783  0
H  H39  1  0.07062074  0.45652597  0.21534684  1  0.042273  0  0.104343  0.082993  0  0.997884  0
H  H40  1  0.87315774  0.94822056  0.62126922  1  0.048435  0  0.093964  0.088597  0  0.996965  0
H  H41  1  0.12692677  0.44821764  0.87872537  1  0.048465  0  0.093876  0.088365  0  0.997101  0
H  H42  1  0.12688527  0.05178424  0.37873000  1  0.048236  0  0.093965  0.088588  0  0.996953  0
H  H43  1  0.87308381  0.55177418  0.12127845  1  0.048482  0  0.093887  0.08841  0  0.997104  0
H  H44  1  0.67552040  0.95509940  0.69210501  1  0.018193  0  0.093113  0.092038  0  0.989967  0
H  H45  1  0.32453730  0.45509380  0.80788676  1  0.018048  0  0.093113  0.092111  0  0.989817  0
H  H46  1  0.32451041  0.04491026  0.30789109  1  0.018061  0  0.093096  0.092061  0  0.989962  0
H  H47  1  0.67546638  0.54489964  0.19211500  1  0.017984  0  0.093118  0.092107  0  0.989827  0
H  H48  1  0.00358015  0.76042405  0.65637850  1  0.091328  0  0.112961  0.097761  0  0.993703  0
H  H49  1  0.99643277  0.26043057  0.84361333  1  0.091209  0  0.112942  0.097749  0  0.993761  0
H  H50  1  0.99642628  0.23957669  0.34361932  1  0.091359  0  0.112957  0.097796  0  0.993738  0
H  H51  1  0.00355389  0.73956612  0.15638229  1  0.091356  0  0.112948  0.097764  0  0.993851  0
H  H52  1  0.77195090  0.67117727  0.75029449  1  -0.011422  0  0.091499  0.085414  0  1.032375  0
H  H53  1  0.22801752  0.17117933  0.74969436  1  -0.011492  0  0.091565  0.085427  0  1.032359  0
H  H54  1  0.22803747  0.32882672  0.24970165  1  -0.01153  0  0.091498  0.085376  0  1.032522  0
H  H55  1  0.77197638  0.82882141  0.25030183  1  -0.011503  0  0.091532  0.085413  0  1.032409  0
H  H56  1  0.61851735  0.79432421  0.76728042  1  0.013054  0  0.085487  0.071883  0  1.034538  0
H  H57  1  0.38148837  0.29432529  0.73270719  1  0.012867  0  0.085422  0.071733  0  1.034659  0
H  H58  1  0.38148368  0.20568302  0.23271685  1  0.01306  0  0.085478  0.071887  0  1.034563  0
H  H59  1  0.61850450  0.70567626  0.26729346  1  0.012818  0  0.085417  0.071744  0  1.034639  0
H  H60  1  0.99191214  0.77401087  0.83818394  1  0.037177  0  0.103899  0.085138  0  1.007745  0
H  H61  1  0.00805200  0.27402785  0.66181325  1  0.036642  0  0.103847  0.084991  0  1.007837  0
H  H62  1  0.00807520  0.22598419  0.16181665  1  0.036667  0  0.103927  0.085163  0  1.007745  0
H  H63  1  0.99193558  0.72598019  0.33818635  1  0.036602  0  0.103919  0.085117  0  1.007831  0
H  H64  1  0.18017253  0.75760087  0.76572367  1  0.016055  0  0.089679  0.061446  0  0.990556  0
H  H65  1  0.81981857  0.25761782  0.73427439  1  0.016173  0  0.089686  0.061395  0  0.990574  0
H  H66  1  0.81982367  0.24239581  0.23427850  1  0.016258  0  0.089678  0.061473  0  0.990538  0
H  H67  1  0.18017441  0.74238697  0.26572576  1  0.016166  0  0.089704  0.061449  0  0.990569  0
C  C68  1  0.22487272  0.95806188  0.82500003  1  -0.16031  0  -0.065364  -0.359725  0  3.954652  0
C  C69  1  0.77513449  0.45807531  0.67500308  1  -0.160095  0  -0.065401  -0.359797  0  3.954661  0
C  C70  1  0.77512533  0.04193237  0.17500216  1  -0.160556  0  -0.065364  -0.359743  0  3.954697  0
C  C71  1  0.22487046  0.54193111  0.32500117  1  -0.160248  0  -0.065344  -0.359663  0  3.954494  0
C  C72  1  0.06188385  0.95462493  0.71438120  1  0.282328  0  -0.067887  -0.044886  0  3.941997  0
C  C73  1  0.93816269  0.45463111  0.78561889  1  0.282664  0  -0.067821  -0.044877  0  3.942367  0
C  C74  1  0.93814594  0.04537338  0.28561935  1  0.282358  0  -0.067896  -0.045051  0  3.942366  0
C  C75  1  0.06183352  0.54536557  0.21438329  1  0.282906  0  -0.067751  -0.044599  0  3.942082  0
C  C76  1  0.84720237  0.91859028  0.67230270  1  -0.016228  0  -0.160143  -0.184162  0  3.939772  0
C  C77  1  0.15284817  0.41858963  0.82769118  1  -0.016485  0  -0.160081  -0.183857  0  3.939602  0
C  C78  1  0.15282603  0.08141127  0.32769586  1  -0.016068  0  -0.160108  -0.184044  0  3.939518  0
C  C79  1  0.84714998  0.58140625  0.17231052  1  -0.016444  0  -0.160145  -0.184024  0  3.93967  0
C  C80  1  0.82580625  0.79439556  0.67444096  1  -0.029734  0  -0.090927  -0.121731  0  3.893447  0
C  C81  1  0.17420811  0.29439500  0.82554922  1  -0.030149  0  -0.090937  -0.121985  0  3.893762  0
C  C82  1  0.17420042  0.20561005  0.32555588  1  -0.029771  0  -0.090924  -0.121851  0  3.893433  0
C  C83  1  0.82578154  0.70560088  0.17444941  1  -0.029802  0  -0.090944  -0.122004  0  3.893793  0
C  C84  1  0.79015800  0.75944215  0.74648344  1  0.039041  0  -0.16418  -0.177087  0  3.943581  0
C  C85  1  0.20984362  0.25944492  0.75350926  1  0.039829  0  -0.164126  -0.176857  0  3.943694  0
C  C86  1  0.20984096  0.24056184  0.25351479  1  0.039056  0  -0.164168  -0.176994  0  3.943764  0
C  C87  1  0.79014959  0.74055420  0.24648990  1  0.039212  0  -0.164135  -0.17693  0  3.94382  0
C  C88  1  0.01062747  0.79782783  0.78593801  1  0.332728  0  -0.074505  -0.066923  0  3.922298  0
C  C89  1  0.98936308  0.29783982  0.71405983  1  0.333193  0  -0.074474  -0.066756  0  3.922308  0
C  C90  1  0.98936528  0.20217048  0.21406314  1  0.332998  0  -0.074566  -0.067112  0  3.922492  0
C  C91  1  0.01062427  0.70216254  0.28594076  1  0.333215  0  -0.07454  -0.066869  0  3.9225  0
C  C92  1  0.63806179  0.75276006  0.62638030  1  1.512008  0  0.206748  0.577525  0  4.158573  0
C  C93  1  0.36195858  0.25274249  0.87361016  1  1.51263  0  0.206853  0.577844  0  4.158612  0
C  C94  1  0.36192969  0.24725365  0.37361835  1  1.511905  0  0.206764  0.577659  0  4.158914  0
C  C95  1  0.63801911  0.74724690  0.12639231  1  1.513084  0  0.206788  0.577757  0  4.158174  0
N  N96  1  0.03373574  0.91613856  0.78257662  1  -1.073892  0  -0.338609  -0.096804  0  3.495818  0
N  N97  1  0.96627839  0.41614883  0.71742283  1  -1.074175  0  -0.338626  -0.096683  0  3.495922  0
N  N98  1  0.96626989  0.08385894  0.21742467  1  -1.073583  0  -0.33859  -0.096556  0  3.495912  0
N  N99  1  0.03371942  0.58385435  0.28258036  1  -1.074204  0  -0.338676  -0.096891  0  3.495909  0
O  O100  1  0.35146789  0.01507978  0.94981503  1  -1.492577  0  -0.47154  -0.866299  0  2.342044  0
O  O101  1  0.64851555  0.51508768  0.55019170  1  -1.492299  0  -0.471571  -0.866285  0  2.342048  0
O  O102  1  0.64850866  0.98491772  0.05019239  1  -1.492313  0  -0.471581  -0.866298  0  2.341993  0
O  O103  1  0.35147801  0.48491873  0.44981392  1  -1.492573  0  -0.47155  -0.866359  0  2.342017  0
O  O104  1  0.06536692  0.86274801  0.94241277  1  -1.467884  0  -0.409713  -0.79912  0  2.206644  0
O  O105  1  0.93462964  0.36276159  0.55759174  1  -1.467481  0  -0.409701  -0.799171  0  2.206661  0
O  O106  1  0.93462549  0.13724381  0.05758986  1  -1.467588  0  -0.409671  -0.799216  0  2.206696  0
O  O107  1  0.06537209  0.63724888  0.44241050  1  -1.467718  0  -0.409685  -0.799129  0  2.206556  0
O  O108  1  0.91132480  0.05481036  0.91266791  1  -1.472764  0  -0.445595  -0.793106  0  2.262183  0
O  O109  1  0.08866290  0.55483647  0.58733369  1  -1.472995  0  -0.445602  -0.793135  0  2.262024  0
O  O110  1  0.08865623  0.94517093  0.08733608  1  -1.472959  0  -0.445607  -0.7931  0  2.262042  0
O  O111  1  0.91133492  0.44517724  0.41266950  1  -1.472878  0  -0.445571  -0.793169  0  2.262344  0
O  O112  1  0.67762482  0.77277563  0.56384377  1  -1.20355  0  -0.355354  -0.614221  0  2.223458  0
O  O113  1  0.32240551  0.27275887  0.93614620  1  -1.203001  0  -0.355635  -0.614737  0  2.223184  0
O  O114  1  0.32237609  0.22724376  0.43615399  1  -1.202988  0  -0.355457  -0.614405  0  2.223603  0
O  O115  1  0.67757838  0.72722809  0.06385336  1  -1.203292  0  -0.355521  -0.614534  0  2.222905  0
O  O116  1  0.45134205  0.69788318  0.64412467  1  -1.200436  0  -0.332092  -0.567224  0  2.17718  0
O  O117  1  0.54862919  0.19785987  0.85586357  1  -1.201183  0  -0.331917  -0.56715  0  2.177927  0
O  O118  1  0.54864403  0.30213621  0.35587343  1  -1.200641  0  -0.331969  -0.567163  0  2.177501  0
O  O119  1  0.45133781  0.80212060  0.14413729  1  -1.201208  0  -0.331955  -0.56716  0  2.177693  0
O  O120  1  0.61204431  0.79375903  0.93474733  1  -1.276896  0  -0.608893  -0.790294  0  2.01644  0
O  O121  1  0.38794198  0.29376442  0.56526041  1  -1.276712  0  -0.608868  -0.790293  0  2.01627  0
O  O122  1  0.38795017  0.20624171  0.06525433  1  -1.276831  0  -0.608864  -0.790286  0  2.016298  0
O  O123  1  0.61205836  0.70623713  0.43473982  1  -1.276665  0  -0.60892  -0.790302  0  2.0163  0
O  O124  1  0.13920551  0.69131871  0.03141835  1  -1.261273  0  -0.609223  -0.798453  0  2.03265  0
O  O125  1  0.86075345  0.19132669  0.46858874  1  -1.261961  0  -0.60913  -0.798334  0  2.032799  0
O  O126  1  0.86078298  0.30866744  0.96857729  1  -1.26154  0  -0.609238  -0.798656  0  2.03248  0
O  O127  1  0.13923953  0.80868459  0.53140347  1  -1.261917  0  -0.609154  -0.798393  0  2.032641  0
