# generated using pymatgen
data_NaSm2PH14C11NO18
_symmetry_space_group_name_H-M   'P 1'
_cell_length_a   9.75708120
_cell_length_b   10.47313334
_cell_length_c   11.60295611
_cell_angle_alpha   101.86363954
_cell_angle_beta   106.00717438
_cell_angle_gamma   87.71438514
_symmetry_Int_Tables_number   1
_chemical_formula_structural   NaSm2PH14C11NO18
_chemical_formula_sum   'Na2 Sm4 P2 H28 C22 N2 O36'
_cell_volume   1115.17928472
_cell_formula_units_Z   2
loop_
 _symmetry_equiv_pos_site_id
 _symmetry_equiv_pos_as_xyz
  1  'x, y, z'
loop_
 _atom_site_type_symbol
 _atom_site_label
 _atom_site_symmetry_multiplicity
 _atom_site_fract_x
 _atom_site_fract_y
 _atom_site_fract_z
 _atom_site_occupancy
 _atom_site_hle17_bader_spin_density
 _atom_site_hle17_ddec_charge
 _atom_site_hle17_ddec_spin_density
 _atom_site_hle17_ddec_sum_bond_order
 _atom_site_hle17_magmom
 _atom_site_hse06_10hf_bader_spin_density
 _atom_site_hse06_10hf_ddec_charge
 _atom_site_hse06_10hf_ddec_spin_density
 _atom_site_hse06_10hf_ddec_sum_bond_order
 _atom_site_hse06_10hf_magmom
 _atom_site_hse06_bader_spin_density
 _atom_site_hse06_ddec_charge
 _atom_site_hse06_ddec_spin_density
 _atom_site_hse06_ddec_sum_bond_order
 _atom_site_hse06_magmom
 _atom_site_pbe_bader_spin_density
 _atom_site_pbe_cm5_charge
 _atom_site_pbe_ddec_charge
 _atom_site_pbe_ddec_spin_density
 _atom_site_pbe_ddec_sum_bond_order
 _atom_site_pbe_magmom
Na  Na0  1  0.27957531  0.15922157  0.86466456  1  0  0.919188  0  0.323924  0  0  0.87255  0  0.463846  0  0  0.884748  0  0.440924  0  0  0.672279  0.863396  0  0.47994  0
Na  Na1  1  0.72043513  0.84078698  0.13534349  1  0  0.919205  0  0.323903  0  0  0.872588  0  0.463786  0  0  0.884778  0  0.440867  0  0  0.672247  0.863436  0  0.479878  0
Sm  Sm2  1  0.90565242  0.97885799  0.70878189  1  0  2.316509  0  1.631252  0  0  2.228379  0  1.975479  0  0  2.267985  0  1.935799  0  0  1.50538  2.134535  0  2.123533  0
Sm  Sm3  1  0.09435349  0.02114983  0.29122080  1  0  2.316487  0  1.631239  0  0  2.228347  0  1.975483  0  0  2.26795  0  1.935804  0  0  1.505354  2.134514  0  2.123512  0
Sm  Sm4  1  0.42074167  0.40029665  0.71115206  1  0  2.235825  0  1.735642  0  0  2.07556  0  2.223371  0  0  2.118818  0  2.181107  0  0  1.511441  2.042852  0  2.256233  0
Sm  Sm5  1  0.57924832  0.59968907  0.28884811  1  0  2.235919  0  1.735566  0  0  2.075698  0  2.223223  0  0  2.11894  0  2.180982  0  0  1.511443  2.042996  0  2.256077  0
P  P6  1  0.09082712  0.21553880  0.60635417  1  0  1.614044  0  4.858207  0  0  1.464645  0  5.371871  0  0  1.514917  0  5.327711  0  0  0.350444  1.429371  0  5.396453  0
P  P7  1  0.90917895  0.78444937  0.39364880  1  0  1.614129  0  4.858545  0  0  1.464755  0  5.372112  0  0  1.515067  0  5.327876  0  0  0.350457  1.429425  0  5.396849  0
H  H8  1  0.81229695  0.41625892  0.73131539  1  0  0.120281  0  0.950028  0  0  0.129445  0  1.009519  0  0  0.132118  0  1.00912  0  0  0.116541  0.127596  0  1.009782  0
H  H9  1  0.18769416  0.58374179  0.26867343  1  0  0.120337  0  0.950142  0  0  0.129527  0  1.009576  0  0  0.132202  0  1.009174  0  0  0.116594  0.127679  0  1.009838  0
H  H10  1  0.83473165  0.57364631  0.92811053  1  0  0.105421  0  0.930027  0  0  0.117098  0  0.986268  0  0  0.120192  0  0.984009  0  0  0.116031  0.114577  0  0.988455  0
H  H11  1  0.16525262  0.42636836  0.07187639  1  0  0.105436  0  0.93014  0  0  0.117094  0  0.986365  0  0  0.120185  0  0.984109  0  0  0.11606  0.114573  0  0.988556  0
H  H12  1  0.06244698  0.71154682  0.02168764  1  0  0.12776  0  0.955872  0  0  0.135988  0  1.013673  0  0  0.139396  0  1.012855  0  0  0.118337  0.13337  0  1.014726  0
H  H13  1  0.93754386  0.28845903  0.97829184  1  0  0.127735  0  0.955771  0  0  0.136062  0  1.013489  0  0  0.139466  0  1.012675  0  0  0.118324  0.133449  0  1.014521  0
H  H14  1  0.24651796  0.68922029  0.90548039  1  0  0.126544  0  0.904511  0  0  0.137725  0  0.958253  0  0  0.14121  0  0.954763  0  0  0.142549  0.134942  0  0.961407  0
H  H15  1  0.75347710  0.31077241  0.09451014  1  0  0.126592  0  0.904448  0  0  0.137748  0  0.958212  0  0  0.141233  0  0.954725  0  0  0.142542  0.134964  0  0.96137  0
H  H16  1  0.05729189  0.41861581  0.53953356  1  0  0.156021  0  0.944813  0  0  0.165672  0  1.005989  0  0  0.169496  0  1.003561  0  0  0.121365  0.162908  0  1.008033  0
H  H17  1  0.94271335  0.58138131  0.46046592  1  0  0.156042  0  0.944789  0  0  0.165659  0  1.00602  0  0  0.169485  0  1.003593  0  0  0.121362  0.162894  0  1.008058  0
H  H18  1  0.89295515  0.35442956  0.54543205  1  0  0.156764  0  0.914048  0  0  0.174041  0  0.960683  0  0  0.176629  0  0.959925  0  0  0.119888  0.171886  0  0.962082  0
H  H19  1  0.10703834  0.64557296  0.45456021  1  0  0.156791  0  0.91401  0  0  0.174073  0  0.960629  0  0  0.176645  0  0.959895  0  0  0.119879  0.171897  0  0.962055  0
H  H20  1  0.10500780  0.81991566  0.64149975  1  0  0.428524  0  0.86011  0  0  0.404721  0  0.915001  0  0  0.414921  0  0.899865  0  0  0.30665  0.397776  0  0.925029  0
H  H21  1  0.89499062  0.18009342  0.35850000  1  0  0.428509  0  0.860115  0  0  0.404739  0  0.914953  0  0  0.414933  0  0.899825  0  0  0.306681  0.397816  0  0.924957  0
H  H22  1  0.22878278  0.88539358  0.75602851  1  0  0.435967  0  0.859756  0  0  0.408811  0  0.916378  0  0  0.419772  0  0.900276  0  0  0.298221  0.400663  0  0.928197  0
H  H23  1  0.77122504  0.11461628  0.24396894  1  0  0.43584  0  0.859937  0  0  0.408691  0  0.916515  0  0  0.419664  0  0.900402  0  0  0.298182  0.400544  0  0.92833  0
H  H24  1  0.71246409  0.73345898  0.62197444  1  0  0.439636  0  0.841834  0  0  0.415523  0  0.897196  0  0  0.425547  0  0.882362  0  0  0.313298  0.408473  0  0.907292  0
H  H25  1  0.28754451  0.26654096  0.37802629  1  0  0.439504  0  0.842036  0  0  0.415434  0  0.897325  0  0  0.42546  0  0.88249  0  0  0.313274  0.408383  0  0.907422  0
H  H26  1  0.61922525  0.83723555  0.56423952  1  0  0.447704  0  0.839349  0  0  0.417826  0  0.901064  0  0  0.428773  0  0.884858  0  0  0.306411  0.409872  0  0.912652  0
H  H27  1  0.38077432  0.16276943  0.43576566  1  0  0.447731  0  0.839342  0  0  0.417846  0  0.901065  0  0  0.428795  0  0.884858  0  0  0.306434  0.409891  0  0.912656  0
H  H28  1  0.30590496  0.15454391  0.11636699  1  0  0.426612  0  0.868633  0  0  0.396024  0  0.93178  0  0  0.406742  0  0.915985  0  0  0.297574  0.388247  0  0.943262  0
H  H29  1  0.69409228  0.84546325  0.88363214  1  0  0.426669  0  0.868562  0  0  0.396046  0  0.931754  0  0  0.406763  0  0.915961  0  0  0.2976  0.388269  0  0.943234  0
H  H30  1  0.41668770  0.26173907  0.11593215  1  0  0.425732  0  0.8696  0  0  0.395973  0  0.93086  0  0  0.406727  0  0.914917  0  0  0.297829  0.388371  0  0.942167  0
H  H31  1  0.58331799  0.73826183  0.88407252  1  0  0.425634  0  0.869702  0  0  0.395933  0  0.930852  0  0  0.406681  0  0.914921  0  0  0.297802  0.388337  0  0.942148  0
H  H32  1  0.40139016  0.95934030  0.69853736  1  0  0.433699  0  0.815437  0  0  0.414377  0  0.872867  0  0  0.422791  0  0.860525  0  0  0.328257  0.408212  0  0.880663  0
H  H33  1  0.59860841  0.04066970  0.30146435  1  0  0.43369  0  0.81541  0  0  0.414364  0  0.872863  0  0  0.422777  0  0.860537  0  0  0.328261  0.408197  0  0.880659  0
H  H34  1  0.47341958  0.91501376  0.82458155  1  0  0.442863  0  0.849745  0  0  0.411552  0  0.911429  0  0  0.422508  0  0.895563  0  0  0.29403  0.403835  0  0.922586  0
H  H35  1  0.52658202  0.08499522  0.17541881  1  0  0.442813  0  0.849792  0  0  0.411515  0  0.911451  0  0  0.422469  0  0.895589  0  0  0.294045  0.403799  0  0.922607  0
C  C36  1  0.01382202  0.46635737  0.71344629  1  0  0.215764  0  3.650483  0  0  0.208343  0  3.897169  0  0  0.217678  0  3.914958  0  0  0.126659  0.202363  0  3.885396  0
C  C37  1  0.98617997  0.53364389  0.28654824  1  0  0.21568  0  3.650613  0  0  0.20826  0  3.897321  0  0  0.217596  0  3.91511  0  0  0.126612  0.202286  0  3.885538  0
C  C38  1  0.90762578  0.47696037  0.77396046  1  0  -0.129223  0  3.695224  0  0  -0.150689  0  3.952917  0  0  -0.156501  0  3.971333  0  0  -0.070379  -0.147043  0  3.940309  0
C  C39  1  0.09237786  0.52304357  0.22604271  1  0  -0.129331  0  3.69544  0  0  -0.150867  0  3.953147  0  0  -0.156678  0  3.971557  0  0  -0.07052  -0.147218  0  3.940535  0
C  C40  1  0.92028148  0.56547719  0.88354046  1  0  -0.004035  0  3.718587  0  0  -0.029685  0  3.981678  0  0  -0.023807  0  3.996121  0  0  -0.064291  -0.033413  0  3.972267  0
C  C41  1  0.07971697  0.43453989  0.11645319  1  0  -0.003996  0  3.718899  0  0  -0.029549  0  3.981907  0  0  -0.02367  0  3.996349  0  0  -0.064175  -0.033278  0  3.972493  0
C  C42  1  0.04408690  0.64241565  0.93475948  1  0  -0.097436  0  3.744901  0  0  -0.114589  0  4.011575  0  0  -0.120458  0  4.030313  0  0  -0.074475  -0.110786  0  3.999548  0
C  C43  1  0.95592093  0.35759521  0.06523732  1  0  -0.09744  0  3.745077  0  0  -0.114705  0  4.011683  0  0  -0.120573  0  4.030423  0  0  -0.074569  -0.110891  0  3.999655  0
C  C44  1  0.14816550  0.63194142  0.87356821  1  0  0.038677  0  3.578375  0  0  -0.007877  0  3.848596  0  0  0.000655  0  3.859231  0  0  0.052698  -0.013708  0  3.842222  0
C  C45  1  0.85183728  0.36805493  0.12642545  1  0  0.038514  0  3.578001  0  0  -0.008037  0  3.848286  0  0  0.000496  0  3.85892  0  0  0.052632  -0.013868  0  3.841913  0
C  C46  1  0.00563073  0.37483399  0.59544589  1  0  -0.520593  0  3.693  0  0  -0.543475  0  3.935226  0  0  -0.553099  0  3.938773  0  0  -0.158064  -0.537414  0  3.934334  0
C  C47  1  0.99436457  0.62516461  0.40454418  1  0  -0.520673  0  3.693234  0  0  -0.543507  0  3.935381  0  0  -0.553139  0  3.938959  0  0  -0.158032  -0.537417  0  3.934495  0
C  C48  1  0.68272432  0.20239857  0.77223901  1  0  0.56261  0  3.951647  0  0  0.52172  0  4.254853  0  0  0.551753  0  4.244414  0  0  0.220215  0.501641  0  4.257407  0
C  C49  1  0.31726636  0.79759183  0.22777003  1  0  0.562561  0  3.951681  0  0  0.521633  0  4.254898  0  0  0.551664  0  4.244461  0  0  0.220042  0.501555  0  4.257449  0
C  C50  1  0.62950772  0.16228301  0.62967694  1  0  0.550008  0  3.954083  0  0  0.507344  0  4.256751  0  0  0.537123  0  4.247177  0  0  0.212856  0.487432  0  4.259564  0
C  C51  1  0.37048271  0.83770451  0.37032973  1  0  0.549885  0  3.95414  0  0  0.507319  0  4.256646  0  0  0.537096  0  4.247079  0  0  0.212936  0.487407  0  4.259457  0
C  C52  1  0.06149752  0.04831540  0.00731759  1  0  0.590714  0  3.892431  0  0  0.546769  0  4.19323  0  0  0.576947  0  4.182689  0  0  0.230298  0.526483  0  4.194129  0
C  C53  1  0.93851446  0.95169438  0.99267894  1  0  0.590925  0  3.892115  0  0  0.546963  0  4.192939  0  0  0.577137  0  4.182398  0  0  0.230408  0.526679  0  4.193836  0
C  C54  1  0.45429401  0.44374985  0.00589023  1  0  0.577809  0  3.908466  0  0  0.53234  0  4.209991  0  0  0.561959  0  4.200353  0  0  0.225933  0.512308  0  4.216011  0
C  C55  1  0.54569488  0.55623192  0.99411235  1  0  0.577377  0  3.909161  0  0  0.532113  0  4.210412  0  0  0.561713  0  4.200793  0  0  0.22571  0.512085  0  4.216432  0
C  C56  1  0.57158715  0.52737720  0.54618323  1  0  0.556605  0  3.944584  0  0  0.514085  0  4.240197  0  0  0.543751  0  4.23078  0  0  0.218859  0.493912  0  4.245842  0
C  C57  1  0.42840899  0.47261246  0.45381033  1  0  0.556505  0  3.944635  0  0  0.513987  0  4.240271  0  0  0.543658  0  4.230853  0  0  0.218856  0.493807  0  4.245918  0
N  N58  1  0.13175101  0.54675470  0.76489206  1  0  0.234383  0  3.667648  0  0  0.288674  0  3.924515  0  0  0.286227  0  3.945452  0  0  -0.109662  0.28937  0  3.910556  0
N  N59  1  0.86825144  0.45324533  0.23511180  1  0  0.234595  0  3.667363  0  0  0.288883  0  3.924208  0  0  0.286439  0  3.945143  0  0  -0.109465  0.289578  0  3.91025  0
O  O60  1  0.02483348  0.15141741  0.68633022  1  0  -1.01127  0  1.983676  0  0  -0.948411  0  2.265899  0  0  -0.973164  0  2.243903  0  0  -0.508522  -0.9202  0  2.282925  0
O  O61  1  0.97515439  0.84858694  0.31367339  1  0  -1.011351  0  1.983634  0  0  -0.94847  0  2.265755  0  0  -0.973229  0  2.243755  0  0  -0.508516  -0.920256  0  2.282805  0
O  O62  1  0.05888056  0.14276822  0.47317378  1  0  -0.988587  0  2.003037  0  0  -0.916712  0  2.272012  0  0  -0.941544  0  2.247834  0  0  -0.467597  -0.888595  0  2.289432  0
O  O63  1  0.94112146  0.85722199  0.52683055  1  0  -0.988702  0  2.003141  0  0  -0.916775  0  2.272014  0  0  -0.941606  0  2.247815  0  0  -0.467623  -0.888658  0  2.289462  0
O  O64  1  0.25118855  0.23890939  0.66858283  1  0  -1.012216  0  1.975022  0  0  -0.937085  0  2.257123  0  0  -0.960882  0  2.233715  0  0  -0.525269  -0.920266  0  2.273292  0
O  O65  1  0.74881776  0.76109823  0.33142767  1  0  -1.012198  0  1.975006  0  0  -0.937101  0  2.257075  0  0  -0.960901  0  2.233666  0  0  -0.525195  -0.920264  0  2.273255  0
O  O66  1  0.23083002  0.54385918  0.70589827  1  0  -0.651318  0  1.847246  0  0  -0.617979  0  2.101941  0  0  -0.639448  0  2.099938  0  0  -0.345553  -0.602253  0  2.103286  0
O  O67  1  0.76917145  0.45612629  0.29409979  1  0  -0.651333  0  1.847249  0  0  -0.61799  0  2.101921  0  0  -0.639453  0  2.099914  0  0  -0.345561  -0.60226  0  2.103264  0
O  O68  1  0.78785961  0.14195662  0.82502105  1  0  -0.662344  0  2.080343  0  0  -0.622496  0  2.321104  0  0  -0.645494  0  2.312775  0  0  -0.37335  -0.598328  0  2.327332  0
O  O69  1  0.21213446  0.85803458  0.17499141  1  0  -0.662242  0  2.080313  0  0  -0.622372  0  2.321051  0  0  -0.645368  0  2.312726  0  0  -0.373225  -0.5982  0  2.327272  0
O  O70  1  0.61761490  0.29289980  0.82508008  1  0  -0.678046  0  2.043602  0  0  -0.631755  0  2.290396  0  0  -0.655179  0  2.281616  0  0  -0.386058  -0.615702  0  2.296391  0
O  O71  1  0.38236774  0.70708209  0.17492390  1  0  -0.678091  0  2.043556  0  0  -0.631802  0  2.290355  0  0  -0.655227  0  2.281575  0  0  -0.386067  -0.615749  0  2.296352  0
O  O72  1  0.69955391  0.07723408  0.57699354  1  0  -0.6408  0  1.980825  0  0  -0.603102  0  2.210837  0  0  -0.623852  0  2.199637  0  0  -0.356523  -0.580834  0  2.21958  0
O  O73  1  0.30044223  0.92276010  0.42301563  1  0  -0.640707  0  1.98078  0  0  -0.603043  0  2.210732  0  0  -0.623794  0  2.199539  0  0  -0.356512  -0.580773  0  2.219469  0
O  O74  1  0.51898631  0.22002451  0.57906926  1  0  -0.681183  0  2.082214  0  0  -0.625717  0  2.318962  0  0  -0.649998  0  2.309095  0  0  -0.354668  -0.609669  0  2.326297  0
O  O75  1  0.48100179  0.77996117  0.42093484  1  0  -0.681123  0  2.08226  0  0  -0.625702  0  2.318964  0  0  -0.64998  0  2.309099  0  0  -0.354681  -0.609655  0  2.326298  0
O  O76  1  0.08550903  0.06651273  0.91032778  1  0  -0.703343  0  2.067015  0  0  -0.661589  0  2.312775  0  0  -0.683991  0  2.301763  0  0  -0.401026  -0.639319  0  2.320704  0
O  O77  1  0.91448940  0.93348881  0.08965920  1  0  -0.703418  0  2.066935  0  0  -0.661652  0  2.312677  0  0  -0.684052  0  2.301666  0  0  -0.401069  -0.639382  0  2.320604  0
O  O78  1  0.12837750  0.10265691  0.11571790  1  0  -0.681379  0  2.078282  0  0  -0.632915  0  2.312719  0  0  -0.658217  0  2.304693  0  0  -0.35513  -0.607305  0  2.318623  0
O  O79  1  0.87162564  0.89733926  0.88428271  1  0  -0.681547  0  2.078068  0  0  -0.633077  0  2.312514  0  0  -0.65838  0  2.30449  0  0  -0.355225  -0.607466  0  2.318415  0
O  O80  1  0.37367215  0.37897871  0.90820799  1  0  -0.711252  0  2.077811  0  0  -0.66534  0  2.328935  0  0  -0.687632  0  2.31886  0  0  -0.404191  -0.649483  0  2.335366  0
O  O81  1  0.62631272  0.62102713  0.09177808  1  0  -0.711278  0  2.077888  0  0  -0.665433  0  2.32892  0  0  -0.687719  0  2.318852  0  0  -0.404192  -0.649579  0  2.335353  0
O  O82  1  0.46748341  0.42536759  0.11301706  1  0  -0.662676  0  2.084522  0  0  -0.607364  0  2.323631  0  0  -0.630507  0  2.313025  0  0  -0.34895  -0.591398  0  2.331399  0
O  O83  1  0.53254013  0.57463639  0.88700297  1  0  -0.662499  0  2.08487  0  0  -0.607262  0  2.323851  0  0  -0.630398  0  2.313253  0  0  -0.348843  -0.591299  0  2.331615  0
O  O84  1  0.58791681  0.52303395  0.65702099  1  0  -0.65971  0  2.066139  0  0  -0.613167  0  2.312753  0  0  -0.635865  0  2.304051  0  0  -0.377375  -0.597275  0  2.318198  0
O  O85  1  0.41210528  0.47696875  0.34297346  1  0  -0.659654  0  2.066184  0  0  -0.613108  0  2.312806  0  0  -0.635796  0  2.304084  0  0  -0.377368  -0.597222  0  2.318271  0
O  O86  1  0.66134480  0.57367067  0.50394773  1  0  -0.65826  0  2.049551  0  0  -0.605804  0  2.286977  0  0  -0.628354  0  2.276676  0  0  -0.357872  -0.590301  0  2.293803  0
O  O87  1  0.33867093  0.42632570  0.49607092  1  0  -0.658114  0  2.049761  0  0  -0.605664  0  2.287207  0  0  -0.628215  0  2.276898  0  0  -0.357825  -0.59016  0  2.294037  0
O  O88  1  0.12945672  0.84932133  0.73101031  1  0  -0.905732  0  1.840613  0  0  -0.868224  0  2.011813  0  0  -0.886524  0  1.980973  0  0  -0.632068  -0.846724  0  2.037146  0
O  O89  1  0.87055301  0.15068056  0.26899018  1  0  -0.905576  0  1.840822  0  0  -0.868068  0  2.012108  0  0  -0.886374  0  1.98124  0  0  -0.632028  -0.846592  0  2.037387  0
O  O90  1  0.69591458  0.82810069  0.63850279  1  0  -0.90816  0  1.827614  0  0  -0.87229  0  2.003103  0  0  -0.888963  0  1.970232  0  0  -0.634027  -0.851326  0  2.029798  0
O  O91  1  0.30408665  0.17189844  0.36149891  1  0  -0.908103  0  1.827807  0  0  -0.872264  0  2.003233  0  0  -0.888939  0  1.970357  0  0  -0.634037  -0.851297  0  2.029927  0
O  O92  1  0.39489023  0.16665693  0.09381811  1  0  -0.852907  0  1.781376  0  0  -0.79864  0  1.92506  0  0  -0.817213  0  1.892113  0  0  -0.596998  -0.785633  0  1.948297  0
O  O93  1  0.60511697  0.83335174  0.90618846  1  0  -0.852876  0  1.781343  0  0  -0.798604  0  1.925063  0  0  -0.817171  0  1.892121  0  0  -0.596996  -0.785602  0  1.948292  0
O  O94  1  0.39088224  0.96400272  0.78049542  1  0  -0.865061  0  1.754736  0  0  -0.810275  0  1.909688  0  0  -0.828685  0  1.878103  0  0  -0.601997  -0.797417  0  1.930751  0
O  O95  1  0.60911969  0.03601111  0.21950687  1  0  -0.864979  0  1.754721  0  0  -0.810229  0  1.909678  0  0  -0.828634  0  1.878115  0  0  -0.602012  -0.797369  0  1.930738  0
