# generated using pymatgen
data_ZnH9C15S2(NO2)2
_symmetry_space_group_name_H-M   'P 1'
_cell_length_a   8.86226011
_cell_length_b   11.03997318
_cell_length_c   10.78562447
_cell_angle_alpha   90.76713575
_cell_angle_beta   105.43571969
_cell_angle_gamma   104.88038843
_symmetry_Int_Tables_number   1
_chemical_formula_structural   ZnH9C15S2(NO2)2
_chemical_formula_sum   'Zn2 H18 C30 S4 N4 O8'
_cell_volume   979.28868674
_cell_formula_units_Z   2
loop_
 _symmetry_equiv_pos_site_id
 _symmetry_equiv_pos_as_xyz
  1  'x, y, z'
loop_
 _atom_site_type_symbol
 _atom_site_label
 _atom_site_symmetry_multiplicity
 _atom_site_fract_x
 _atom_site_fract_y
 _atom_site_fract_z
 _atom_site_occupancy
 _atom_site_hle17_bader_spin_density
 _atom_site_hle17_ddec_charge
 _atom_site_hle17_ddec_spin_density
 _atom_site_hle17_ddec_sum_bond_order
 _atom_site_hle17_magmom
 _atom_site_hse06_10hf_bader_spin_density
 _atom_site_hse06_10hf_ddec_charge
 _atom_site_hse06_10hf_ddec_spin_density
 _atom_site_hse06_10hf_ddec_sum_bond_order
 _atom_site_hse06_10hf_magmom
 _atom_site_hse06_bader_spin_density
 _atom_site_hse06_ddec_charge
 _atom_site_hse06_ddec_spin_density
 _atom_site_hse06_ddec_sum_bond_order
 _atom_site_hse06_magmom
 _atom_site_pbe_bader_spin_density
 _atom_site_pbe_cm5_charge
 _atom_site_pbe_ddec_charge
 _atom_site_pbe_ddec_spin_density
 _atom_site_pbe_ddec_sum_bond_order
 _atom_site_pbe_magmom
Zn  Zn0  1  0.66759783  0.66896829  0.09894253  1  0  1.016536  0  1.871491  0  0  0.822606  0  2.358198  0  0  0.868428  0  2.303171  0  0  0.702102  0.790089  0  2.397497  0
Zn  Zn1  1  0.33240704  0.33104097  0.90105502  1  0  1.016547  0  1.871522  0  0  0.822574  0  2.358266  0  0  0.868407  0  2.303219  0  0  0.702046  0.790062  0  2.397574  0
H  H2  1  0.17777480  0.55012440  0.35109687  1  0  0.131686  0  0.918608  0  0  0.14426  0  0.969813  0  0  0.148101  0  0.968086  0  0  0.116338  0.141411  0  0.971294  0
H  H3  1  0.82221459  0.44987733  0.64889607  1  0  0.131649  0  0.918675  0  0  0.144208  0  0.969894  0  0  0.14805  0  0.968166  0  0  0.116304  0.141357  0  0.971376  0
H  H4  1  0.01665771  0.68500127  0.22611441  1  0  0.079109  0  0.932314  0  0  0.089726  0  0.993186  0  0  0.091596  0  0.991565  0  0  0.116649  0.087951  0  0.995268  0
H  H5  1  0.98332990  0.31499862  0.77387529  1  0  0.079132  0  0.932258  0  0  0.089718  0  0.993169  0  0  0.091587  0  0.991551  0  0  0.116652  0.087946  0  0.995252  0
H  H6  1  0.57863242  0.42418986  0.21002145  1  0  0.108135  0  0.935044  0  0  0.114645  0  0.996946  0  0  0.117703  0  0.993986  0  0  0.125394  0.112311  0  0.999209  0
H  H7  1  0.42136568  0.57582387  0.78998769  1  0  0.107906  0  0.935097  0  0  0.114583  0  0.996843  0  0  0.117641  0  0.993885  0  0  0.125344  0.112251  0  0.999105  0
H  H8  1  0.68093925  0.94614221  0.48410632  1  0  0.122097  0  0.920548  0  0  0.136548  0  0.968985  0  0  0.139985  0  0.968192  0  0  0.115858  0.134053  0  0.96977  0
H  H9  1  0.31905659  0.05386135  0.51589183  1  0  0.122076  0  0.920629  0  0  0.136532  0  0.969055  0  0  0.139967  0  0.968263  0  0  0.115846  0.134034  0  0.969837  0
H  H10  1  0.08650541  0.72686087  0.97103303  1  0  0.105999  0  0.937572  0  0  0.115409  0  0.998386  0  0  0.119822  0  0.995333  0  0  0.102394  0.112209  0  1.000697  0
H  H11  1  0.91349932  0.27314461  0.02896531  1  0  0.105944  0  0.937594  0  0  0.115378  0  0.998388  0  0  0.119796  0  0.995329  0  0  0.10236  0.112176  0  1.000699  0
H  H12  1  0.72090725  0.27950065  0.33610463  1  0  0.113407  0  0.959145  0  0  0.122999  0  1.01594  0  0  0.126649  0  1.014768  0  0  0.106218  0.120196  0  1.017334  0
H  H13  1  0.27907814  0.72049996  0.66389758  1  0  0.113479  0  0.959184  0  0  0.123061  0  1.015988  0  0  0.126713  0  1.014814  0  0  0.106224  0.120259  0  1.017381  0
H  H14  1  0.90694681  0.92550191  0.11695521  1  0  0.090143  0  0.908346  0  0  0.103415  0  0.959617  0  0  0.105785  0  0.957525  0  0  0.127193  0.101661  0  0.96119  0
H  H15  1  0.09306751  0.07448751  0.88305040  1  0  0.090145  0  0.908432  0  0  0.103427  0  0.959695  0  0  0.105797  0  0.957605  0  0  0.127178  0.101675  0  0.961269  0
H  H16  1  0.00957767  0.12442064  0.26455729  1  0  0.122382  0  0.954307  0  0  0.129827  0  1.014685  0  0  0.13345  0  1.013925  0  0  0.108476  0.127017  0  1.015802  0
H  H17  1  0.99042410  0.87556972  0.73544460  1  0  0.122468  0  0.954241  0  0  0.129909  0  1.014619  0  0  0.133541  0  1.013846  0  0  0.108476  0.1271  0  1.015737  0
H  H18  1  0.59137286  0.75776251  0.32608945  1  0  0.091784  0  0.912345  0  0  0.104402  0  0.96576  0  0  0.106538  0  0.963698  0  0  0.127845  0.102704  0  0.967558  0
H  H19  1  0.40862596  0.24223626  0.67391480  1  0  0.091842  0  0.912359  0  0  0.104445  0  0.965794  0  0  0.106581  0  0.963733  0  0  0.127852  0.102748  0  0.967588  0
C  C20  1  0.16431885  0.56716213  0.04244298  1  0  -0.068329  0  3.737232  0  0  -0.055316  0  3.973039  0  0  -0.060082  0  3.993464  0  0  -0.02137  -0.052167  0  3.95882  0
C  C21  1  0.83568731  0.43284061  0.95755097  1  0  -0.068479  0  3.737475  0  0  -0.055402  0  3.973231  0  0  -0.060174  0  3.993661  0  0  -0.021421  -0.052248  0  3.959002  0
C  C22  1  0.04549025  0.52038333  0.32401666  1  0  -0.149259  0  3.711947  0  0  -0.170953  0  3.969709  0  0  -0.179123  0  3.990341  0  0  -0.083122  -0.165534  0  3.955888  0
C  C23  1  0.95449945  0.47961931  0.67597822  1  0  -0.149083  0  3.711986  0  0  -0.170742  0  3.969699  0  0  -0.17891  0  3.990333  0  0  -0.083012  -0.165316  0  3.955871  0
C  C24  1  0.85351647  0.05063491  0.38663241  1  0  0.093957  0  3.787387  0  0  0.108203  0  4.047509  0  0  0.115514  0  4.068951  0  0  0.006643  0.10297  0  4.033394  0
C  C25  1  0.14648782  0.94936590  0.61336385  1  0  0.093959  0  3.787255  0  0  0.108227  0  4.047349  0  0  0.115529  0  4.068809  0  0  0.006602  0.102995  0  4.033233  0
C  C26  1  0.11898629  0.43808780  0.06026960  1  0  -0.074056  0  3.737239  0  0  -0.059407  0  3.974355  0  0  -0.061514  0  3.992448  0  0  -0.017264  -0.057945  0  3.961621  0
C  C27  1  0.88101606  0.56191765  0.93973006  1  0  -0.073999  0  3.737109  0  0  -0.059417  0  3.974223  0  0  -0.061522  0  3.99232  0  0  -0.017316  -0.057957  0  3.961479  0
C  C28  1  0.95577469  0.59481448  0.25349393  1  0  0.124766  0  3.754247  0  0  0.089901  0  4.017966  0  0  0.097074  0  4.037921  0  0  0.042663  0.084766  0  4.005492  0
C  C29  1  0.04421617  0.40518817  0.74650121  1  0  0.124707  0  3.754023  0  0  0.089847  0  4.017765  0  0  0.097019  0  4.037715  0  0  0.042591  0.084715  0  4.005292  0
C  C30  1  0.96138788  0.40417471  0.35516739  1  0  0.090078  0  3.763175  0  0  0.103155  0  4.024207  0  0  0.109675  0  4.045867  0  0  0.008673  0.098887  0  4.009862  0
C  C31  1  0.03860258  0.59582691  0.64483228  1  0  0.090079  0  3.763215  0  0  0.103152  0  4.024248  0  0  0.109669  0  4.045914  0  0  0.008681  0.098883  0  4.009903  0
C  C32  1  0.33812049  0.64453458  0.07994676  1  0  0.635181  0  3.937256  0  0  0.58811  0  4.231008  0  0  0.621041  0  4.224286  0  0  0.195093  0.565698  0  4.234778  0
C  C33  1  0.66188794  0.35546144  0.92005586  1  0  0.635065  0  3.937555  0  0  0.588003  0  4.231276  0  0  0.620932  0  4.224564  0  0  0.195058  0.565583  0  4.235032  0
C  C34  1  0.71112233  0.44906296  0.24378734  1  0  0.157395  0  3.658358  0  0  0.127014  0  3.906801  0  0  0.135889  0  3.922769  0  0  0.0564  0.120962  0  3.896108  0
C  C35  1  0.28887138  0.55094141  0.75621777  1  0  0.157624  0  3.658391  0  0  0.127102  0  3.906847  0  0  0.135975  0  3.922819  0  0  0.056413  0.121054  0  3.896154  0
C  C36  1  0.73432058  0.94589375  0.40400871  1  0  -0.169034  0  3.716604  0  0  -0.18693  0  3.9671  0  0  -0.195354  0  3.986482  0  0  -0.087404  -0.181296  0  3.954264  0
C  C37  1  0.26568333  0.05410606  0.59599114  1  0  -0.169007  0  3.716648  0  0  -0.186906  0  3.967142  0  0  -0.195324  0  3.986521  0  0  -0.087373  -0.181267  0  3.954299  0
C  C38  1  0.23689539  0.36695939  0.13068691  1  0  0.669119  0  3.911697  0  0  0.618492  0  4.217289  0  0  0.652106  0  4.208139  0  0  0.199148  0.595377  0  4.222822  0
C  C39  1  0.76310435  0.63304517  0.86930843  1  0  0.668919  0  3.911628  0  0  0.618387  0  4.217073  0  0  0.651996  0  4.207935  0  0  0.199182  0.59529  0  4.222582  0
C  C40  1  0.04563382  0.62684870  0.98322227  1  0  -0.104185  0  3.733148  0  0  -0.135272  0  3.986574  0  0  -0.136249  0  4.00507  0  0  -0.089421  -0.134352  0  3.973764  0
C  C41  1  0.95437174  0.37315583  0.01677716  1  0  -0.104053  0  3.733337  0  0  -0.13518  0  3.986722  0  0  -0.136161  0  4.005225  0  0  -0.089366  -0.134254  0  3.973895  0
C  C42  1  0.79149840  0.36864699  0.31424726  1  0  -0.164623  0  3.724357  0  0  -0.181585  0  3.968172  0  0  -0.190366  0  3.98942  0  0  -0.088074  -0.176017  0  3.954701  0
C  C43  1  0.20849549  0.63135455  0.68575874  1  0  -0.164743  0  3.724421  0  0  -0.181699  0  3.968285  0  0  -0.190483  0  3.989537  0  0  -0.088074  -0.176128  0  3.954817  0
C  C44  1  0.86068376  0.93484194  0.19977117  1  0  0.155177  0  3.692545  0  0  0.1251  0  3.939992  0  0  0.133638  0  3.957273  0  0  0.060586  0.119227  0  3.928575  0
C  C45  1  0.13932573  0.06515034  0.80023065  1  0  0.155074  0  3.692945  0  0  0.124948  0  3.940373  0  0  0.133485  0  3.957655  0  0  0.060509  0.119078  0  3.928957  0
C  C46  1  0.91686327  0.04508009  0.28153849  1  0  -0.172507  0  3.725355  0  0  -0.190343  0  3.971909  0  0  -0.199595  0  3.993655  0  0  -0.088814  -0.184255  0  3.957984  0
C  C47  1  0.08314221  0.95491409  0.71846063  1  0  -0.17253  0  3.725389  0  0  -0.190369  0  3.971931  0  0  -0.199628  0  3.993678  0  0  -0.088757  -0.184281  0  3.958011  0
C  C48  1  0.68481268  0.84044048  0.31695207  1  0  0.159617  0  3.707758  0  0  0.123396  0  3.968631  0  0  0.132884  0  3.983932  0  0  0.055515  0.116957  0  3.958767  0
C  C49  1  0.31519673  0.15955836  0.68305084  1  0  0.159584  0  3.70785  0  0  0.123322  0  3.968724  0  0  0.13281  0  3.984024  0  0  0.055451  0.116886  0  3.958856  0
S  S50  1  0.91661834  0.17919172  0.50477614  1  0  -0.002535  0  2.499017  0  0  -0.008011  0  2.856512  0  0  -0.012849  0  2.858636  0  0  0.055714  -0.003495  0  2.856307  0
S  S51  1  0.08337313  0.82080913  0.49521353  1  0  -0.00253  0  2.499007  0  0  -0.008004  0  2.856486  0  0  -0.012839  0  2.858617  0  0  0.055776  -0.003485  0  2.856272  0
S  S52  1  0.08077843  0.31182424  0.44405949  1  0  0.08332  0  2.468939  0  0  0.08003  0  2.825656  0  0  0.078338  0  2.825832  0  0  0.087045  0.081648  0  2.826354  0
S  S53  1  0.91921726  0.68817553  0.55594037  1  0  0.083295  0  2.468975  0  0  0.080004  0  2.825701  0  0  0.07831  0  2.82588  0  0  0.087017  0.081622  0  2.826397  0
N  N54  1  0.79196684  0.56034535  0.21325686  1  0  -0.361061  0  3.353308  0  0  -0.281023  0  3.643233  0  0  -0.301502  0  3.659314  0  0  -0.341056  -0.267283  0  3.633366  0
N  N55  1  0.20803098  0.43965723  0.78674448  1  0  -0.361113  0  3.353056  0  0  -0.281076  0  3.643069  0  0  -0.301548  0  3.659136  0  0  -0.341027  -0.267343  0  3.633221  0
N  N56  1  0.74747193  0.83400727  0.21681917  1  0  -0.341455  0  3.317379  0  0  -0.261782  0  3.602986  0  0  -0.280533  0  3.615111  0  0  -0.331893  -0.24898  0  3.595893  0
N  N57  1  0.25253751  0.16598496  0.78318542  1  0  -0.341484  0  3.317414  0  0  -0.261686  0  3.602874  0  0  -0.280447  0  3.615027  0  0  -0.331774  -0.248883  0  3.595781  0
O  O58  1  0.27725784  0.28993876  0.06055194  1  0  -0.678667  0  2.012971  0  0  -0.606463  0  2.289635  0  0  -0.634703  0  2.269616  0  0  -0.359458  -0.586058  0  2.302672  0
O  O59  1  0.72274919  0.71006668  0.93944970  1  0  -0.678621  0  2.013055  0  0  -0.606462  0  2.28968  0  0  -0.634698  0  2.269659  0  0  -0.359498  -0.58606  0  2.302708  0
O  O60  1  0.27956888  0.37714312  0.25069510  1  0  -0.598764  0  1.881568  0  0  -0.563189  0  2.097141  0  0  -0.5857  0  2.088785  0  0  -0.333834  -0.546951  0  2.102337  0
O  O61  1  0.72041586  0.62285199  0.74929846  1  0  -0.598603  0  1.881416  0  0  -0.563067  0  2.096962  0  0  -0.58557  0  2.088597  0  0  -0.333785  -0.546831  0  2.102147  0
O  O62  1  0.44206431  0.57888434  0.08118691  1  0  -0.662455  0  2.086501  0  0  -0.58133  0  2.367661  0  0  -0.611106  0  2.352168  0  0  -0.332964  -0.560174  0  2.377535  0
O  O63  1  0.55793695  0.42110731  0.91879358  1  0  -0.662276  0  2.086598  0  0  -0.581225  0  2.367862  0  0  -0.610972  0  2.35232  0  0  -0.332891  -0.560123  0  2.377874  0
O  O64  1  0.37285133  0.76059095  0.10310182  1  0  -0.60299  0  1.870238  0  0  -0.565639  0  2.069226  0  0  -0.585556  0  2.060784  0  0  -0.341254  -0.551588  0  2.074684  0
O  O65  1  0.62716031  0.23940171  0.89693388  1  0  -0.602939  0  1.870251  0  0  -0.56559  0  2.069239  0  0  -0.585511  0  2.060801  0  0  -0.341285  -0.551537  0  2.0747  0
