# generated using pymatgen
data_Zn3H5C22NO14
_symmetry_space_group_name_H-M   'P 1'
_cell_length_a   18.52719140
_cell_length_b   18.53946281
_cell_length_c   32.12838359
_cell_angle_alpha   89.99925581
_cell_angle_beta   90.00041595
_cell_angle_gamma   90.00094607
_symmetry_Int_Tables_number   1
_chemical_formula_structural   Zn3H5C22NO14
_chemical_formula_sum   'Zn12 H20 C88 N4 O56'
_cell_volume   11035.59135912
_cell_formula_units_Z   4
loop_
 _symmetry_equiv_pos_site_id
 _symmetry_equiv_pos_as_xyz
  1  'x, y, z'
loop_
 _atom_site_type_symbol
 _atom_site_label
 _atom_site_symmetry_multiplicity
 _atom_site_fract_x
 _atom_site_fract_y
 _atom_site_fract_z
 _atom_site_occupancy
 _atom_site_pbe_bader_charge
 _atom_site_pbe_bader_spin_density
 _atom_site_pbe_cm5_charge
 _atom_site_pbe_ddec_charge
 _atom_site_pbe_ddec_spin_density
 _atom_site_pbe_ddec_sum_bond_order
 _atom_site_pbe_magmom
Zn  Zn0  1  0.57001606  0.50000138  0.00000000  1  1.305068  0  0.745037  0.980757  0  2.051255  0
Zn  Zn1  1  0.07001538  0.00000056  0.50000102  1  1.305182  0  0.745009  0.980723  0  2.051229  0
Zn  Zn2  1  0.42972334  0.49999969  0.00000033  1  1.330165  0  0.746875  0.982285  0  2.051892  0
Zn  Zn3  1  0.92972330  0.99999940  0.50000075  1  1.330221  0  0.746818  0.98225  0  2.051907  0
Zn  Zn4  1  0.49992381  0.42989520  0.50000570  1  1.303242  0  0.746235  0.981326  0  2.057042  0
Zn  Zn5  1  0.49992443  0.57010530  0.49999483  1  1.328811  0  0.746212  0.981292  0  2.057064  0
Zn  Zn6  1  0.99992431  0.92989491  0.99999461  1  1.303218  0  0.746245  0.981303  0  2.057075  0
Zn  Zn7  1  0.99992494  0.07010520  0.00000553  1  1.328781  0  0.746224  0.981332  0  2.057071  0
Zn  Zn8  1  0.50020253  0.99999980  0.04054350  1  1.320481  0  0.750622  0.984551  0  2.048532  0
Zn  Zn9  1  0.50020166  0.00000070  0.95945672  1  1.294813  0  0.750585  0.984485  0  2.04859  0
Zn  Zn10  1  0.00020185  0.50000005  0.54054359  1  1.320501  0  0.750624  0.984551  0  2.048462  0
Zn  Zn11  1  0.00020188  0.50000030  0.45945672  1  1.294811  0  0.750579  0.984476  0  2.048566  0
H  H12  1  0.44329685  0.38819502  0.22457142  1  0.119364  0  0.120188  0.123145  0  0.961237  0
H  H13  1  0.42635126  0.39844439  0.77539115  1  0.112602  0  0.120128  0.122874  0  0.961133  0
H  H14  1  0.42603966  0.60135262  0.22460596  1  0.111935  0  0.120119  0.123073  0  0.961291  0
H  H15  1  0.44297940  0.61164542  0.77542919  1  0.121211  0  0.12032  0.123443  0  0.96157  0
H  H16  1  0.92684270  0.89809402  0.72461005  1  0.116601  0  0.120183  0.123312  0  0.961306  0
H  H17  1  0.94294477  0.88837063  0.27543005  1  0.121449  0  0.120319  0.123395  0  0.961833  0
H  H18  1  0.94244406  0.11136531  0.72457670  1  0.117066  0  0.120197  0.123396  0  0.961712  0
H  H19  1  0.92638206  0.10157531  0.27539071  1  0.112133  0  0.120099  0.122826  0  0.961197  0
H  H20  1  0.56851159  0.39690293  0.27570712  1  0.094919  0  0.11369  0.107445  0  0.972034  0
H  H21  1  0.55146587  0.38735121  0.72434750  1  0.109781  0  0.113947  0.108227  0  0.971208  0
H  H22  1  0.55112973  0.61280386  0.27564734  1  0.118828  0  0.114051  0.108419  0  0.971046  0
H  H23  1  0.56821818  0.60330906  0.72428934  1  0.109383  0  0.113827  0.107674  0  0.971815  0
H  H24  1  0.05201147  0.88759140  0.77565596  1  0.109263  0  0.113758  0.107716  0  0.971164  0
H  H25  1  0.06818862  0.89667214  0.22429022  1  0.109766  0  0.113879  0.10771  0  0.971692  0
H  H26  1  0.06773700  0.10363839  0.77570944  1  0.100398  0  0.113724  0.107552  0  0.97208  0
H  H27  1  0.05149855  0.11263473  0.22434674  1  0.110117  0  0.113919  0.108243  0  0.971037  0
H  H28  1  0.62310601  0.50991901  0.22468240  1  0.104204  0  0.111716  0.103764  0  0.976201  0
H  H29  1  0.62314656  0.49044868  0.77531554  1  0.104349  0  0.111594  0.103606  0  0.976272  0
H  H30  1  0.12319603  0.99103076  0.72468392  1  0.104288  0  0.111566  0.103834  0  0.975457  0
H  H31  1  0.12314730  0.00951964  0.27531566  1  0.104426  0  0.111645  0.103688  0  0.976088  0
C  C32  1  0.49995175  0.36036188  0.99999972  1  1.666542  0  0.231822  0.662586  0  4.238504  0
C  C33  1  0.49995155  0.63963862  0.00000020  1  1.666988  0  0.231805  0.662573  0  4.23863  0
C  C34  1  0.99995351  0.86036163  0.49999994  1  1.667003  0  0.231906  0.662701  0  4.238426  0
C  C35  1  0.99995187  0.13963848  0.50000020  1  1.666995  0  0.231816  0.662544  0  4.23864  0
C  C36  1  0.49988235  0.49994177  0.08044243  1  1.568002  0  0.227441  0.676275  0  4.224677  0
C  C37  1  0.49988008  0.50005549  0.91955654  1  1.568686  0  0.227407  0.676231  0  4.22484  0
C  C38  1  0.99987998  0.00005005  0.58044493  1  1.568737  0  0.227498  0.676504  0  4.224471  0
C  C39  1  0.99988022  0.99994466  0.41955739  1  1.568708  0  0.227418  0.676282  0  4.224755  0
C  C40  1  0.53788771  0.44290844  0.26387931  1  -0.015655  0  -0.060928  -0.067561  0  3.612753  0
C  C41  1  0.52843211  0.43761935  0.73612218  1  -0.038768  0  -0.061476  -0.068727  0  3.613273  0
C  C42  1  0.52824342  0.56246846  0.26386913  1  -0.051939  0  -0.061693  -0.069551  0  3.614337  0
C  C43  1  0.53773672  0.55720973  0.73611796  1  -0.027527  0  -0.061284  -0.067518  0  3.611916  0
C  C44  1  0.02874763  0.93775351  0.76387640  1  -0.039378  0  -0.061289  -0.067515  0  3.61268  0
C  C45  1  0.03771872  0.94277775  0.23611720  1  -0.027595  0  -0.061233  -0.06736  0  3.611574  0
C  C46  1  0.03747507  0.05739312  0.76388607  1  -0.019044  0  -0.060782  -0.067145  0  3.611986  0
C  C47  1  0.02845046  0.06236921  0.23612185  1  -0.038482  0  -0.061627  -0.068856  0  3.613238  0
C  C48  1  0.46902223  0.43738317  0.23598205  1  -0.042904  0  -0.053654  -0.102354  0  3.586277  0
C  C49  1  0.45954763  0.44297681  0.76401853  1  -0.011492  0  -0.054022  -0.099141  0  3.588809  0
C  C50  1  0.45936390  0.55691136  0.23597872  1  -0.012565  0  -0.053943  -0.102303  0  3.586901  0
C  C51  1  0.46886142  0.56253807  0.76401867  1  -0.045294  0  -0.053448  -0.099649  0  3.589063  0
C  C52  1  0.95982440  0.94277940  0.73598492  1  -0.01174  0  -0.054105  -0.100143  0  3.589693  0
C  C53  1  0.96884218  0.93746839  0.26401849  1  -0.046065  0  -0.053502  -0.099792  0  3.589508  0
C  C54  1  0.96856318  0.06238449  0.73598961  1  -0.040769  0  -0.053845  -0.100061  0  3.589896  0
C  C55  1  0.95956528  0.05703395  0.26401785  1  -0.010674  0  -0.053914  -0.099035  0  3.588881  0
C  C56  1  0.49949671  0.49984424  0.12518854  1  0.366658  0  -0.044541  -0.185104  0  3.975367  0
C  C57  1  0.49949549  0.50014924  0.87481013  1  0.366761  0  -0.044554  -0.185055  0  3.975258  0
C  C58  1  0.99949704  0.00013753  0.62519290  1  0.366963  0  -0.044555  -0.184962  0  3.975469  0
C  C59  1  0.99949563  0.99984909  0.37481035  1  0.36677  0  -0.044538  -0.185062  0  3.975011  0
C  C60  1  0.50124383  0.49999824  0.37504643  1  0.34885  0  -0.040755  -0.175122  0  3.968267  0
C  C61  1  0.50124324  0.50000659  0.62495256  1  0.348675  0  -0.040716  -0.175035  0  3.968228  0
C  C62  1  0.00124531  0.00000820  0.87504683  1  0.348901  0  -0.040733  -0.175135  0  3.968375  0
C  C63  1  0.00124292  0.99999325  0.12495255  1  0.348643  0  -0.040757  -0.175094  0  3.968352  0
C  C64  1  0.56781650  0.50546740  0.23621914  1  -0.039088  0  -0.064655  -0.07529  0  3.612405  0
C  C65  1  0.56784132  0.49473541  0.76378105  1  -0.043007  0  -0.064648  -0.075154  0  3.611912  0
C  C66  1  0.06787582  0.99505889  0.73622281  1  -0.042812  0  -0.064536  -0.07569  0  3.612021  0
C  C67  1  0.06784253  0.00524463  0.26378059  1  -0.042941  0  -0.064686  -0.0752  0  3.611819  0
C  C68  1  0.49891322  0.49996480  0.20711454  1  0.117285  0  0.014373  0.128005  0  3.795572  0
C  C69  1  0.49892878  0.50003946  0.79288444  1  0.116628  0  0.01454  0.128476  0  3.794741  0
C  C70  1  0.99893783  0.00003208  0.70711921  1  0.119822  0  0.014367  0.128395  0  3.794547  0
C  C71  1  0.99892839  0.99995938  0.29288435  1  0.117154  0  0.014466  0.128373  0  3.794597  0
C  C72  1  0.49912481  0.49999093  0.29320166  1  0.139539  0  0.015525  0.091549  0  3.78873  0
C  C73  1  0.49913604  0.50001657  0.70679576  1  0.138467  0  0.015657  0.093904  0  3.791422  0
C  C74  1  0.99915050  0.00001075  0.79320602  1  0.137848  0  0.015603  0.093992  0  3.790261  0
C  C75  1  0.99913511  0.99998287  0.20679505  1  0.138106  0  0.015714  0.093996  0  3.791242  0
C  C76  1  0.43080499  0.49445058  0.26406811  1  0.282514  0  0.098405  0.070909  0  3.588227  0
C  C77  1  0.43080481  0.50536647  0.73593494  1  0.280657  0  0.098527  0.057627  0  3.610197  0
C  C78  1  0.93079569  0.00501331  0.76406931  1  0.276125  0  0.098621  0.057918  0  3.609814  0
C  C79  1  0.93080379  0.99465393  0.23593490  1  0.279242  0  0.098592  0.05772  0  3.610564  0
C  C80  1  0.49856103  0.49979855  0.16309614  1  -0.545168  0  -0.020332  -0.03247  0  4.064823  0
C  C81  1  0.49857013  0.50019761  0.83690159  1  -0.545189  0  -0.020426  -0.032661  0  4.064816  0
C  C82  1  0.99857323  0.00018731  0.66309832  1  -0.545332  0  -0.020406  -0.03277  0  4.064993  0
C  C83  1  0.99856973  0.99980036  0.33690181  1  -0.545173  0  -0.020435  -0.032621  0  4.064586  0
C  C84  1  0.49945757  0.49990528  0.33718800  1  -0.520155  0  -0.022708  -0.029891  0  4.085636  0
C  C85  1  0.49945584  0.50009952  0.66281035  1  -0.520056  0  -0.022823  -0.029834  0  4.085463  0
C  C86  1  0.99946059  0.00008961  0.83719236  1  -0.520202  0  -0.02287  -0.029911  0  4.085691  0
C  C87  1  0.99945490  0.99990132  0.16280965  1  -0.520011  0  -0.022803  -0.029853  0  4.085592  0
C  C88  1  0.50001714  0.28266118  0.00000016  1  -0.194191  0  -0.008306  -0.091934  0  3.89859  0
C  C89  1  0.50001732  0.71733716  0.99999944  1  -0.19411  0  -0.008221  -0.091835  0  3.898081  0
C  C90  1  0.00001934  0.78266397  0.49999880  1  -0.194141  0  -0.008159  -0.091697  0  3.897991  0
C  C91  1  0.00001898  0.21733638  0.50000120  1  -0.194147  0  -0.008184  -0.091733  0  3.898054  0
C  C92  1  0.49998530  0.21709347  0.00000044  1  0.036943  0  -0.009707  -0.096323  0  3.901566  0
C  C93  1  0.49998277  0.78290972  0.99999854  1  0.03698  0  -0.009831  -0.096502  0  3.901051  0
C  C94  1  0.99998525  0.71709103  0.49999775  1  0.036995  0  -0.009841  -0.096582  0  3.901095  0
C  C95  1  0.99998436  0.28290908  0.50000239  1  0.037003  0  -0.009841  -0.096546  0  3.90112  0
C  C96  1  0.63980528  0.49999924  0.50000040  1  1.674726  0  0.231268  0.661719  0  4.242669  0
C  C97  1  0.13980550  0.99999938  0.00000040  1  1.674714  0  0.231225  0.661706  0  4.242539  0
C  C98  1  0.50078371  0.50001884  0.41973028  1  1.550947  0  0.22891  0.678531  0  4.218882  0
C  C99  1  0.50078418  0.49998545  0.58026932  1  1.550876  0  0.228955  0.678491  0  4.218643  0
C  C100  1  0.00078482  0.99998711  0.91973172  1  1.550837  0  0.22901  0.678649  0  4.218312  0
C  C101  1  0.00078422  0.00001487  0.08026921  1  1.550825  0  0.22894  0.678518  0  4.218586  0
C  C102  1  0.36031716  0.49999964  0.50000044  1  1.671202  0  0.234407  0.666099  0  4.233878  0
C  C103  1  0.86031748  0.00000058  0.99999982  1  1.671081  0  0.234382  0.666098  0  4.233964  0
C  C104  1  0.36084404  0.00000078  0.99999971  1  1.646882  0  0.232082  0.665234  0  4.234223  0
C  C105  1  0.86084418  0.49999999  0.50000056  1  1.646892  0  0.232112  0.665314  0  4.234102  0
C  C106  1  0.49995011  0.13943373  0.00000450  1  1.653768  0  0.23215  0.663974  0  4.237726  0
C  C107  1  0.49994887  0.86056731  0.99999510  1  1.653687  0  0.232192  0.664134  0  4.237615  0
C  C108  1  0.99995007  0.63943344  0.49999496  1  1.653696  0  0.232101  0.664001  0  4.23774  0
C  C109  1  0.99994938  0.36056667  0.50000549  1  1.6537  0  0.232141  0.663972  0  4.23774  0
C  C110  1  0.63931709  0.00000095  0.00000009  1  1.649692  0  0.231147  0.66237  0  4.23885  0
C  C111  1  0.13931658  0.49999997  0.49999998  1  1.649748  0  0.231146  0.662469  0  4.238696  0
C  C112  1  0.71757584  0.49999988  0.50000026  1  -0.183641  0  -0.008366  -0.089803  0  3.899658  0
C  C113  1  0.21757588  0.00000071  0.00000014  1  -0.183636  0  -0.00833  -0.089729  0  3.899547  0
C  C114  1  0.28318646  0.99999783  0.99999997  1  0.027984  0  -0.012047  -0.101345  0  3.905975  0
C  C115  1  0.78318643  0.49999989  0.49999884  1  0.027997  0  -0.012038  -0.101308  0  3.905988  0
C  C116  1  0.28255901  0.49999900  0.50000059  1  -0.183563  0  -0.003978  -0.085585  0  3.88887  0
C  C117  1  0.78255970  0.99999982  0.00000019  1  -0.183587  0  -0.003966  -0.085599  0  3.888788  0
C  C118  1  0.71695558  0.99999982  0.00000036  1  0.034081  0  -0.008325  -0.095874  0  3.898867  0
C  C119  1  0.21695490  0.49999900  0.50000014  1  0.034056  0  -0.008335  -0.095936  0  3.898947  0
N  N120  1  0.35486529  0.48828244  0.27719998  1  0.41641  0  0.056737  0.506144  0  4.232129  0
N  N121  1  0.35484669  0.51130142  0.72279995  1  0.415534  0  0.056605  0.509275  0  4.233444  0
N  N122  1  0.85480912  0.01059794  0.77719989  1  0.390664  0  0.057111  0.509791  0  4.232415  0
N  N123  1  0.85484179  0.98874280  0.22280058  1  0.416075  0  0.05641  0.509058  0  4.233622  0
O  O124  1  0.56173579  0.39082012  0.99999754  1  -1.123582  0  -0.303974  -0.534581  0  2.220828  0
O  O125  1  0.56173454  0.60918247  0.00000263  1  -1.123334  0  -0.303935  -0.534535  0  2.220936  0
O  O126  1  0.06173709  0.89081972  0.50000220  1  -1.123658  0  -0.304035  -0.534667  0  2.220813  0
O  O127  1  0.06173548  0.10918111  0.49999836  1  -1.123585  0  -0.303965  -0.534548  0  2.220894  0
O  O128  1  0.43813386  0.39069508  0.00000393  1  -1.124801  0  -0.303604  -0.534431  0  2.219986  0
O  O129  1  0.43813332  0.60930548  0.99999666  1  -1.125293  0  -0.303581  -0.534425  0  2.219933  0
O  O130  1  0.93813598  0.89069425  0.49999688  1  -1.125268  0  -0.303602  -0.534462  0  2.219973  0
O  O131  1  0.93813383  0.10930538  0.50000300  1  -1.125268  0  -0.303569  -0.534388  0  2.220003  0
O  O132  1  0.56169031  0.49996241  0.06263868  1  -1.130323  0  -0.309543  -0.543079  0  2.222107  0
O  O133  1  0.56168880  0.50003695  0.93736056  1  -1.13089  0  -0.309509  -0.543032  0  2.222171  0
O  O134  1  0.06168801  0.00003332  0.56264064  1  -1.130806  0  -0.309557  -0.543143  0  2.221994  0
O  O135  1  0.06168902  0.99996427  0.43736087  1  -1.130904  0  -0.309543  -0.543062  0  2.222097  0
O  O136  1  0.43822637  0.50000832  0.06246039  1  -1.126975  0  -0.308544  -0.540831  0  2.226136  0
O  O137  1  0.43822594  0.49999170  0.93753989  1  -1.127018  0  -0.308573  -0.540879  0  2.226209  0
O  O138  1  0.93822525  0.99999077  0.56246205  1  -1.127058  0  -0.308514  -0.540942  0  2.226116  0
O  O139  1  0.93822645  0.00000778  0.43754032  1  -1.127028  0  -0.308558  -0.54091  0  2.226254  0
O  O140  1  0.60947044  0.43823129  0.50001585  1  -1.125052  0  -0.304255  -0.535515  0  2.221133  0
O  O141  1  0.60947092  0.56176562  0.49998483  1  -1.124915  0  -0.304186  -0.535449  0  2.221158  0
O  O142  1  0.10947101  0.93823247  0.99998524  1  -1.125023  0  -0.304233  -0.535495  0  2.221119  0
O  O143  1  0.10947096  0.06176645  0.00001491  1  -1.124923  0  -0.304215  -0.535514  0  2.221056  0
O  O144  1  0.50057497  0.43832270  0.43761379  1  -1.124219  0  -0.308494  -0.541538  0  2.225878  0
O  O145  1  0.50051584  0.43826862  0.56240470  1  -1.123957  0  -0.308911  -0.542206  0  2.22569  0
O  O146  1  0.50051392  0.56173512  0.43759491  1  -1.12387  0  -0.308888  -0.542285  0  2.225929  0
O  O147  1  0.50057407  0.56168104  0.56238581  1  -1.124138  0  -0.308498  -0.541516  0  2.225812  0
O  O148  1  0.00051886  0.93826994  0.93759625  1  -1.123895  0  -0.308891  -0.542206  0  2.225685  0
O  O149  1  0.00057543  0.93832000  0.06238571  1  -1.1243  0  -0.308472  -0.541489  0  2.22575  0
O  O150  1  0.00057260  0.06168305  0.93761491  1  -1.124125  0  -0.30856  -0.541652  0  2.225688  0
O  O151  1  0.00051582  0.06173150  0.06240406  1  -1.123724  0  -0.308929  -0.54225  0  2.225711  0
O  O152  1  0.39070981  0.43824190  0.50001291  1  -1.122716  0  -0.303408  -0.534925  0  2.220038  0
O  O153  1  0.39071029  0.56175788  0.49998810  1  -1.122699  0  -0.303363  -0.534846  0  2.220103  0
O  O154  1  0.89071031  0.93824268  0.99998750  1  -1.122615  0  -0.303384  -0.534901  0  2.21999  0
O  O155  1  0.89071080  0.06175940  0.00001187  1  -1.122703  0  -0.303389  -0.534907  0  2.220239  0
O  O156  1  0.39141087  0.00000288  0.03563069  1  -1.123571  0  -0.303859  -0.535488  0  2.224975  0
O  O157  1  0.39141042  0.99999853  0.96436939  1  -1.123615  0  -0.303861  -0.53549  0  2.224987  0
O  O158  1  0.89141083  0.49999665  0.53563142  1  -1.123648  0  -0.303908  -0.535563  0  2.224923  0
O  O159  1  0.89141092  0.50000274  0.46436982  1  -1.123556  0  -0.30384  -0.5355  0  2.225019  0
O  O160  1  0.49992579  0.10892225  0.03563481  1  -1.120798  0  -0.303721  -0.535492  0  2.223707  0
O  O161  1  0.49991760  0.10891643  0.96437714  1  -1.120364  0  -0.303509  -0.535209  0  2.22382  0
O  O162  1  0.49991715  0.89108461  0.03562308  1  -1.120364  0  -0.303545  -0.535282  0  2.223781  0
O  O163  1  0.49992461  0.89107879  0.96436573  1  -1.12079  0  -0.30372  -0.535544  0  2.223746  0
O  O164  1  0.99991711  0.60891602  0.53562278  1  -1.120335  0  -0.303487  -0.535187  0  2.223797  0
O  O165  1  0.99992530  0.60892265  0.46436523  1  -1.120826  0  -0.303704  -0.535505  0  2.223711  0
O  O166  1  0.99992395  0.39107692  0.53563522  1  -1.120849  0  -0.303757  -0.535544  0  2.223714  0
O  O167  1  0.99991702  0.39108462  0.46437736  1  -1.120303  0  -0.303469  -0.535125  0  2.223773  0
O  O168  1  0.60872066  0.00002085  0.03562647  1  -1.119862  0  -0.301424  -0.532212  0  2.227567  0
O  O169  1  0.60872020  0.99998198  0.96437390  1  -1.119952  0  -0.301457  -0.532175  0  2.227585  0
O  O170  1  0.10872015  0.49997942  0.53562573  1  -1.119939  0  -0.301448  -0.532238  0  2.227524  0
O  O171  1  0.10872024  0.50002111  0.46437378  1  -1.119945  0  -0.30147  -0.532248  0  2.227536  0
O  O172  1  0.31028790  0.48459940  0.24843842  1  -0.462592  0  -0.145357  -0.342405  0  1.841084  0
O  O173  1  0.34115648  0.48724417  0.31485171  1  -0.436389  0  -0.126241  -0.316789  0  1.868741  0
O  O174  1  0.31025515  0.51485103  0.75155977  1  -0.462501  0  -0.145718  -0.342523  0  1.839977  0
O  O175  1  0.34112663  0.51229091  0.68514910  1  -0.436186  0  -0.126014  -0.316169  0  1.867944  0
O  O176  1  0.81019724  0.01388597  0.74844047  1  -0.438971  0  -0.145571  -0.34226  0  1.839272  0
O  O177  1  0.84109925  0.01159695  0.81485285  1  -0.435696  0  -0.126494  -0.316781  0  1.868045  0
O  O178  1  0.81024857  0.98521616  0.25156105  1  -0.462684  0  -0.14548  -0.342184  0  1.839884  0
O  O179  1  0.84112225  0.98774734  0.18514942  1  -0.436196  0  -0.126029  -0.316306  0  1.868006  0
