# generated using pymatgen
data_CuH9C17N3O4
_symmetry_space_group_name_H-M   'P 1'
_cell_length_a   17.82274078
_cell_length_b   22.77853120
_cell_length_c   22.77833874
_cell_angle_alpha   64.65602723
_cell_angle_beta   66.95117207
_cell_angle_gamma   66.95164798
_symmetry_Int_Tables_number   1
_chemical_formula_structural   CuH9C17N3O4
_chemical_formula_sum   'Cu8 H72 C136 N24 O32'
_cell_volume   7406.24660347
_cell_formula_units_Z   8
loop_
 _symmetry_equiv_pos_site_id
 _symmetry_equiv_pos_as_xyz
  1  'x, y, z'
loop_
 _atom_site_type_symbol
 _atom_site_label
 _atom_site_symmetry_multiplicity
 _atom_site_fract_x
 _atom_site_fract_y
 _atom_site_fract_z
 _atom_site_occupancy
 _atom_site_pbe_bader_charge
 _atom_site_pbe_bader_spin_density
 _atom_site_pbe_cm5_charge
 _atom_site_pbe_ddec_charge
 _atom_site_pbe_ddec_spin_density
 _atom_site_pbe_ddec_sum_bond_order
 _atom_site_pbe_magmom
Cu  Cu0  1  0.45023614  0.36016118  0.71288307  1  1.082523  0.597891  0.695939  0.770241  0.921918  2.407786  0.598
Cu  Cu1  1  0.02332370  0.13982452  0.78717368  1  1.080666  0.597927  0.69569  0.769614  0.923715  2.407402  0.598
Cu  Cu2  1  0.54975755  0.28713773  0.63985295  1  1.081036  0.597844  0.695968  0.76986  0.921954  2.407676  0.598
Cu  Cu3  1  0.97668347  0.21283800  0.86016791  1  1.082008  0.597989  0.695654  0.769625  0.92373  2.40674  0.598
Cu  Cu4  1  0.54974483  0.63985294  0.28714855  1  1.082622  0.597897  0.695952  0.769761  0.921986  2.408265  0.598
Cu  Cu5  1  0.97666622  0.86018650  0.21284161  1  1.080247  0.597655  0.695094  0.769185  0.923195  2.404944  0.598
Cu  Cu6  1  0.45026396  0.71284094  0.36015957  1  1.080976  0.597822  0.696091  0.770315  0.921976  2.408283  0.598
Cu  Cu7  1  0.02335635  0.78714953  0.13979171  1  1.082236  0.597747  0.695215  0.769466  0.923169  2.405089  0.598
H  H8  1  0.65008555  0.02862297  0.02859731  1  0.060703  0.000416  0.104293  0.107661  0.000166  1.008135  0.0
H  H9  1  0.20733229  0.47141634  0.47143101  1  0.083105  0.000414  0.104684  0.108757  0.000166  1.006296  0.0
H  H10  1  0.34993580  0.97140152  0.97138232  1  0.060328  0.000415  0.104256  0.107611  0.000166  1.008108  0.0
H  H11  1  0.79270108  0.52853595  0.52855589  1  0.083  0.000413  0.104743  0.108759  0.000165  1.006485  0.0
H  H12  1  0.94346041  0.00970326  0.00969996  1  0.052017  0.000307  0.106206  0.110345  1.8e-05  1.026088  0.0
H  H13  1  0.46304799  0.49020099  0.49024968  1  0.034703  0.000323  0.105493  0.109188  2e-05  1.026426  0.0
H  H14  1  0.05656792  0.99029497  0.99028008  1  0.052942  0.000308  0.106233  0.110355  1.7e-05  1.026152  0.0
H  H15  1  0.53692843  0.50977595  0.50982572  1  0.035023  0.000323  0.105657  0.109357  1.9e-05  1.026366  0.0
H  H16  1  0.52548660  0.24056065  0.89645710  1  0.096502  0.00043  0.107672  0.114515  0.000382  0.990814  0.0
H  H17  1  0.16265146  0.25946815  0.60357655  1  0.087909  0.000431  0.107881  0.11527  0.00038  0.99142  0.0
H  H18  1  0.47452348  0.10355804  0.75942860  1  0.096417  0.000429  0.107693  0.114509  0.000382  0.991  0.0
H  H19  1  0.83736435  0.39641965  0.74052676  1  0.088164  0.00043  0.107939  0.115321  0.00038  0.991362  0.0
H  H20  1  0.47450780  0.75944419  0.10353094  1  0.09676  0.00043  0.107677  0.114442  0.000382  0.990918  0.0
H  H21  1  0.83731051  0.74054434  0.39642868  1  0.087908  0.00043  0.107844  0.115129  0.000381  0.991283  0.0
H  H22  1  0.52548102  0.89649119  0.24054859  1  0.09673  0.00043  0.107596  0.11435  0.000382  0.991035  0.0
H  H23  1  0.16269421  0.60356846  0.25945100  1  0.087981  0.00043  0.107896  0.115245  0.000381  0.991274  0.0
H  H24  1  0.59721799  0.16026140  0.98705878  1  0.05682  0.000281  0.102102  0.102112  0.000159  0.999043  0.0
H  H25  1  0.24466112  0.33977834  0.51298701  1  0.052728  0.000284  0.101855  0.102059  0.000159  0.999178  0.0
H  H26  1  0.40281806  0.01294100  0.83973118  1  0.056766  0.000281  0.102125  0.102176  0.000159  0.998901  0.0
H  H27  1  0.75535963  0.48700450  0.66020601  1  0.052732  0.000284  0.101711  0.101779  0.000159  0.999144  0.0
H  H28  1  0.40279543  0.83975398  0.01291492  1  0.056343  0.000281  0.102152  0.102244  0.000159  0.99847  0.0
H  H29  1  0.75531440  0.66023010  0.48701800  1  0.052704  0.000284  0.101881  0.102057  0.000159  0.999092  0.0
H  H30  1  0.59722192  0.98709154  0.16024144  1  0.056026  0.000281  0.102127  0.102262  0.000159  0.998575  0.0
H  H31  1  0.24468476  0.51297853  0.33976511  1  0.05297  0.000284  0.101926  0.102054  0.000159  0.999083  0.0
H  H32  1  0.74421542  0.17418265  0.74760966  1  0.104581  0.000444  0.103087  0.10363  0.000413  1.011344  0.0
H  H33  1  0.16585805  0.32591434  0.75241840  1  0.090024  0.000454  0.10281  0.103009  0.000414  1.010883  0.0
H  H34  1  0.25577804  0.25238569  0.82582038  1  0.088757  0.000457  0.103096  0.103612  0.000413  1.011284  0.0
H  H35  1  0.83413238  0.24757615  0.67409751  1  0.089724  0.000454  0.102809  0.10297  0.000414  1.010847  0.0
H  H36  1  0.25578569  0.82583125  0.25237416  1  0.104225  0.000444  0.103033  0.103564  0.000413  1.011503  0.0
H  H37  1  0.83412147  0.67408400  0.24758623  1  0.067076  0.000455  0.102807  0.103085  0.000413  1.010837  0.0
H  H38  1  0.74419701  0.74762779  0.17417953  1  0.104302  0.000444  0.102963  0.103551  0.000413  1.011261  0.0
H  H39  1  0.16587422  0.75241060  0.32591479  1  0.067222  0.000455  0.102833  0.103161  0.000413  1.010717  0.0
H  H40  1  0.81798436  0.09586460  0.83715832  1  0.086483  0.000209  0.100838  0.10538  0.00014  1.025973  0.0
H  H41  1  0.25082397  0.40425649  0.66288548  1  0.086089  0.00021  0.10113  0.105801  0.00014  1.025793  0.0
H  H42  1  0.18203314  0.16282780  0.90413015  1  0.087  0.000209  0.100853  0.105388  0.000141  1.025869  0.0
H  H43  1  0.74918294  0.33710176  0.59575210  1  0.085831  0.00021  0.101176  0.105855  0.00014  1.025942  0.0
H  H44  1  0.18203420  0.90416086  0.16281033  1  0.087  0.000208  0.100827  0.105368  0.00014  1.025806  0.0
H  H45  1  0.74916277  0.59575846  0.33710625  1  0.086024  0.00021  0.10123  0.105886  0.00014  1.026204  0.0
H  H46  1  0.81797339  0.83717900  0.09584761  1  0.086877  0.000208  0.100813  0.105344  0.00014  1.025776  0.0
H  H47  1  0.25082460  0.66288398  0.40425902  1  0.085777  0.00021  0.101086  0.105717  0.00014  1.026043  0.0
H  H48  1  0.45693507  0.45261250  0.77533504  1  0.114858  -0.000129  0.126939  0.103921  -0.000307  0.966571  0.0
H  H49  1  0.18485652  0.04729618  0.72492878  1  0.114831  -0.000124  0.126697  0.103296  -0.000305  0.968202  0.0
H  H50  1  0.54305311  0.22466373  0.54742457  1  0.114172  -0.000129  0.12698  0.104014  -0.000306  0.966802  0.0
H  H51  1  0.81514506  0.27506868  0.95270780  1  0.114902  -0.000124  0.126677  0.103269  -0.000305  0.968151  0.0
H  H52  1  0.54306899  0.54741806  0.22464507  1  0.114232  -0.000129  0.126951  0.104008  -0.000306  0.966586  0.0
H  H53  1  0.81510716  0.95267858  0.27511021  1  0.115521  -0.000125  0.126583  0.103087  -0.000306  0.968079  0.0
H  H54  1  0.45691590  0.77536595  0.45258425  1  0.11459  -0.000129  0.127012  0.104042  -0.000307  0.966511  0.0
H  H55  1  0.18489156  0.72490485  0.04728430  1  0.114648  -0.000125  0.12666  0.103237  -0.000306  0.967957  0.0
H  H56  1  0.35706316  0.53669563  0.83421723  1  0.104787  0.007003  0.108932  0.116276  0.006496  1.035112  0.004
H  H57  1  0.22789984  0.96337959  0.66586952  1  0.131522  0.006696  0.109224  0.116559  0.006489  1.036074  0.004
H  H58  1  0.64289643  0.16578361  0.46333636  1  0.104128  0.007004  0.108906  0.116207  0.006495  1.034995  0.004
H  H59  1  0.77208848  0.33413300  0.03663161  1  0.131104  0.006703  0.109224  0.116546  0.006491  1.036019  0.004
H  H60  1  0.64293991  0.46331436  0.16579358  1  0.105086  0.006994  0.108875  0.116169  0.006491  1.035186  0.004
H  H61  1  0.77203012  0.03657761  0.33419486  1  0.13146  0.006707  0.109185  0.116535  0.006493  1.035937  0.004
H  H62  1  0.35704340  0.83422030  0.53667103  1  0.105536  0.006992  0.108928  0.116328  0.006489  1.035037  0.004
H  H63  1  0.22796013  0.66581035  0.96338916  1  0.131991  0.006701  0.109211  0.116472  0.006496  1.035954  0.004
H  H64  1  0.25997762  0.40909070  0.76349571  1  0.098042  0.001287  0.122913  0.097304  0.000713  0.986496  0.001
H  H65  1  0.93247717  0.09113161  0.73664695  1  0.117612  0.001285  0.122569  0.095832  0.000717  0.987966  0.001
H  H66  1  0.74001059  0.23654319  0.59090411  1  0.097948  0.001287  0.12301  0.097451  0.000713  0.986337  0.001
H  H67  1  0.06752461  0.26334783  0.90888652  1  0.116766  0.001286  0.122598  0.095897  0.000718  0.987792  0.001
H  H68  1  0.74004071  0.59091014  0.23650471  1  0.097898  0.001286  0.122972  0.097454  0.000712  0.986366  0.001
H  H69  1  0.06748140  0.90887275  0.26334834  1  0.117815  0.001285  0.122629  0.096014  0.000717  0.98791  0.001
H  H70  1  0.25997229  0.76350503  0.40907181  1  0.098077  0.001285  0.122922  0.097324  0.000712  0.986406  0.001
H  H71  1  0.93251456  0.73664544  0.09111341  1  0.118189  0.001285  0.122611  0.096097  0.000717  0.987883  0.001
H  H72  1  0.15076623  0.49366205  0.81915881  1  0.121615  0.000263  0.118186  0.127914  2e-06  0.989298  0.0
H  H73  1  0.96344081  0.00671400  0.68085682  1  0.111396  0.000272  0.117394  0.127321  2e-06  0.989398  0.0
H  H74  1  0.84921019  0.18088255  0.50632879  1  0.121553  0.000263  0.118076  0.127757  3e-06  0.989287  0.0
H  H75  1  0.03653816  0.31913687  0.99331263  1  0.111723  0.000273  0.11742  0.12734  3e-06  0.989452  0.0
H  H76  1  0.84922935  0.50632125  0.18087284  1  0.121343  0.000263  0.118099  0.127859  2e-06  0.98948  0.0
H  H77  1  0.03652074  0.99327434  0.31917082  1  0.11041  0.000273  0.117478  0.127438  2e-06  0.989323  0.0
H  H78  1  0.15076019  0.81916105  0.49362926  1  0.122398  0.000263  0.118095  0.127817  2e-06  0.989346  0.0
H  H79  1  0.96348165  0.68082870  0.00670651  1  0.110579  0.000274  0.117423  0.127301  2e-06  0.989516  0.0
C  C80  1  0.83914382  0.06566085  0.96573838  1  -0.000242  0.015188  -0.004247  -0.040741  0.013111  3.922845  0.012
C  C81  1  0.37064378  0.43432622  0.53425700  1  -0.003775  0.015176  -0.004919  -0.04334  0.013077  3.923821  0.012
C  C82  1  0.16088205  0.03426834  0.93432952  1  0.02024  0.015039  -0.004181  -0.041101  0.013116  3.922421  0.012
C  C83  1  0.62936284  0.46574055  0.56568068  1  -0.00302  0.015173  -0.004905  -0.043328  0.013076  3.923504  0.012
C  C84  1  0.16088779  0.93437115  0.03422695  1  0.020638  0.015066  -0.004128  -0.040779  0.013135  3.922576  0.012
C  C85  1  0.62934830  0.56565654  0.46576455  1  -0.003834  0.015167  -0.004777  -0.042986  0.013067  3.923211  0.012
C  C86  1  0.83913042  0.96576618  0.06563270  1  0.02024  0.01506  -0.004212  -0.040976  0.01313  3.922588  0.012
C  C87  1  0.37065368  0.53423667  0.43434366  1  -0.004529  0.015171  -0.004953  -0.04357  0.013071  3.923682  0.012
C  C88  1  0.63081223  0.21235236  0.81656244  1  -0.073842  0.019163  -0.017192  -0.031053  0.01601  3.962871  0.015
C  C89  1  0.15973634  0.28770054  0.68347075  1  -0.044319  0.018992  -0.017321  -0.030141  0.015975  3.964207  0.015
C  C90  1  0.36919256  0.18344415  0.78764523  1  -0.077244  0.019182  -0.017172  -0.031177  0.016008  3.963197  0.015
C  C91  1  0.84025887  0.31651750  0.71230670  1  -0.044276  0.018995  -0.017229  -0.029975  0.015977  3.964215  0.015
C  C92  1  0.36919620  0.78765250  0.18343094  1  -0.076898  0.019186  -0.017236  -0.030904  0.016011  3.962049  0.015
C  C93  1  0.84023932  0.71229477  0.31653286  1  -0.045058  0.018996  -0.017559  -0.030515  0.015974  3.964632  0.015
C  C94  1  0.63078835  0.81658088  0.21234262  1  -0.076352  0.01918  -0.01721  -0.031037  0.016006  3.962247  0.015
C  C95  1  0.15976351  0.68345308  0.28770334  1  -0.044534  0.018999  -0.017586  -0.030518  0.015978  3.96452  0.015
C  C96  1  0.89186925  0.11112611  0.91063059  1  1.569069  -0.001833  0.218307  0.589288  -0.001169  4.175344  -0.004
C  C97  1  0.41367367  0.38883144  0.58942416  1  1.575086  -0.001799  0.218055  0.589921  -0.00114  4.174086  -0.004
C  C98  1  0.10814825  0.08938749  0.88887648  1  1.54781  -0.001678  0.218433  0.589635  -0.001171  4.175125  -0.004
C  C99  1  0.58634269  0.41056900  0.61116854  1  1.575299  -0.001801  0.218019  0.589833  -0.001139  4.174452  -0.004
C  C100  1  0.10815817  0.88891302  0.08934656  1  1.547135  -0.00169  0.218307  0.589453  -0.001177  4.175013  -0.004
C  C101  1  0.58632964  0.61114874  0.41058671  1  1.575439  -0.001797  0.218072  0.589721  -0.001137  4.174217  -0.004
C  C102  1  0.89185364  0.91065313  0.11109337  1  1.547216  -0.001688  0.218373  0.589662  -0.001179  4.174965  -0.004
C  C103  1  0.41369468  0.58940056  0.38883910  1  1.576268  -0.001801  0.218318  0.590402  -0.00114  4.173401  -0.004
C  C104  1  0.58591070  0.25730482  0.76309731  1  1.550124  -0.001172  0.213851  0.578573  -0.000191  4.152674  -0.004
C  C105  1  0.10637585  0.24272407  0.73693596  1  1.532648  -0.000996  0.213896  0.577739  -0.000209  4.153846  -0.004
C  C106  1  0.41409174  0.23690760  0.74269098  1  1.552851  -0.001193  0.213794  0.578535  -0.000189  4.152932  -0.004
C  C107  1  0.89361225  0.26305547  0.75728979  1  1.531613  -0.000997  0.213806  0.57785  -0.00021  4.15393  -0.004
C  C108  1  0.41409566  0.74268443  0.23690828  1  1.553593  -0.001194  0.213968  0.578583  -0.00019  4.152702  -0.004
C  C109  1  0.89359543  0.75726976  0.26307535  1  1.531975  -0.001007  0.213723  0.57756  -0.000215  4.153908  -0.004
C  C110  1  0.58588687  0.76310434  0.25730411  1  1.553479  -0.001192  0.214126  0.579052  -0.000191  4.152554  -0.004
C  C111  1  0.10641990  0.73691510  0.24271989  1  1.532508  -0.001006  0.213788  0.577754  -0.000216  4.153492  -0.004
C  C112  1  0.71413558  0.02547599  0.02544595  1  -0.062777  -0.001874  -0.084181  -0.175307  -0.002161  3.944374  -0.002
C  C113  1  0.26509801  0.47456272  0.47457464  1  -0.055952  -0.001891  -0.084129  -0.175064  -0.002158  3.942354  -0.002
C  C114  1  0.28588553  0.97456009  0.97452699  1  -0.06304  -0.001872  -0.084011  -0.174891  -0.00216  3.944153  -0.002
C  C115  1  0.73493773  0.52540068  0.52541245  1  -0.050484  -0.001895  -0.084112  -0.175123  -0.002157  3.942394  -0.002
C  C116  1  0.87910733  0.01353051  0.01350286  1  0.042266  0.014326  -0.08009  -0.113646  0.011259  3.945832  0.009
C  C117  1  0.40630964  0.48641711  0.48643278  1  -0.004825  0.014331  -0.078403  -0.109698  0.011194  3.943834  0.008
C  C118  1  0.12090798  0.98650101  0.98646593  1  0.043494  0.014328  -0.080116  -0.113476  0.011263  3.945451  0.009
C  C119  1  0.59368869  0.51357071  0.51359126  1  -0.005297  0.014341  -0.07871  -0.110193  0.011202  3.943678  0.008
C  C120  1  0.58956674  0.20849682  0.88416713  1  -0.051212  6e-05  -0.081489  -0.082786  -0.000175  3.97306  0.0
C  C121  1  0.18232577  0.29153674  0.61586916  1  -0.016126  5.6e-05  -0.081575  -0.084514  -0.000164  3.97596  0.0
C  C122  1  0.41044745  0.11583981  0.79149678  1  -0.050791  6e-05  -0.081536  -0.0827  -0.000174  3.972797  0.0
C  C123  1  0.81768074  0.38411952  0.70846472  1  -0.015556  5.8e-05  -0.081633  -0.084741  -0.000162  3.975838  0.0
C  C124  1  0.41043697  0.79151661  0.11582400  1  -0.051288  5.9e-05  -0.081475  -0.082773  -0.000176  3.972477  0.0
C  C125  1  0.81764280  0.70846513  0.38413468  1  -0.015067  5.8e-05  -0.081512  -0.084142  -0.000162  3.97569  0.0
C  C126  1  0.58955576  0.88419326  0.20847988  1  -0.051588  5.8e-05  -0.081378  -0.08256  -0.000177  3.972431  0.0
C  C127  1  0.18236202  0.61585756  0.29153187  1  -0.015987  5.7e-05  -0.081556  -0.08439  -0.000164  3.975899  0.0
C  C128  1  0.62976471  0.16355451  0.93446078  1  0.017916  0.003217  -0.091165  -0.137652  0.002457  3.990674  0.002
C  C129  1  0.22788105  0.33648063  0.56558539  1  -0.023958  0.003202  -0.091149  -0.137773  0.002436  3.988427  0.002
C  C130  1  0.37025532  0.06553730  0.83644310  1  0.017424  0.003216  -0.091047  -0.137712  0.002456  3.990861  0.002
C  C131  1  0.77213026  0.43440331  0.66351484  1  -0.024574  0.0032  -0.091014  -0.137356  0.002434  3.988262  0.002
C  C132  1  0.37025386  0.83647099  0.06551838  1  0.017659  0.003214  -0.091185  -0.137644  0.002455  3.990319  0.002
C  C133  1  0.77208891  0.66352074  0.43441823  1  -0.01778  0.0032  -0.09106  -0.137757  0.002436  3.988556  0.002
C  C134  1  0.62975064  0.93449121  0.16353073  1  0.01807  0.003213  -0.091187  -0.137823  0.002454  3.990004  0.002
C  C135  1  0.22791799  0.56557375  0.33647612  1  -0.017614  0.003204  -0.091067  -0.13755  0.002438  3.988447  0.002
C  C136  1  0.71327847  0.17158180  0.80007542  1  -0.068599  0.000199  -0.082386  -0.079641  -3.3e-05  3.980171  0.0
C  C137  1  0.18483316  0.32850430  0.69995918  1  -0.081587  0.000207  -0.081397  -0.0784  -2.3e-05  3.978997  0.0
C  C138  1  0.28672183  0.19992334  0.82841144  1  -0.052209  0.000186  -0.082507  -0.079667  -3.2e-05  3.980564  0.0
C  C139  1  0.81515296  0.30003276  0.67150850  1  -0.082387  0.000209  -0.081392  -0.078254  -2.2e-05  3.978936  0.0
C  C140  1  0.28672775  0.82842958  0.19990880  1  -0.068615  0.000201  -0.082493  -0.079814  -3.1e-05  3.980552  0.0
C  C141  1  0.81513941  0.67149655  0.30004080  1  -0.058205  0.000204  -0.081484  -0.078629  -2.1e-05  3.97899  0.0
C  C142  1  0.71325400  0.80009863  0.17156788  1  -0.068551  0.0002  -0.08238  -0.079715  -3.2e-05  3.980291  0.0
C  C143  1  0.18485432  0.69995199  0.32850709  1  -0.058373  0.000205  -0.081505  -0.078824  -2.1e-05  3.978799  0.0
C  C144  1  0.75406851  0.12785216  0.85013540  1  -0.014155  0.002889  -0.091671  -0.129483  0.002173  3.962159  0.002
C  C145  1  0.23196400  0.37223627  0.64990230  1  0.040909  0.002848  -0.09199  -0.129973  0.002154  3.960511  0.002
C  C146  1  0.24594320  0.14986098  0.87214037  1  -0.014772  0.002888  -0.091714  -0.12965  0.002172  3.96201  0.002
C  C147  1  0.76804492  0.35008717  0.62776268  1  0.041738  0.002845  -0.092121  -0.130249  0.002152  3.96086  0.002
C  C148  1  0.24594721  0.87216730  0.14984725  1  -0.013994  0.002884  -0.091653  -0.12942  0.00217  3.96185  0.002
C  C149  1  0.76802850  0.62775246  0.35010117  1  0.040431  0.00285  -0.092009  -0.12987  0.002155  3.960601  0.002
C  C150  1  0.75404975  0.85015540  0.12783216  1  -0.014412  0.002885  -0.091613  -0.129434  0.00217  3.96196  0.002
C  C151  1  0.23197320  0.64989250  0.37224694  1  0.040788  0.002851  -0.091825  -0.129521  0.002156  3.960339  0.002
C  C152  1  0.75502747  0.07221113  0.97103528  1  -0.00912  0.015531  0.000172  0.050937  0.012049  3.983281  0.01
C  C153  1  0.29832407  0.42783815  0.52898156  1  0.001145  0.01535  7.2e-05  0.050108  0.011951  3.983201  0.009
C  C154  1  0.24499584  0.02896673  0.92779202  1  -0.010031  0.015523  0.0001  0.050801  0.012042  3.983837  0.01
C  C155  1  0.70169956  0.47100398  0.57214899  1  -0.004766  0.015352  -5.4e-05  0.050193  0.011946  3.983231  0.009
C  C156  1  0.24499642  0.92782395  0.02894031  1  -0.009084  0.015519  0.000137  0.050661  0.01204  3.982996  0.01
C  C157  1  0.70168239  0.57214350  0.47101762  1  0.002201  0.015359  0.000174  0.050296  0.011958  3.982297  0.009
C  C158  1  0.75501679  0.97105823  0.07218042  1  -0.00934  0.01552  0.000185  0.050958  0.012041  3.982841  0.01
C  C159  1  0.29833222  0.52897311  0.42784658  1  0.002539  0.015361  0.000187  0.050338  0.011961  3.982544  0.009
C  C160  1  0.71259720  0.12266211  0.91818523  1  -0.022668  -0.00146  -0.002019  0.081727  -0.001761  3.994675  -0.001
C  C161  1  0.25345282  0.37740609  0.58185178  1  -0.035732  -0.001459  -0.002091  0.082748  -0.001759  3.989635  -0.001
C  C162  1  0.28743103  0.08180898  0.87733366  1  -0.022117  -0.001459  -0.002087  0.081931  -0.001759  3.995164  -0.001
C  C163  1  0.74656874  0.41813976  0.62258323  1  -0.035586  -0.001457  -0.002088  0.082683  -0.001757  3.989866  -0.001
C  C164  1  0.28743061  0.87736489  0.08178870  1  -0.021697  -0.00146  -0.001937  0.081652  -0.001761  3.994524  -0.001
C  C165  1  0.74653985  0.62258216  0.41815537  1  -0.042989  -0.001456  -0.002221  0.082588  -0.001756  3.98983  -0.001
C  C166  1  0.71258083  0.91820739  0.12263570  1  -0.021737  -0.001461  -0.001983  0.081752  -0.001762  3.994072  -0.001
C  C167  1  0.25347097  0.58183732  0.37741298  1  -0.043273  -0.001456  -0.002272  0.082425  -0.001757  3.98993  -0.001
C  C168  1  0.24537810  0.52171761  0.83154945  1  0.029554  -0.00707  0.013088  0.07201  -0.008617  4.036441  -0.007
C  C169  1  0.09853335  0.97848321  0.66853156  1  -0.009533  -0.007017  0.014074  0.073641  -0.008618  4.035035  -0.007
C  C170  1  0.75459888  0.16847337  0.47828266  1  0.029205  -0.007071  0.013016  0.07197  -0.008619  4.036258  -0.007
C  C171  1  0.90143964  0.33146546  0.02153617  1  -0.009622  -0.007017  0.013908  0.07323  -0.008618  4.035123  -0.007
C  C172  1  0.75462134  0.47826872  0.16848059  1  0.029705  -0.007071  0.013301  0.072361  -0.008618  4.035986  -0.007
C  C173  1  0.90140708  0.02151172  0.33150146  1  -0.009302  -0.007019  0.013894  0.073539  -0.008621  4.035001  -0.007
C  C174  1  0.24535119  0.83155268  0.52170368  1  0.029924  -0.007067  0.013284  0.072546  -0.008612  4.03569  -0.007
C  C175  1  0.09858413  0.66849555  0.97847977  1  -0.009808  -0.007018  0.013904  0.073503  -0.008621  4.035037  -0.007
C  C176  1  0.18201923  0.56778708  0.86665637  1  0.836054  0.098612  0.220319  0.168731  0.088707  3.944247  0.079
C  C177  1  0.11629257  0.93242136  0.63343233  1  0.842433  0.099453  0.220788  0.169864  0.088629  3.941801  0.079
C  C178  1  0.81797720  0.13335793  0.43220813  1  0.837042  0.098651  0.220191  0.168514  0.08875  3.944158  0.08
C  C179  1  0.88366699  0.36655360  0.06760747  1  0.84127  0.099433  0.221025  0.170336  0.088607  3.941377  0.079
C  C180  1  0.81798939  0.43218459  0.13337147  1  0.836078  0.098612  0.220242  0.168688  0.088697  3.943876  0.079
C  C181  1  0.88365560  0.06757957  0.36658607  1  0.840653  0.09945  0.221155  0.170553  0.088652  3.941657  0.08
C  C182  1  0.18198070  0.86665755  0.56778740  1  0.834952  0.098656  0.220314  0.168647  0.088698  3.943665  0.079
C  C183  1  0.11634814  0.63340595  0.93241878  1  0.840819  0.099394  0.22106  0.170607  0.088608  3.941894  0.079
C  C184  1  0.38853228  0.46276482  0.78682519  1  0.506783  -0.002667  0.057611  0.111222  -0.003445  3.932171  -0.002
C  C185  1  0.13808019  0.03726061  0.71336261  1  0.487155  -0.002655  0.058434  0.113272  -0.003445  3.933313  -0.002
C  C186  1  0.61145023  0.21318934  0.53725401  1  0.505932  -0.002666  0.057171  0.110489  -0.003444  3.932342  -0.002
C  C187  1  0.86192007  0.28663552  0.96274683  1  0.487526  -0.002659  0.058468  0.113324  -0.003448  3.933328  -0.002
C  C188  1  0.61146876  0.53725121  0.21318188  1  0.507121  -0.002666  0.057325  0.11082  -0.003444  3.932126  -0.002
C  C189  1  0.86186557  0.96272578  0.28667905  1  0.487723  -0.002661  0.058651  0.113803  -0.003451  3.932387  -0.002
C  C190  1  0.38851702  0.78683823  0.46273650  1  0.507125  -0.002663  0.057326  0.110864  -0.003441  3.932428  -0.002
C  C191  1  0.13813089  0.71332436  0.03724282  1  0.489585  -0.002662  0.058665  0.1137  -0.003449  3.932835  -0.002
C  C192  1  0.33287768  0.50982473  0.81890076  1  0.012784  0.028077  -0.082004  -0.170728  0.023177  3.935272  0.019
C  C193  1  0.16153189  0.99029142  0.68119704  1  0.000736  0.028302  -0.081399  -0.170664  0.023164  3.935406  0.019
C  C194  1  0.66709530  0.18110649  0.49019294  1  0.013346  0.028052  -0.08172  -0.170197  0.02316  3.934459  0.019
C  C195  1  0.83845289  0.31880335  0.00971813  1  1.4e-05  0.028299  -0.081337  -0.170523  0.023163  3.935512  0.019
C  C196  1  0.66712247  0.49018125  0.18111663  1  0.012192  0.02805  -0.081985  -0.17062  0.023151  3.935059  0.019
C  C197  1  0.83840326  0.00968847  0.31885903  1  -0.001429  0.028309  -0.081481  -0.170868  0.023174  3.935315  0.019
C  C198  1  0.33285434  0.81890999  0.50979943  1  0.01214  0.028054  -0.082112  -0.171094  0.023154  3.935086  0.019
C  C199  1  0.16158638  0.68114601  0.99029062  1  -0.001969  0.028325  -0.081484  -0.17076  0.02318  3.935764  0.019
C  C200  1  0.27834586  0.43917090  0.77944760  1  0.510219  -0.003507  0.052192  0.099629  -0.00413  3.946812  -0.003
C  C201  1  0.99687898  0.06101580  0.72068059  1  0.499751  -0.003475  0.052963  0.102521  -0.004124  3.946344  -0.003
C  C202  1  0.72164059  0.22058719  0.56082545  1  0.511218  -0.003502  0.051999  0.09907  -0.004126  3.947102  -0.003
C  C203  1  0.00311954  0.27931630  0.93900082  1  0.500227  -0.003475  0.053044  0.102526  -0.004124  3.946389  -0.003
C  C204  1  0.72165491  0.56083505  0.22056390  1  0.511601  -0.003504  0.052035  0.099273  -0.004128  3.947179  -0.003
C  C205  1  0.00308160  0.93899722  0.27932967  1  0.498561  -0.003474  0.052871  0.102341  -0.004125  3.946791  -0.003
C  C206  1  0.27834256  0.77945294  0.43915036  1  0.511622  -0.0035  0.052117  0.099448  -0.004124  3.947226  -0.003
C  C207  1  0.99691132  0.72066531  0.06099088  1  0.497977  -0.003479  0.05298  0.102193  -0.004128  3.946759  -0.003
C  C208  1  0.21811203  0.48557765  0.81038134  1  -0.054912  0.019154  -0.072375  -0.152633  0.014572  3.917332  0.012
C  C209  1  0.01395577  0.01467225  0.68970335  1  -0.020687  0.019081  -0.072068  -0.152858  0.014553  3.917666  0.012
C  C210  1  0.78186555  0.18965738  0.51441191  1  -0.054171  0.019151  -0.072195  -0.152303  0.01457  3.917458  0.012
C  C211  1  0.98603015  0.31029558  0.98534997  1  -0.020639  0.019085  -0.072071  -0.152724  0.014557  3.91743  0.012
C  C212  1  0.78188900  0.51441121  0.18964931  1  -0.054482  0.019139  -0.072386  -0.152715  0.014561  3.91787  0.012
C  C213  1  0.98599931  0.98533173  0.31031908  1  -0.01816  0.01909  -0.072067  -0.152916  0.014562  3.917867  0.012
C  C214  1  0.21810602  0.81038271  0.48555344  1  -0.055337  0.019128  -0.072395  -0.152695  0.014553  3.917964  0.012
C  C215  1  0.01399441  0.68967398  0.01465765  1  -0.019202  0.019088  -0.072128  -0.152854  0.014561  3.917935  0.012
N  N216  1  0.36209371  0.42758469  0.76786961  1  -1.203252  0.026954  -0.327825  -0.219375  0.021492  3.497153  0.023
N  N217  1  0.05749528  0.07247917  0.73230814  1  -1.198994  0.027089  -0.330082  -0.222595  0.021606  3.500741  0.023
N  N218  1  0.63789673  0.23215429  0.57242189  1  -1.203558  0.026957  -0.327622  -0.218814  0.021493  3.497617  0.023
N  N219  1  0.94250899  0.26768542  0.92753161  1  -1.198174  0.027093  -0.330171  -0.222689  0.021608  3.500773  0.023
N  N220  1  0.63790693  0.57243435  0.23213321  1  -1.204626  0.026933  -0.327529  -0.218944  0.021475  3.497133  0.023
N  N221  1  0.94246166  0.92753738  0.26770127  1  -1.198785  0.027071  -0.330009  -0.222752  0.021591  3.500546  0.023
N  N222  1  0.36208798  0.76787576  0.42755781  1  -1.205564  0.026919  -0.327619  -0.219015  0.021464  3.497186  0.023
N  N223  1  0.05754008  0.73229461  0.07244553  1  -1.198012  0.027078  -0.330091  -0.222726  0.021596  3.500249  0.023
N  N224  1  0.27056807  0.59224478  0.90783370  1  -0.087888  1.254378  -0.103809  -0.19183  0.965635  1.962329  0.896
N  N225  1  0.27053056  0.90782027  0.59227441  1  -0.086713  1.25458  -0.103771  -0.191875  0.965871  1.961446  0.896
N  N226  1  0.72942632  0.09218017  0.40774681  1  -0.087654  1.254541  -0.103702  -0.191674  0.965787  1.96218  0.896
N  N227  1  0.72944550  0.40771577  0.09219084  1  -0.087918  1.254637  -0.103753  -0.191683  0.965872  1.961662  0.896
N  N228  1  0.19842679  0.59753879  0.90256595  1  -0.709526  0.079106  -0.079981  0.104327  0.035661  3.840651  -0.007
N  N229  1  0.19837845  0.90256400  0.59755810  1  -0.709434  0.079009  -0.079907  0.104546  0.035623  3.839328  -0.007
N  N230  1  0.80157104  0.09743845  0.40245925  1  -0.709572  0.079125  -0.080005  0.104213  0.035667  3.840452  -0.007
N  N231  1  0.80159085  0.40242783  0.09746042  1  -0.708992  0.078997  -0.08016  0.104057  0.03565  3.840292  -0.007
N  N232  1  0.09940359  0.58608522  0.87441070  1  -0.687287  0.104367  -0.201366  -0.196701  0.07993  3.219692  0.071
N  N233  1  0.05968815  0.91413538  0.62573595  1  -0.595067  0.103192  -0.202597  -0.19991  0.079989  3.220756  0.071
N  N234  1  0.90059312  0.12560146  0.41389440  1  -0.68715  0.104429  -0.201229  -0.196441  0.079978  3.220265  0.071
N  N235  1  0.94026958  0.37423899  0.08590409  1  -0.593147  0.103185  -0.202816  -0.200277  0.079999  3.220969  0.071
N  N236  1  0.90060652  0.41386930  0.12562233  1  -0.686607  0.104367  -0.201115  -0.196572  0.079932  3.220417  0.071
N  N237  1  0.94025470  0.08587409  0.37427250  1  -0.591948  0.103243  -0.202625  -0.200297  0.080049  3.22123  0.071
N  N238  1  0.09936058  0.87442105  0.58609149  1  -0.686091  0.104374  -0.201282  -0.196773  0.079946  3.220125  0.071
N  N239  1  0.05973586  0.62571860  0.91413871  1  -0.592128  0.103164  -0.202656  -0.2004  0.079991  3.220509  0.071
O  O240  1  0.51469322  0.29840144  0.78023973  1  -1.100581  0.106459  -0.31373  -0.513523  0.081493  2.339291  0.096
O  O241  1  0.09361370  0.20149770  0.71985162  1  -1.094139  0.106512  -0.313631  -0.513694  0.081596  2.338328  0.096
O  O242  1  0.48530169  0.21976838  0.70159018  1  -1.100666  0.106461  -0.313639  -0.513309  0.081495  2.339261  0.096
O  O243  1  0.90636002  0.28015400  0.79851113  1  -1.093483  0.10654  -0.313526  -0.513684  0.081617  2.338384  0.096
O  O244  1  0.48530999  0.70159541  0.21976969  1  -1.100814  0.106475  -0.313728  -0.513368  0.081506  2.33946  0.096
O  O245  1  0.90633859  0.79848919  0.28018914  1  -1.092983  0.106612  -0.313284  -0.513401  0.08167  2.337445  0.096
O  O246  1  0.51466462  0.78023291  0.29839616  1  -1.10088  0.106443  -0.313794  -0.51372  0.081481  2.339039  0.096
O  O247  1  0.09367416  0.71981049  0.20149265  1  -1.093322  0.106611  -0.313493  -0.513669  0.081668  2.337277  0.096
O  O248  1  0.88169518  0.16704314  0.91619844  1  -1.095991  0.098094  -0.302526  -0.506868  0.075613  2.303281  0.089
O  O249  1  0.46489224  0.33283203  0.58397271  1  -1.10304  0.097861  -0.302599  -0.506802  0.075443  2.303357  0.089
O  O250  1  0.11829966  0.08383384  0.83296015  1  -1.096066  0.098089  -0.302443  -0.506843  0.0756  2.303677  0.089
O  O251  1  0.53512897  0.41599885  0.66717488  1  -1.102986  0.097825  -0.302511  -0.506786  0.075409  2.303801  0.089
O  O252  1  0.11836635  0.83297437  0.08380260  1  -1.095408  0.09813  -0.302497  -0.507011  0.075634  2.302644  0.089
O  O253  1  0.53513141  0.66716013  0.41600567  1  -1.103005  0.097805  -0.302641  -0.506796  0.075394  2.303631  0.089
O  O254  1  0.88163943  0.91621039  0.16702654  1  -1.095347  0.098134  -0.302425  -0.506954  0.075639  2.302528  0.089
O  O255  1  0.46489840  0.58396413  0.33283032  1  -1.103867  0.097843  -0.302649  -0.506805  0.075434  2.303177  0.089
O  O256  1  0.94698669  0.08663790  0.86490157  1  -1.104265  0.097283  -0.309811  -0.523703  0.074921  2.342208  0.089
O  O257  1  0.39862778  0.41336036  0.63509894  1  -1.09951  0.097164  -0.309967  -0.524151  0.074824  2.342616  0.089
O  O258  1  0.05304666  0.13511310  0.91337731  1  -1.104391  0.097306  -0.309989  -0.523901  0.074939  2.341531  0.089
O  O259  1  0.60139973  0.36490729  0.58662198  1  -1.099893  0.097197  -0.30992  -0.523982  0.074851  2.342604  0.089
O  O260  1  0.05301907  0.91343294  0.13505229  1  -1.103431  0.097326  -0.309728  -0.523699  0.074962  2.340883  0.089
O  O261  1  0.60138515  0.58661479  0.36491467  1  -1.099499  0.097184  -0.309972  -0.523979  0.074843  2.342729  0.089
O  O262  1  0.94699922  0.86494361  0.08657824  1  -1.103833  0.0973  -0.309744  -0.523798  0.07494  2.341065  0.089
O  O263  1  0.39865913  0.63507630  0.41336115  1  -1.099573  0.097176  -0.310222  -0.524564  0.074832  2.343005  0.089
O  O264  1  0.62065194  0.25063974  0.70461430  1  -1.107484  0.101759  -0.313058  -0.528197  0.077847  2.345661  0.092
O  O265  1  0.07574716  0.24951075  0.79537014  1  -1.110744  0.101803  -0.313271  -0.527497  0.077902  2.344375  0.092
O  O266  1  0.37935141  0.29539333  0.74935646  1  -1.107216  0.101793  -0.31305  -0.528271  0.077871  2.345437  0.092
O  O267  1  0.92424316  0.20461462  0.75051383  1  -1.110175  0.101802  -0.31334  -0.527711  0.077898  2.34411  0.092
O  O268  1  0.37936069  0.74932179  0.29540484  1  -1.107482  0.101793  -0.313187  -0.52835  0.077874  2.345807  0.092
O  O269  1  0.92422501  0.75049313  0.20463040  1  -1.110594  0.101739  -0.313157  -0.527462  0.077849  2.343475  0.092
O  O270  1  0.62063180  0.70461766  0.25065387  1  -1.107525  0.101763  -0.313274  -0.528458  0.077851  2.346259  0.092
O  O271  1  0.07579864  0.79535448  0.24950275  1  -1.11078  0.101744  -0.313062  -0.527367  0.077853  2.343467  0.092
