# generated using pymatgen
data_Zn2H11C12NO9
_symmetry_space_group_name_H-M   'P 1'
_cell_length_a   10.42627531
_cell_length_b   11.40722157
_cell_length_c   20.30032796
_cell_angle_alpha   89.99981661
_cell_angle_beta   89.99986005
_cell_angle_gamma   89.99986877
_symmetry_Int_Tables_number   1
_chemical_formula_structural   Zn2H11C12NO9
_chemical_formula_sum   'Zn8 H44 C48 N4 O36'
_cell_volume   2414.41610691
_cell_formula_units_Z   4
loop_
 _symmetry_equiv_pos_site_id
 _symmetry_equiv_pos_as_xyz
  1  'x, y, z'
loop_
 _atom_site_type_symbol
 _atom_site_label
 _atom_site_symmetry_multiplicity
 _atom_site_fract_x
 _atom_site_fract_y
 _atom_site_fract_z
 _atom_site_occupancy
 _atom_site_pbe_bader_charge
 _atom_site_pbe_bader_spin_density
 _atom_site_pbe_cm5_charge
 _atom_site_pbe_ddec_charge
 _atom_site_pbe_ddec_spin_density
 _atom_site_pbe_ddec_sum_bond_order
 _atom_site_pbe_magmom
Zn  Zn0  1  0.14973437  0.66932408  0.00032495  1  1.354244  0  0.679727  0.955309  0  2.310167  0
Zn  Zn1  1  0.35026637  0.33067635  0.50032393  1  1.354236  0  0.679759  0.95534  0  2.310193  0
Zn  Zn2  1  0.64974258  0.83067620  0.99967288  1  1.354145  0  0.67974  0.955257  0  2.310282  0
Zn  Zn3  1  0.85026199  0.16933240  0.49967647  1  1.354113  0  0.679788  0.955311  0  2.310156  0
Zn  Zn4  1  0.46357903  0.57768701  0.01247685  1  1.36303  0  0.687782  0.974555  0  2.272  0
Zn  Zn5  1  0.03642740  0.42231949  0.51247853  1  1.363032  0  0.687779  0.97461  0  2.272021  0
Zn  Zn6  1  0.96357558  0.92231609  0.98752453  1  1.363021  0  0.687741  0.974606  0  2.271959  0
Zn  Zn7  1  0.53642426  0.07768031  0.48752128  1  1.363059  0  0.687725  0.974529  0  2.272062  0
H  H8  1  0.47682549  0.49236758  0.81259009  1  0.102218  0  0.108347  0.112856  0  1.000984  0
H  H9  1  0.02317376  0.50763185  0.31259106  1  0.102352  0  0.108343  0.112853  0  1.000969  0
H  H10  1  0.97682969  0.00764527  0.18740916  1  0.101992  0  0.108356  0.112922  0  1.000884  0
H  H11  1  0.52316965  0.99234768  0.68740693  1  0.101752  0  0.108337  0.112857  0  1.000967  0
H  H12  1  0.04606315  0.41972401  0.71725108  1  0.09128  0  0.106474  0.122551  0  0.999061  0
H  H13  1  0.45393559  0.58027336  0.21724842  1  0.091265  0  0.106483  0.122569  0  0.999005  0
H  H14  1  0.54606673  0.08027576  0.28274625  1  0.091248  0  0.106495  0.122526  0  0.999121  0
H  H15  1  0.95392640  0.91972099  0.78275642  1  0.09122  0  0.106483  0.122481  0  0.999218  0
H  H16  1  0.45302922  0.45286493  0.69125713  1  0.124098  0  0.10826  0.118697  0  0.992831  0
H  H17  1  0.04697157  0.54712822  0.19125405  1  0.124194  0  0.108249  0.118671  0  0.992866  0
H  H18  1  0.95302795  0.04713395  0.30874166  1  0.124139  0  0.108287  0.118753  0  0.992881  0
H  H19  1  0.54696697  0.95286353  0.80874489  1  0.124137  0  0.108281  0.11872  0  0.992957  0
H  H20  1  0.24962544  0.98529015  0.98512398  1  0.099872  0  0.108218  0.073609  0  0.967866  0
H  H21  1  0.25035094  0.01471789  0.48512007  1  0.099919  0  0.108224  0.073399  0  0.967797  0
H  H22  1  0.74963331  0.51471693  0.01488161  1  0.099783  0  0.108196  0.073355  0  0.967812  0
H  H23  1  0.75035821  0.48528933  0.51487750  1  0.099847  0  0.10822  0.073378  0  0.967743  0
H  H24  1  0.05021083  0.49799759  0.88793840  1  0.512099  0  0.299799  0.312259  0  0.978789  0
H  H25  1  0.44979094  0.50199525  0.38793933  1  0.512006  0  0.299816  0.312298  0  0.978877  0
H  H26  1  0.55021156  0.00199253  0.11206139  1  0.51202  0  0.299817  0.31231  0  0.978851  0
H  H27  1  0.94978717  0.99800175  0.61206453  1  0.512136  0  0.299818  0.312291  0  0.97877  0
H  H28  1  0.06899724  0.32109736  0.88607552  1  0.608786  0  0.290787  0.313726  0  1.021092  0
H  H29  1  0.43100647  0.67890251  0.38607863  1  0.608749  0  0.290854  0.313802  0  1.021  0
H  H30  1  0.56898891  0.17889974  0.11392179  1  0.608733  0  0.29085  0.313891  0  1.020937  0
H  H31  1  0.93101366  0.82110242  0.61392525  1  0.608764  0  0.290885  0.313931  0  1.020886  0
H  H32  1  0.96020044  0.45139122  0.82270690  1  0.413257  0  0.31022  0.297101  0  0.92903  0
H  H33  1  0.53979250  0.54860792  0.32270531  1  0.4133  0  0.310156  0.297065  0  0.929004  0
H  H34  1  0.46020126  0.04860501  0.17729533  1  0.413237  0  0.310276  0.297223  0  0.928945  0
H  H35  1  0.03980151  0.95139436  0.67729857  1  0.413163  0  0.31025  0.29719  0  0.929067  0
H  H36  1  0.13924605  0.00071227  0.09390775  1  0.067157  0  0.092398  0.141131  0  1.023913  0
H  H37  1  0.36075711  0.99929461  0.59390066  1  0.067269  0  0.092399  0.141077  0  1.023937  0
H  H38  1  0.63924185  0.49929782  0.90610128  1  0.067127  0  0.092415  0.1411  0  1.024011  0
H  H39  1  0.86075837  0.50070345  0.40609395  1  0.06735  0  0.092389  0.141078  0  1.023961  0
H  H40  1  0.30952138  0.99905244  0.10248055  1  0.02363  0  0.08331  0.113714  0  1.042853  0
H  H41  1  0.19047983  0.00094913  0.60248177  1  0.023674  0  0.083333  0.113705  0  1.042766  0
H  H42  1  0.80951072  0.50095363  0.89751609  1  0.02381  0  0.08337  0.113757  0  1.042735  0
H  H43  1  0.69047515  0.49904595  0.39751784  1  0.023688  0  0.083316  0.11367  0  1.042751  0
H  H44  1  0.21743203  0.87045237  0.12128583  1  0.031828  0  0.086955  0.126814  0  1.002346  0
H  H45  1  0.28256717  0.12955698  0.62128130  1  0.031692  0  0.086937  0.126781  0  1.002324  0
H  H46  1  0.71741828  0.62956004  0.87872324  1  0.031689  0  0.086919  0.126767  0  1.002447  0
H  H47  1  0.78256864  0.37044579  0.37871573  1  0.031749  0  0.086955  0.126749  0  1.002364  0
H  H48  1  0.42669255  0.31602627  0.08566310  1  0.109177  0  0.126329  0.02983  0  0.951185  0
H  H49  1  0.07330778  0.68397102  0.58566479  1  0.109162  0  0.126302  0.029821  0  0.951172  0
H  H50  1  0.92671782  0.18396215  0.91432685  1  0.109419  0  0.126393  0.029884  0  0.951475  0
H  H51  1  0.57329003  0.81603469  0.41432329  1  0.109788  0  0.126331  0.029784  0  0.951358  0
C  C52  1  0.27647012  0.47648657  0.83311552  1  -0.032607  0  -0.021216  -0.134953  0  3.914038  0
C  C53  1  0.22353575  0.52350923  0.33311423  1  -0.032628  0  -0.021263  -0.135086  0  3.914055  0
C  C54  1  0.77647437  0.02351357  0.16688349  1  -0.03244  0  -0.021363  -0.135124  0  3.91422  0
C  C55  1  0.72352794  0.97648827  0.66688843  1  -0.032906  0  -0.021315  -0.135064  0  3.913911  0
C  C56  1  0.24751767  0.43560765  0.69749018  1  2.4e-05  0  -0.015096  -0.007031  0  3.99808  0
C  C57  1  0.25247733  0.56439686  0.19749075  1  7e-05  0  -0.015132  -0.007114  0  3.997779  0
C  C58  1  0.74751160  0.06438906  0.30250887  1  1.8e-05  0  -0.01518  -0.007083  0  3.997834  0
C  C59  1  0.75248048  0.93561372  0.80250990  1  1.9e-05  0  -0.015119  -0.007091  0  3.997849  0
C  C60  1  0.15323636  0.45384938  0.80654856  1  0.34595  0  0.095595  0.270041  0  4.0075  0
C  C61  1  0.34676868  0.54613870  0.30654954  1  0.345736  0  0.095644  0.270117  0  4.007459  0
C  C62  1  0.65323564  0.04614578  0.19344864  1  0.345725  0  0.095603  0.270059  0  4.007447  0
C  C63  1  0.84676462  0.95385502  0.69345494  1  0.346303  0  0.095653  0.270087  0  4.007385  0
C  C64  1  0.38313343  0.47480607  0.79095998  1  0.000974  0  -0.07913  -0.071582  0  3.995117  0
C  C65  1  0.11686593  0.52519174  0.29095931  1  0.000841  0  -0.079155  -0.07162  0  3.99504  0
C  C66  1  0.88313461  0.02520611  0.20903939  1  0.001143  0  -0.079103  -0.071632  0  3.995132  0
C  C67  1  0.61686175  0.97479459  0.70903856  1  0.001318  0  -0.079128  -0.071615  0  3.995138  0
C  C68  1  0.14047456  0.43502029  0.73880140  1  -0.037445  0  -0.099286  -0.222508  0  3.958841  0
C  C69  1  0.35952888  0.56498134  0.23880480  1  -0.037562  0  -0.09918  -0.222357  0  3.958585  0
C  C70  1  0.64047443  0.06497664  0.26119483  1  -0.037509  0  -0.099202  -0.222341  0  3.958777  0
C  C71  1  0.85952647  0.93502375  0.76119917  1  -0.037423  0  -0.099278  -0.22234  0  3.958958  0
C  C72  1  0.37021625  0.45378364  0.72393301  1  -0.072417  0  -0.092889  -0.122886  0  3.998185  0
C  C73  1  0.12977863  0.54622685  0.22393475  1  -0.0724  0  -0.09284  -0.122745  0  3.998188  0
C  C74  1  0.87021610  0.04623120  0.27606638  1  -0.072354  0  -0.092918  -0.122949  0  3.998121  0
C  C75  1  0.62977802  0.95378137  0.77606803  1  -0.072446  0  -0.092876  -0.122859  0  3.998231  0
C  C76  1  0.29579512  0.50976088  0.90360399  1  1.568944  0  0.224623  0.619405  0  4.154242  0
C  C77  1  0.20420178  0.49023450  0.40359934  1  1.569348  0  0.224814  0.619625  0  4.153995  0
C  C78  1  0.79580149  0.99023646  0.09639809  1  1.568807  0  0.2247  0.619595  0  4.15382  0
C  C79  1  0.70420596  0.00977720  0.59640371  1  1.569028  0  0.224734  0.619626  0  4.153995  0
C  C80  1  0.36130155  0.83558166  0.00841814  1  1.557833  0  0.222948  0.596149  0  4.083527  0
C  C81  1  0.13869434  0.16441960  0.50841028  1  1.557805  0  0.222977  0.596378  0  4.083419  0
C  C82  1  0.86130349  0.66442079  0.99158878  1  1.557871  0  0.223033  0.596597  0  4.082996  0
C  C83  1  0.63870208  0.33558085  0.49159285  1  1.557785  0  0.223  0.596527  0  4.083398  0
C  C84  1  0.23844358  0.90706193  0.01646138  1  0.499922  0  -0.019452  0.138443  0  3.953623  0
C  C85  1  0.26155900  0.09294191  0.51645792  1  0.499924  0  -0.019492  0.13869  0  3.953329  0
C  C86  1  0.73844189  0.59294254  0.98354028  1  0.500061  0  -0.019463  0.138627  0  3.95352  0
C  C87  1  0.76155893  0.40705564  0.48354161  1  0.500184  0  -0.019444  0.138692  0  3.953339  0
C  C88  1  0.23061346  0.41753162  0.62474655  1  1.582332  0  0.22197  0.602163  0  4.17208  0
C  C89  1  0.26937901  0.58246982  0.12474166  1  1.582534  0  0.221806  0.601718  0  4.172112  0
C  C90  1  0.73062235  0.08247652  0.37525646  1  1.592344  0  0.221914  0.602039  0  4.172204  0
C  C91  1  0.76937994  0.91752406  0.87525652  1  1.592285  0  0.221825  0.601811  0  4.172376  0
C  C92  1  0.22561807  0.94673484  0.08841585  1  -0.094405  0  -0.251422  -0.420598  0  3.919937  0
C  C93  1  0.27438033  0.05327032  0.58841195  1  -0.094459  0  -0.251403  -0.420504  0  3.919813  0
C  C94  1  0.72561394  0.55327404  0.91158829  1  -0.094482  0  -0.251433  -0.420534  0  3.920152  0
C  C95  1  0.77438050  0.44672808  0.41158559  1  -0.094653  0  -0.251399  -0.420409  0  3.919787  0
C  C96  1  0.52737858  0.32846482  0.06960122  1  1.556351  0  0.183965  0.50205  0  4.115172  0
C  C97  1  0.97262420  0.67154199  0.56959750  1  1.556292  0  0.184005  0.502107  0  4.115025  0
C  C98  1  0.02738034  0.17154113  0.93038973  1  1.55588  0  0.184105  0.502377  0  4.114738  0
C  C99  1  0.47261836  0.82846110  0.43039254  1  1.555749  0  0.184113  0.502282  0  4.114821  0
N  N100  1  0.04430188  0.44300361  0.84774107  1  -1.236277  0  -0.585863  -0.610223  0  3.340694  0
N  N101  1  0.45569912  0.55698597  0.34774338  1  -1.235981  0  -0.585895  -0.610302  0  3.340672  0
N  N102  1  0.54430037  0.05697864  0.15225873  1  -1.235985  0  -0.585964  -0.610469  0  3.340708  0
N  N103  1  0.95570009  0.94301803  0.65226343  1  -1.236096  0  -0.585889  -0.61033  0  3.340676  0
O  O104  1  0.19636641  0.54161352  0.93573208  1  -1.196123  0  -0.316828  -0.568385  0  2.399963  0
O  O105  1  0.30362843  0.45836852  0.43572736  1  -1.196034  0  -0.317007  -0.568584  0  2.399697  0
O  O106  1  0.69638067  0.95838491  0.06426470  1  -1.196052  0  -0.316865  -0.568467  0  2.399751  0
O  O107  1  0.80362980  0.04162280  0.56427458  1  -1.195985  0  -0.316875  -0.568417  0  2.399627  0
O  O108  1  0.40910208  0.50632339  0.92663853  1  -1.162045  0  -0.306419  -0.545537  0  2.348715  0
O  O109  1  0.09090431  0.49366922  0.42663746  1  -1.162539  0  -0.306475  -0.545592  0  2.349146  0
O  O110  1  0.90910566  0.99368422  0.07336193  1  -1.162073  0  -0.306382  -0.545553  0  2.34863  0
O  O111  1  0.59090764  0.00631730  0.57335982  1  -1.162149  0  -0.30649  -0.545706  0  2.349003  0
O  O112  1  0.56058312  0.41357062  0.03632334  1  -1.155461  0  -0.271003  -0.438751  0  2.365585  0
O  O113  1  0.93941213  0.58643025  0.53632276  1  -1.155433  0  -0.271076  -0.438861  0  2.365502  0
O  O114  1  0.06060891  0.08641685  0.96366511  1  -1.155135  0  -0.271214  -0.439155  0  2.364854  0
O  O115  1  0.43940881  0.91357378  0.46366929  1  -1.155399  0  -0.271077  -0.43889  0  2.365211  0
O  O116  1  0.11788868  0.43400120  0.60188146  1  -1.178388  0  -0.320156  -0.578833  0  2.360584  0
O  O117  1  0.38210678  0.56600038  0.10187793  1  -1.178275  0  -0.320067  -0.578638  0  2.360627  0
O  O118  1  0.61789270  0.06599491  0.39811923  1  -1.188106  0  -0.32013  -0.57878  0  2.360517  0
O  O119  1  0.88210468  0.93399589  0.89812109  1  -1.188134  0  -0.32008  -0.578675  0  2.360645  0
O  O120  1  0.33036156  0.38833519  0.59269383  1  -1.175143  0  -0.312306  -0.548313  0  2.339534  0
O  O121  1  0.16962339  0.61166031  0.09269147  1  -1.175435  0  -0.312237  -0.548066  0  2.33953  0
O  O122  1  0.83037022  0.11165783  0.40731004  1  -1.175399  0  -0.312242  -0.548202  0  2.339752  0
O  O123  1  0.66963479  0.88832941  0.90731175  1  -1.175384  0  -0.312194  -0.548071  0  2.339884  0
O  O124  1  0.12970644  0.84209061  0.99547130  1  -1.14946  0  -0.401187  -0.628205  0  2.44739  0
O  O125  1  0.37030250  0.15791035  0.49547192  1  -1.149393  0  -0.401138  -0.62811  0  2.447307  0
O  O126  1  0.62970059  0.65791322  0.00452656  1  -1.149383  0  -0.40117  -0.628148  0  2.447414  0
O  O127  1  0.87030057  0.34209047  0.50452894  1  -1.149529  0  -0.401216  -0.628216  0  2.447427  0
O  O128  1  0.34898143  0.72772599  0.99239742  1  -1.190127  0  -0.308739  -0.574903  0  2.472285  0
O  O129  1  0.15102080  0.27228113  0.49239418  1  -1.190246  0  -0.308752  -0.574996  0  2.472212  0
O  O130  1  0.84899065  0.77227299  0.00761346  1  -1.190204  0  -0.308791  -0.57504  0  2.472314  0
O  O131  1  0.65102296  0.22772280  0.50761287  1  -1.190301  0  -0.308802  -0.5751  0  2.472243  0
O  O132  1  0.46680031  0.88704803  0.01905874  1  -1.180912  0  -0.310768  -0.533747  0  2.311486  0
O  O133  1  0.03319937  0.11295492  0.51904027  1  -1.180767  0  -0.310756  -0.533847  0  2.311697  0
O  O134  1  0.96679954  0.61294542  0.98095100  1  -1.180917  0  -0.310795  -0.533997  0  2.311261  0
O  O135  1  0.53320608  0.38704313  0.48094871  1  -1.180724  0  -0.310743  -0.533935  0  2.311679  0
O  O136  1  0.60994407  0.24823655  0.08782311  1  -1.152147  0  -0.32605  -0.414172  0  2.350896  0
O  O137  1  0.89005670  0.75176489  0.58782034  1  -1.152197  0  -0.326028  -0.414212  0  2.350768  0
O  O138  1  0.10995627  0.25174731  0.91216823  1  -1.152308  0  -0.325942  -0.414062  0  2.351113  0
O  O139  1  0.39004635  0.74823750  0.41218162  1  -1.152267  0  -0.326108  -0.414157  0  2.35083  0
