# generated using pymatgen
data_HgH9C13NCl2
_symmetry_space_group_name_H-M   'P 1'
_cell_length_a   7.27250330
_cell_length_b   10.13569691
_cell_length_c   9.93972153
_cell_angle_alpha   120.65407903
_cell_angle_beta   106.75587685
_cell_angle_gamma   90.00030699
_symmetry_Int_Tables_number   1
_chemical_formula_structural   HgH9C13NCl2
_chemical_formula_sum   'Hg2 H18 C26 N2 Cl4'
_cell_volume   593.84435749
_cell_formula_units_Z   2
loop_
 _symmetry_equiv_pos_site_id
 _symmetry_equiv_pos_as_xyz
  1  'x, y, z'
loop_
 _atom_site_type_symbol
 _atom_site_label
 _atom_site_symmetry_multiplicity
 _atom_site_fract_x
 _atom_site_fract_y
 _atom_site_fract_z
 _atom_site_occupancy
 _atom_site_hle17_bader_spin_density
 _atom_site_hle17_ddec_charge
 _atom_site_hle17_ddec_spin_density
 _atom_site_hle17_ddec_sum_bond_order
 _atom_site_hle17_magmom
 _atom_site_hse06_10hf_bader_spin_density
 _atom_site_hse06_10hf_ddec_charge
 _atom_site_hse06_10hf_ddec_spin_density
 _atom_site_hse06_10hf_ddec_sum_bond_order
 _atom_site_hse06_10hf_magmom
 _atom_site_hse06_bader_spin_density
 _atom_site_hse06_ddec_charge
 _atom_site_hse06_ddec_spin_density
 _atom_site_hse06_ddec_sum_bond_order
 _atom_site_hse06_magmom
 _atom_site_pbe_bader_spin_density
 _atom_site_pbe_cm5_charge
 _atom_site_pbe_ddec_charge
 _atom_site_pbe_ddec_spin_density
 _atom_site_pbe_ddec_sum_bond_order
 _atom_site_pbe_magmom
Hg  Hg0  1  0.74999695  0.92576246  0.99999541  1  0  0.753466  0  2.122791  0  0  0.61453  0  2.614469  0  0  0.663232  0  2.580929  0  0  0.506362  0.582859  0  2.635674  0
Hg  Hg1  1  0.25000091  0.07423900  0.00000362  1  0  0.753472  0  2.122807  0  0  0.61454  0  2.614487  0  0  0.663244  0  2.580945  0  0  0.506371  0.582869  0  2.63569  0
H  H2  1  0.00061014  0.94706470  0.26885538  1  0  0.094268  0  0.99862  0  0  0.102484  0  1.070684  0  0  0.105272  0  1.069287  0  0  0.087561  0.101322  0  1.070386  0
H  H3  1  0.49939103  0.67820447  0.73113546  1  0  0.094213  0  0.998705  0  0  0.102423  0  1.070777  0  0  0.105211  0  1.069379  0  0  0.08752  0.101258  0  1.07048  0
H  H4  1  0.99938913  0.05293679  0.73114599  1  0  0.094261  0  0.998667  0  0  0.102487  0  1.070719  0  0  0.105276  0  1.069319  0  0  0.087555  0.101326  0  1.070428  0
H  H5  1  0.50061033  0.32179341  0.26886053  1  0  0.094245  0  0.998775  0  0  0.102443  0  1.070826  0  0  0.10523  0  1.06943  0  0  0.08755  0.101285  0  1.070524  0
H  H6  1  0.74999634  0.31711370  0.00000135  1  0  0.110919  0  0.933591  0  0  0.119401  0  1.001933  0  0  0.122023  0  0.999571  0  0  0.106226  0.11738  0  1.00294  0
H  H7  1  0.25000294  0.68288777  0.99999900  1  0  0.110952  0  0.933474  0  0  0.119418  0  1.001826  0  0  0.122057  0  0.999446  0  0  0.106248  0.117395  0  1.002824  0
H  H8  1  0.21383581  0.94797720  0.51284228  1  0  0.09137  0  0.950653  0  0  0.104363  0  1.00757  0  0  0.106356  0  1.007088  0  0  0.09858  0.102152  0  1.008677  0
H  H9  1  0.28615883  0.43513466  0.48715117  1  0  0.091335  0  0.95058  0  0  0.104322  0  1.007517  0  0  0.106317  0  1.007034  0  0  0.098542  0.102099  0  1.008651  0
H  H10  1  0.78616463  0.05202309  0.48715774  1  0  0.091404  0  0.950638  0  0  0.104384  0  1.007563  0  0  0.106378  0  1.007079  0  0  0.098583  0.102173  0  1.008665  0
H  H11  1  0.71384219  0.56486218  0.51284926  1  0  0.091315  0  0.950564  0  0  0.104318  0  1.007495  0  0  0.106312  0  1.007013  0  0  0.098543  0.102097  0  1.008622  0
H  H12  1  0.20985778  0.71083017  0.52502462  1  0  0.09587  0  0.960264  0  0  0.105674  0  1.023166  0  0  0.108431  0  1.022705  0  0  0.093918  0.102982  0  1.02458  0
H  H13  1  0.29013715  0.18581031  0.47497725  1  0  0.095799  0  0.960355  0  0  0.105642  0  1.023225  0  0  0.108403  0  1.022757  0  0  0.093886  0.102947  0  1.02464  0
H  H14  1  0.79014269  0.28917008  0.47497336  1  0  0.095876  0  0.960206  0  0  0.105672  0  1.023115  0  0  0.108431  0  1.022649  0  0  0.093926  0.102977  0  1.024524  0
H  H15  1  0.70985957  0.81418658  0.52502326  1  0  0.095797  0  0.960371  0  0  0.105633  0  1.02323  0  0  0.10839  0  1.022771  0  0  0.093881  0.102942  0  1.024643  0
H  H16  1  0.99251381  0.46094263  0.28228856  1  0  0.098187  0  0.980218  0  0  0.107364  0  1.046816  0  0  0.11026  0  1.044907  0  0  0.09055  0.106212  0  1.04651  0
H  H17  1  0.50747760  0.17865746  0.71771291  1  0  0.098219  0  0.980309  0  0  0.107418  0  1.046873  0  0  0.110314  0  1.044965  0  0  0.090576  0.106265  0  1.046568  0
H  H18  1  0.00748690  0.53905886  0.71771311  1  0  0.098199  0  0.980181  0  0  0.107364  0  1.046796  0  0  0.110259  0  1.044888  0  0  0.090567  0.106211  0  1.04648  0
H  H19  1  0.49252253  0.82134174  0.28228951  1  0  0.098169  0  0.980369  0  0  0.107381  0  1.046926  0  0  0.110277  0  1.045017  0  0  0.090552  0.106232  0  1.046613  0
C  C20  1  0.87001080  0.70242155  0.13358597  1  0  0.219536  0  3.770027  0  0  0.211694  0  4.008828  0  0  0.222757  0  4.031171  0  0  0.114344  0.203732  0  3.994805  0
C  C21  1  0.62998763  0.56883501  0.86641173  1  0  0.219626  0  3.770226  0  0  0.211878  0  4.008899  0  0  0.222942  0  4.031243  0  0  0.114467  0.203911  0  3.994874  0
C  C22  1  0.12998676  0.29757879  0.86641445  1  0  0.219597  0  3.769974  0  0  0.211776  0  4.008766  0  0  0.22284  0  4.031108  0  0  0.114387  0.203819  0  3.994743  0
C  C23  1  0.37001283  0.43116524  0.13358625  1  0  0.219687  0  3.770278  0  0  0.211889  0  4.009006  0  0  0.222954  0  4.03135  0  0  0.114469  0.203917  0  3.994999  0
C  C24  1  0.99753929  0.84080256  0.27166432  1  0  -0.174839  0  3.728745  0  0  -0.191167  0  3.977713  0  0  -0.200038  0  4.000023  0  0  -0.100994  -0.186694  0  3.963564  0
C  C25  1  0.50244850  0.56913669  0.72832286  1  0  -0.174845  0  3.728897  0  0  -0.191182  0  3.977836  0  0  -0.200052  0  4.000145  0  0  -0.101011  -0.186698  0  3.963672  0
C  C26  1  0.00246202  0.15919541  0.72833573  1  0  -0.174863  0  3.728639  0  0  -0.191205  0  3.9776  0  0  -0.200076  0  3.999908  0  0  -0.100992  -0.186739  0  3.963462  0
C  C27  1  0.49755082  0.43085899  0.27167661  1  0  -0.174969  0  3.728683  0  0  -0.191273  0  3.977649  0  0  -0.200142  0  3.999956  0  0  -0.10104  -0.186791  0  3.963496  0
C  C28  1  0.74999679  0.42487165  0.99999998  1  0  -0.053405  0  3.624759  0  0  -0.088273  0  3.876246  0  0  -0.081085  0  3.890334  0  0  -0.050506  -0.092258  0  3.86669  0
C  C29  1  0.25000592  0.57512975  0.00000228  1  0  -0.053315  0  3.624711  0  0  -0.088155  0  3.876174  0  0  -0.080981  0  3.890257  0  0  -0.050446  -0.092135  0  3.866607  0
C  C30  1  0.11636256  0.84112312  0.40747532  1  0  -0.012604  0  3.731256  0  0  -0.025656  0  3.974678  0  0  -0.022746  0  3.995211  0  0  -0.074438  -0.026468  0  3.962234  0
C  C31  1  0.38364294  0.43364805  0.59252515  1  0  -0.012569  0  3.731615  0  0  -0.025623  0  3.975086  0  0  -0.022715  0  3.995626  0  0  -0.074405  -0.026437  0  3.962624  0
C  C32  1  0.88363646  0.15887716  0.59252338  1  0  -0.012663  0  3.731149  0  0  -0.025697  0  3.974569  0  0  -0.022787  0  3.995101  0  0  -0.074453  -0.02651  0  3.962121  0
C  C33  1  0.61635943  0.56636037  0.40747835  1  0  -0.01255  0  3.731689  0  0  -0.025628  0  3.975174  0  0  -0.02272  0  3.995716  0  0  -0.07444  -0.026445  0  3.962714  0
C  C34  1  0.11501241  0.70469854  0.41417003  1  0  -0.06912  0  3.754116  0  0  -0.084638  0  4.006846  0  0  -0.090172  0  4.03021  0  0  -0.091297  -0.08203  0  3.992721  0
C  C35  1  0.38497385  0.29052851  0.58582180  1  0  -0.068996  0  3.753889  0  0  -0.084521  0  4.00659  0  0  -0.090055  0  4.029952  0  0  -0.091227  -0.081924  0  3.99249  0
C  C36  1  0.88498944  0.29530179  0.58583233  1  0  -0.06912  0  3.754134  0  0  -0.084626  0  4.006857  0  0  -0.090159  0  4.030221  0  0  -0.091312  -0.082012  0  3.992718  0
C  C37  1  0.61503174  0.70946948  0.41418121  1  0  -0.068953  0  3.753916  0  0  -0.084455  0  4.006633  0  0  -0.08999  0  4.029995  0  0  -0.091175  -0.081859  0  3.99254  0
C  C38  1  0.99595052  0.56821481  0.28177895  1  0  -0.08911  0  3.719739  0  0  -0.109029  0  3.965285  0  0  -0.109287  0  3.987331  0  0  -0.084338  -0.108723  0  3.949848  0
C  C39  1  0.50405170  0.28643614  0.71822570  1  0  -0.089237  0  3.719636  0  0  -0.10918  0  3.965247  0  0  -0.109439  0  3.987298  0  0  -0.084381  -0.108869  0  3.949794  0
C  C40  1  0.00405191  0.43178781  0.71822266  1  0  -0.089101  0  3.719664  0  0  -0.10901  0  3.96523  0  0  -0.109269  0  3.987278  0  0  -0.084348  -0.108703  0  3.949778  0
C  C41  1  0.49594475  0.71356528  0.28177099  1  0  -0.089174  0  3.719269  0  0  -0.109126  0  3.964855  0  0  -0.109382  0  3.986898  0  0  -0.084351  -0.108825  0  3.94942  0
C  C42  1  0.87133859  0.56225048  0.13801658  1  0  0.008697  0  3.787486  0  0  0.028242  0  4.01733  0  0  0.021977  0  4.042057  0  0  -0.005067  0.032082  0  4.001073  0
C  C43  1  0.62865402  0.42423589  0.86198012  1  0  0.008762  0  3.787442  0  0  0.028246  0  4.017326  0  0  0.021981  0  4.042053  0  0  -0.00509  0.032088  0  4.001067  0
C  C44  1  0.12866213  0.43775097  0.86198408  1  0  0.00862  0  3.787464  0  0  0.028139  0  4.017339  0  0  0.021872  0  4.042072  0  0  -0.005112  0.031978  0  4.00108  0
C  C45  1  0.37134128  0.57576096  0.13801806  1  0  0.008695  0  3.787522  0  0  0.028217  0  4.017379  0  0  0.02195  0  4.042112  0  0  -0.005116  0.032057  0  4.001129  0
N  N46  1  0.74999385  0.70167739  0.99998966  1  0  -0.362831  0  3.245105  0  0  -0.280836  0  3.502926  0  0  -0.308309  0  3.526479  0  0  -0.299871  -0.264075  0  3.488443  0
N  N47  1  0.25000744  0.29832399  0.00001128  1  0  -0.362897  0  3.245163  0  0  -0.280905  0  3.503019  0  0  -0.308379  0  3.52657  0  0  -0.299934  -0.264144  0  3.488539  0
Cl  Cl48  1  0.99516815  0.17582189  0.19786315  1  0  -0.486345  0  1.030418  0  0  -0.43178  0  1.318463  0  0  -0.450784  0  1.300529  0  0  -0.259943  -0.416546  0  1.328421  0
Cl  Cl49  1  0.50482180  0.97795737  0.80213295  1  0  -0.486352  0  1.030404  0  0  -0.431791  0  1.318456  0  0  -0.450793  0  1.300525  0  0  -0.259957  -0.416559  0  1.328414  0
Cl  Cl50  1  0.00483032  0.82417606  0.80213426  1  0  -0.486343  0  1.030402  0  0  -0.431783  0  1.318448  0  0  -0.450784  0  1.300512  0  0  -0.259948  -0.416549  0  1.328402  0
Cl  Cl51  1  0.49517377  0.02204067  0.19786689  1  0  -0.486358  0  1.030381  0  0  -0.431802  0  1.318426  0  0  -0.450803  0  1.300489  0  0  -0.259971  -0.416571  0  1.32838  0
