# generated using pymatgen
data_AgH10C10N5O3
_symmetry_space_group_name_H-M   'P 1'
_cell_length_a   3.82699078
_cell_length_b   15.23674600
_cell_length_c   19.73900000
_cell_angle_alpha   90.00000000
_cell_angle_beta   90.00000000
_cell_angle_gamma   90.00000000
_symmetry_Int_Tables_number   1
_chemical_formula_structural   AgH10C10N5O3
_chemical_formula_sum   'Ag4 H40 C40 N20 O12'
_cell_volume   1150.99858804
_cell_formula_units_Z   4
loop_
 _symmetry_equiv_pos_site_id
 _symmetry_equiv_pos_as_xyz
  1  'x, y, z'
loop_
 _atom_site_type_symbol
 _atom_site_label
 _atom_site_symmetry_multiplicity
 _atom_site_fract_x
 _atom_site_fract_y
 _atom_site_fract_z
 _atom_site_occupancy
 _atom_site_hle17_bader_spin_density
 _atom_site_hle17_ddec_charge
 _atom_site_hle17_ddec_spin_density
 _atom_site_hle17_ddec_sum_bond_order
 _atom_site_hle17_magmom
 _atom_site_hse06_10hf_bader_spin_density
 _atom_site_hse06_10hf_ddec_charge
 _atom_site_hse06_10hf_ddec_spin_density
 _atom_site_hse06_10hf_ddec_sum_bond_order
 _atom_site_hse06_10hf_magmom
 _atom_site_hse06_bader_spin_density
 _atom_site_hse06_ddec_charge
 _atom_site_hse06_ddec_spin_density
 _atom_site_hse06_ddec_sum_bond_order
 _atom_site_hse06_magmom
 _atom_site_pbe_bader_charge
 _atom_site_pbe_bader_spin_density
 _atom_site_pbe_cm5_charge
 _atom_site_pbe_ddec_charge
 _atom_site_pbe_ddec_spin_density
 _atom_site_pbe_ddec_sum_bond_order
 _atom_site_pbe_magmom
Ag  Ag0  1  0.00000261  0.36971017  0.75000000  1  0  0.57072  0  1.418707  0  0  0.434717  0  1.866563  0  0  0.461196  0  1.821293  0  0.609408  0  0.487516  0.416935  0  1.898037  0
Ag  Ag1  1  0.50000382  0.13028963  0.24999949  1  0  0.570656  0  1.418716  0  0  0.434661  0  1.86659  0  0  0.461144  0  1.821315  0  0.60954  0  0.487492  0.41688  0  1.898064  0
Ag  Ag2  1  0.00000000  0.63028943  0.25000000  1  0  0.570661  0  1.418725  0  0  0.434667  0  1.86659  0  0  0.461146  0  1.821326  0  0.609538  0  0.48748  0.416885  0  1.898067  0
Ag  Ag3  1  0.49999859  0.86970998  0.75000000  1  0  0.570729  0  1.418713  0  0  0.434727  0  1.866582  0  0  0.461208  0  1.82131  0  0.609427  0  0.487527  0.416945  0  1.898058  0
H  H4  1  0.86522288  0.73248711  0.36483054  1  0  0.128506  0  0.984091  0  0  0.14091  0  1.059319  0  0  0.144097  0  1.056226  0  0.102492  0  0.091899  0.138414  0  1.061725  0
H  H5  1  0.63477028  0.76751296  0.86483003  1  0  0.128484  0  0.984081  0  0  0.140874  0  1.059335  0  0  0.144051  0  1.056252  0  0.101812  0  0.091888  0.138381  0  1.061739  0
H  H6  1  0.13477691  0.73248645  0.13516997  1  0  0.128493  0  0.984087  0  0  0.140892  0  1.059322  0  0  0.14408  0  1.056229  0  0.102482  0  0.091896  0.138395  0  1.061727  0
H  H7  1  0.36522429  0.76751427  0.63516895  1  0  0.128447  0  0.984093  0  0  0.140875  0  1.059322  0  0  0.144059  0  1.056228  0  0.10252  0  0.091881  0.138374  0  1.061731  0
H  H8  1  0.13477691  0.26751447  0.63516946  1  0  0.128437  0  0.984151  0  0  0.14086  0  1.059377  0  0  0.144043  0  1.056285  0  0.102486  0  0.091875  0.138359  0  1.061785  0
H  H9  1  0.36522952  0.23248534  0.13516895  1  0  0.128465  0  0.984089  0  0  0.140883  0  1.059325  0  0  0.144066  0  1.056235  0  0.102046  0  0.091882  0.138382  0  1.061735  0
H  H10  1  0.86522288  0.26751316  0.86483054  1  0  0.128505  0  0.984067  0  0  0.140904  0  1.059298  0  0  0.14409  0  1.056207  0  0.1025  0  0.091895  0.138408  0  1.061704  0
H  H11  1  0.63477812  0.23248665  0.36483003  1  0  0.128492  0  0.984079  0  0  0.140902  0  1.059304  0  0  0.144086  0  1.056214  0  0.102479  0  0.091899  0.1384  0  1.061714  0
H  H12  1  0.95547656  0.74206199  0.45417549  1  0  0.135917  0  0.943699  0  0  0.154614  0  1.006637  0  0  0.157  0  1.005082  0  0.091849  0  0.099377  0.152949  0  1.007679  0
H  H13  1  0.54451921  0.75793808  0.95417448  1  0  0.135893  0  0.94374  0  0  0.15459  0  1.006689  0  0  0.156977  0  1.005131  0  0.091882  0  0.099367  0.152925  0  1.007731  0
H  H14  1  0.04452323  0.74206067  0.04582502  1  0  0.135906  0  0.943693  0  0  0.15459  0  1.006644  0  0  0.156976  0  1.00509  0  0.091863  0  0.099374  0.152924  0  1.007686  0
H  H15  1  0.45547536  0.75793939  0.54582400  1  0  0.135936  0  0.943702  0  0  0.154625  0  1.006648  0  0  0.157012  0  1.005091  0  0.091825  0  0.099401  0.15296  0  1.00769  0
H  H16  1  0.04452323  0.25794025  0.54582400  1  0  0.135883  0  0.943692  0  0  0.154579  0  1.00663  0  0  0.156965  0  1.005074  0  0.091856  0  0.099377  0.152914  0  1.007672  0
H  H17  1  0.45548059  0.24206021  0.04582400  1  0  0.135898  0  0.943696  0  0  0.154594  0  1.006637  0  0  0.156981  0  1.00508  0  0.091861  0  0.099369  0.152929  0  1.007679  0
H  H18  1  0.95547656  0.25793828  0.95417600  1  0  0.135884  0  0.943723  0  0  0.154575  0  1.006667  0  0  0.156961  0  1.005114  0  0.091843  0  0.099362  0.15291  0  1.00771  0
H  H19  1  0.54452444  0.24206087  0.45417549  1  0  0.135888  0  0.943698  0  0  0.154579  0  1.006651  0  0  0.156965  0  1.005096  0  0.091857  0  0.099379  0.152914  0  1.007694  0
H  H20  1  0.27910441  0.76733182  0.39266781  1  0  0.14162  0  0.931475  0  0  0.16491  0  0.988068  0  0  0.165853  0  0.988688  0  0.089172  0  0.105428  0.164164  0  0.987695  0
H  H21  1  0.22088634  0.73266694  0.89266731  1  0  0.141574  0  0.931491  0  0  0.164859  0  0.988095  0  0  0.165807  0  0.988708  0  0.08912  0  0.105406  0.164114  0  0.987722  0
H  H22  1  0.72089539  0.76733379  0.10733269  1  0  0.141591  0  0.931471  0  0  0.164865  0  0.988089  0  0  0.165815  0  0.988701  0  0.089139  0  0.10541  0.16412  0  0.987716  0
H  H23  1  0.77910823  0.73266890  0.60733168  1  0  0.14158  0  0.931425  0  0  0.164877  0  0.988037  0  0  0.165811  0  0.988668  0  0.089176  0  0.105417  0.164132  0  0.987662  0
H  H24  1  0.72089277  0.23266910  0.60733219  1  0  0.14158  0  0.931425  0  0  0.16487  0  0.988036  0  0  0.165803  0  0.988668  0  0.089183  0  0.105418  0.164124  0  0.987661  0
H  H25  1  0.77911084  0.26733070  0.10733219  1  0  0.141594  0  0.93147  0  0  0.16488  0  0.988078  0  0  0.16582  0  0.988703  0  0.089158  0  0.105418  0.164135  0  0.987704  0
H  H26  1  0.27910702  0.23266713  0.89266781  1  0  0.141621  0  0.931447  0  0  0.164893  0  0.988061  0  0  0.165842  0  0.988675  0  0.089149  0  0.105419  0.164148  0  0.987688  0
H  H27  1  0.22089418  0.26733267  0.39266731  1  0  0.141565  0  0.931417  0  0  0.164842  0  0.988046  0  0  0.165793  0  0.988657  0  0.08916  0  0.105405  0.164097  0  0.987672  0
H  H28  1  0.34766480  0.46740426  0.30136329  1  0  0.084871  0  0.965058  0  0  0.087477  0  1.041507  0  0  0.090632  0  1.036128  0  0.137702  0  0.117748  0.08489  0  1.045802  0
H  H29  1  0.15233640  0.03259620  0.80136329  1  0  0.084854  0  0.965066  0  0  0.087464  0  1.041517  0  0  0.090618  0  1.03614  0  0.137699  0  0.117741  0.084876  0  1.045813  0
H  H30  1  0.65233499  0.46740426  0.19863772  1  0  0.084855  0  0.96503  0  0  0.087452  0  1.041499  0  0  0.090607  0  1.03612  0  0.137469  0  0.117752  0.084865  0  1.045794  0
H  H31  1  0.84767123  0.03259489  0.69863671  1  0  0.08484  0  0.96506  0  0  0.087452  0  1.041505  0  0  0.090604  0  1.03613  0  0.137503  0  0.117718  0.084864  0  1.045801  0
H  H32  1  0.65233760  0.53259600  0.69863772  1  0  0.084865  0  0.965035  0  0  0.087471  0  1.041486  0  0  0.090624  0  1.03611  0  0.137446  0  0.117754  0.084883  0  1.045781  0
H  H33  1  0.84766862  0.96740341  0.19863772  1  0  0.08485  0  0.965017  0  0  0.08746  0  1.041481  0  0  0.090616  0  1.0361  0  0.137667  0  0.117747  0.084873  0  1.045776  0
H  H34  1  0.34766742  0.53259469  0.80136380  1  0  0.084856  0  0.96506  0  0  0.087468  0  1.041509  0  0  0.090621  0  1.036133  0  0.137711  0  0.117735  0.08488  0  1.045805  0
H  H35  1  0.15232595  0.96740603  0.30136228  1  0  0.08486  0  0.965  0  0  0.087468  0  1.041447  0  0  0.090623  0  1.036069  0  0.137485  0  0.117751  0.084881  0  1.045741  0
H  H36  1  0.59016082  0.40228996  0.40830184  1  0  0.139133  0  0.949695  0  0  0.147516  0  1.010748  0  0  0.151376  0  1.009133  0  0.120007  0  0.1188  0.144681  0  1.012208  0
H  H37  1  0.90984280  0.09771050  0.90830184  1  0  0.139081  0  0.949684  0  0  0.147461  0  1.010746  0  0  0.15132  0  1.009133  0  0.120017  0  0.118774  0.144626  0  1.012204  0
H  H38  1  0.40983898  0.40228996  0.09169917  1  0  0.139103  0  0.949677  0  0  0.147481  0  1.01074  0  0  0.151339  0  1.009125  0  0.120014  0  0.118783  0.144645  0  1.012199  0
H  H39  1  0.09016222  0.09771115  0.59169867  1  0  0.139118  0  0.9497  0  0  0.147497  0  1.010764  0  0  0.151356  0  1.009149  0  0.119996  0  0.118799  0.144662  0  1.012224  0
H  H40  1  0.40984159  0.59771095  0.59169968  1  0  0.13911  0  0.949687  0  0  0.14749  0  1.010744  0  0  0.151348  0  1.009129  0  0.120002  0  0.118792  0.144655  0  1.012203  0
H  H41  1  0.09016222  0.90228845  0.09169917  1  0  0.139078  0  0.949714  0  0  0.147461  0  1.010773  0  0  0.151319  0  1.009158  0  0.119969  0  0.118783  0.144626  0  1.012232  0
H  H42  1  0.59015298  0.59771030  0.90830184  1  0  0.139147  0  0.949673  0  0  0.147532  0  1.010721  0  0  0.151392  0  1.009106  0  0.119998  0  0.118805  0.144696  0  1.01218  0
H  H43  1  0.90982712  0.90229108  0.40829981  1  0  0.139057  0  0.94967  0  0  0.147433  0  1.010743  0  0  0.151293  0  1.009126  0  0.120022  0  0.118763  0.144598  0  1.012202  0
C  C44  1  0.19264483  0.63076460  0.40660976  1  0  0.476862  0  3.696241  0  0  0.469647  0  3.944922  0  0  0.484951  0  3.960958  0  1.064423  0  0.250823  0.459356  0  3.933889  0
C  C45  1  0.30734331  0.86923547  0.90660874  1  0  0.476725  0  3.696459  0  0  0.469582  0  3.945043  0  0  0.484886  0  3.96108  0  1.064331  0  0.250753  0.45929  0  3.934009  0
C  C46  1  0.80734451  0.63076394  0.09339126  1  0  0.476792  0  3.696431  0  0  0.46958  0  3.945107  0  0  0.484884  0  3.961145  0  1.064343  0  0.250781  0.459288  0  3.934072  0
C  C47  1  0.69264865  0.86923678  0.59338974  1  0  0.476608  0  3.696398  0  0  0.469457  0  3.945008  0  0  0.48476  0  3.961044  0  1.064374  0  0.250745  0.459166  0  3.933974  0
C  C48  1  0.80735235  0.36923763  0.59339024  1  0  0.476866  0  3.69638  0  0  0.469581  0  3.945136  0  0  0.484884  0  3.961172  0  1.064093  0  0.250816  0.45929  0  3.9341  0
C  C49  1  0.69265126  0.13076217  0.09339075  1  0  0.476585  0  3.69658  0  0  0.469388  0  3.945249  0  0  0.48469  0  3.961287  0  1.064107  0  0.2507  0.459098  0  3.934214  0
C  C50  1  0.19265267  0.36923566  0.90661026  1  0  0.476861  0  3.696282  0  0  0.469597  0  3.94502  0  0  0.484899  0  3.96106  0  1.064334  0  0.250797  0.459306  0  3.933986  0
C  C51  1  0.30734853  0.13076480  0.40660824  1  0  0.476819  0  3.69647  0  0  0.469687  0  3.945037  0  0  0.484992  0  3.961073  0  1.064319  0  0.250821  0.459396  0  3.934001  0
C  C52  1  0.44108546  0.51716817  0.46675819  1  0  0.221252  0  3.749841  0  0  0.21605  0  3.999746  0  0  0.22597  0  4.015837  0  0.501391  0  0.134604  0.20956  0  3.988709  0
C  C53  1  0.05891052  0.98283059  0.96675769  1  0  0.221278  0  3.749784  0  0  0.216049  0  3.999722  0  0  0.225971  0  4.015813  0  0.501389  0  0.134606  0.209558  0  3.988683  0
C  C54  1  0.55891433  0.51716882  0.03324231  1  0  0.221224  0  3.74985  0  0  0.216012  0  3.999758  0  0  0.225932  0  4.015848  0  0.457466  0  0.134629  0.209521  0  3.98872  0
C  C55  1  0.94108928  0.98283255  0.53324181  1  0  0.22115  0  3.749846  0  0  0.215968  0  3.99974  0  0  0.225888  0  4.015832  0  0.457434  0  0.13454  0.209487  0  3.988708  0
C  C56  1  0.55891433  0.48283341  0.53324231  1  0  0.221188  0  3.749909  0  0  0.215967  0  3.999826  0  0  0.225885  0  4.015918  0  0.457312  0  0.134553  0.209477  0  3.988788  0
C  C57  1  0.94108667  0.01716639  0.03324181  1  0  0.221043  0  3.749966  0  0  0.21587  0  3.999857  0  0  0.225786  0  4.01595  0  0.457312  0  0.134533  0.209381  0  3.988818  0
C  C58  1  0.44108024  0.48283144  0.96675921  1  0  0.221193  0  3.749892  0  0  0.216014  0  3.999767  0  0  0.225933  0  4.01586  0  0.501417  0  0.134623  0.209523  0  3.98873  0
C  C59  1  0.05891052  0.01716968  0.46675667  1  0  0.221255  0  3.749757  0  0  0.215993  0  3.999727  0  0  0.225913  0  4.015817  0  0.501433  0  0.134593  0.209467  0  3.988737  0
C  C60  1  0.06077099  0.72283478  0.40475151  1  0  -0.415971  0  3.668792  0  0  -0.501097  0  3.904255  0  0  -0.504986  0  3.90906  0  -0.114182  0  -0.242909  -0.498014  0  3.900962  0
C  C61  1  0.43922238  0.77716528  0.90475100  1  0  -0.415843  0  3.668839  0  0  -0.500984  0  3.904281  0  0  -0.504869  0  3.909096  0  -0.113468  0  -0.242844  -0.497904  0  3.900984  0
C  C62  1  0.93922620  0.72283478  0.09524951  1  0  -0.415928  0  3.668754  0  0  -0.501018  0  3.904212  0  0  -0.504912  0  3.909006  0  -0.114146  0  -0.24289  -0.497934  0  3.900922  0
C  C63  1  0.56076958  0.77716594  0.59524748  1  0  -0.415823  0  3.668707  0  0  -0.500999  0  3.904145  0  0  -0.504876  0  3.908964  0  -0.114163  0  -0.24291  -0.497911  0  3.900855  0
C  C64  1  0.93923142  0.27716679  0.59524900  1  0  -0.415828  0  3.668753  0  0  -0.500952  0  3.904201  0  0  -0.504827  0  3.909015  0  -0.114149  0  -0.242886  -0.497865  0  3.900909  0
C  C65  1  0.56077742  0.22283301  0.09524900  1  0  -0.415825  0  3.668821  0  0  -0.50097  0  3.904258  0  0  -0.504849  0  3.909065  0  -0.113668  0  -0.242856  -0.497884  0  3.900968  0
C  C66  1  0.06077360  0.27716548  0.90475151  1  0  -0.415949  0  3.668757  0  0  -0.501034  0  3.904214  0  0  -0.504925  0  3.909011  0  -0.114152  0  -0.242866  -0.497952  0  3.90092  0
C  C67  1  0.43923022  0.22283432  0.40475100  1  0  -0.41585  0  3.668729  0  0  -0.500987  0  3.90415  0  0  -0.504882  0  3.908957  0  -0.114163  0  -0.242889  -0.497899  0  3.900863  0
C  C68  1  0.34274972  0.50370072  0.34879021  1  0  0.179724  0  3.692048  0  0  0.142314  0  3.956288  0  0  0.154407  0  3.969741  0  0.516152  0  0.060764  0.134265  0  3.947588  0
C  C69  1  0.15724888  0.99629803  0.84878869  1  0  0.179753  0  3.691998  0  0  0.142309  0  3.956276  0  0  0.154403  0  3.969731  0  0.516116  0  0.060762  0.13426  0  3.947576  0
C  C70  1  0.65725269  0.50370072  0.15121181  1  0  0.179784  0  3.691871  0  0  0.14236  0  3.956132  0  0  0.154453  0  3.969583  0  0.516104  0  0.060783  0.134311  0  3.947433  0
C  C71  1  0.84275615  0.99630000  0.65120928  1  0  0.179769  0  3.691988  0  0  0.142343  0  3.956257  0  0  0.154436  0  3.969714  0  0.516142  0  0.060785  0.134295  0  3.947557  0
C  C72  1  0.65725531  0.49630019  0.65121181  1  0  0.179717  0  3.692009  0  0  0.142283  0  3.956254  0  0  0.154375  0  3.969708  0  0.51612  0  0.06074  0.134234  0  3.947555  0
C  C73  1  0.84275092  0.00369961  0.15121131  1  0  0.179738  0  3.691916  0  0  0.142301  0  3.956185  0  0  0.154392  0  3.969638  0  0.51612  0  0.060785  0.134253  0  3.947485  0
C  C74  1  0.34274710  0.49629888  0.84878920  1  0  0.179748  0  3.69203  0  0  0.142304  0  3.956311  0  0  0.154397  0  3.969766  0  0.516101  0  0.060764  0.134255  0  3.947612  0
C  C75  1  0.15724626  0.00370158  0.34878819  1  0  0.179815  0  3.691889  0  0  0.142416  0  3.956117  0  0  0.154508  0  3.96957  0  0.516071  0  0.060815  0.134367  0  3.947417  0
C  C76  1  0.47206019  0.46700719  0.40800902  1  0  -0.169411  0  3.644165  0  0  -0.192662  0  3.893739  0  0  -0.203251  0  3.913714  0  0.037645  0  -0.074654  -0.186012  0  3.880713  0
C  C77  1  0.02793840  0.03299130  0.90800800  1  0  -0.169377  0  3.644034  0  0  -0.192614  0  3.893627  0  0  -0.203199  0  3.913591  0  0.037695  0  -0.074633  -0.185966  0  3.880607  0
C  C78  1  0.52793438  0.46700851  0.09199301  1  0  -0.169477  0  3.644077  0  0  -0.192705  0  3.893641  0  0  -0.2033  0  3.91363  0  0.037674  0  -0.074714  -0.186055  0  3.880614  0
C  C79  1  0.97206140  0.03299261  0.59199149  1  0  -0.169403  0  3.644233  0  0  -0.192644  0  3.893792  0  0  -0.203231  0  3.913762  0  0.037622  0  -0.074648  -0.185994  0  3.880764  0
C  C80  1  0.52793960  0.53299307  0.59199301  1  0  -0.169399  0  3.644147  0  0  -0.192622  0  3.893683  0  0  -0.203214  0  3.913669  0  0.037779  0  -0.074656  -0.185972  0  3.880657  0
C  C81  1  0.97206662  0.96700634  0.09199250  1  0  -0.169301  0  3.644119  0  0  -0.192539  0  3.893653  0  0  -0.203133  0  3.913649  0  0.037767  0  -0.074626  -0.185889  0  3.880626  0
C  C82  1  0.47205758  0.53299176  0.90800800  1  0  -0.169417  0  3.644104  0  0  -0.192665  0  3.893689  0  0  -0.203251  0  3.913656  0  0.037711  0  -0.074648  -0.186015  0  3.880663  0
C  C83  1  0.02793317  0.96700962  0.40800648  1  0  -0.169384  0  3.644035  0  0  -0.192616  0  3.893604  0  0  -0.203206  0  3.91358  0  0.037669  0  -0.074661  -0.185955  0  3.880587  0
N  N84  1  0.30351262  0.59868032  0.46588986  1  0  -0.413248  0  2.965145  0  0  -0.379463  0  3.218583  0  0  -0.395475  0  3.232278  0  -1.206833  0  -0.306307  -0.368791  0  3.20928  0
N  N85  1  0.19648075  0.90131909  0.96588986  1  0  -0.413174  0  2.965135  0  0  -0.379414  0  3.218563  0  0  -0.395426  0  3.232258  0  -1.206847  0  -0.30627  -0.368742  0  3.209259  0
N  N86  1  0.69647934  0.59868032  0.03411064  1  0  -0.413168  0  2.965192  0  0  -0.379391  0  3.218651  0  0  -0.395405  0  3.232347  0  -1.206831  0  -0.30628  -0.36872  0  3.209347  0
N  N87  1  0.80351644  0.90132171  0.53410912  1  0  -0.413089  0  2.965163  0  0  -0.379304  0  3.218523  0  0  -0.395317  0  3.232221  0  -1.206836  0  -0.306183  -0.368633  0  3.209216  0
N  N88  1  0.69648456  0.40132191  0.53411064  1  0  -0.413184  0  2.965277  0  0  -0.379366  0  3.218712  0  0  -0.395378  0  3.23241  0  -1.206801  0  -0.306228  -0.368695  0  3.209407  0
N  N89  1  0.80351644  0.09867724  0.03411014  1  0  -0.413063  0  2.965247  0  0  -0.379285  0  3.218646  0  0  -0.395297  0  3.232344  0  -1.206806  0  -0.306171  -0.368614  0  3.209341  0
N  N90  1  0.30351785  0.40131994  0.96589037  1  0  -0.413205  0  2.965214  0  0  -0.379416  0  3.218652  0  0  -0.395428  0  3.232349  0  -1.206887  0  -0.306316  -0.368745  0  3.209349  0
N  N91  1  0.19648597  0.09867986  0.46588936  1  0  -0.413248  0  2.965199  0  0  -0.379472  0  3.218635  0  0  -0.395487  0  3.232331  0  -1.206815  0  -0.306301  -0.368789  0  3.209344  0
N  N92  1  0.20175382  0.58474099  0.34762146  1  0  -0.406241  0  3.248958  0  0  -0.324776  0  3.527066  0  0  -0.34794  0  3.541268  0  -1.19222  0  -0.342017  -0.309364  0  3.517432  0
N  N93  1  0.29824477  0.91525907  0.84762045  1  0  -0.406198  0  3.249068  0  0  -0.324741  0  3.527165  0  0  -0.347906  0  3.541368  0  -1.192182  0  -0.342023  -0.309329  0  3.517531  0
N  N94  1  0.79824337  0.58474165  0.15238006  1  0  -0.406155  0  3.249012  0  0  -0.324688  0  3.527131  0  0  -0.347852  0  3.541334  0  -1.192231  0  -0.34199  -0.309276  0  3.517496  0
N  N95  1  0.70175764  0.91525842  0.65237854  1  0  -0.406159  0  3.248976  0  0  -0.32473  0  3.527106  0  0  -0.347895  0  3.541311  0  -1.192138  0  -0.342027  -0.309318  0  3.517472  0
N  N96  1  0.79824859  0.41526058  0.65237955  1  0  -0.406251  0  3.249045  0  0  -0.324735  0  3.527162  0  0  -0.347898  0  3.541366  0  -1.191905  0  -0.342023  -0.309323  0  3.517528  0
N  N97  1  0.70175764  0.08473922  0.15237905  1  0  -0.406057  0  3.249069  0  0  -0.324582  0  3.527161  0  0  -0.347744  0  3.541367  0  -1.191911  0  -0.34199  -0.30917  0  3.517524  0
N  N98  1  0.20175382  0.41525861  0.84762095  1  0  -0.406219  0  3.248977  0  0  -0.324712  0  3.527083  0  0  -0.347875  0  3.541287  0  -1.192132  0  -0.341999  -0.3093  0  3.517447  0
N  N99  1  0.29824216  0.08474185  0.34761994  1  0  -0.406229  0  3.249096  0  0  -0.32481  0  3.527207  0  0  -0.347975  0  3.541411  0  -1.19223  0  -0.342022  -0.309397  0  3.517573  0
N  N100  1  0.49999859  0.17786672  0.74999949  1  0  0.705142  0  4.132813  0  0  0.732808  0  4.425196  0  0  0.761197  0  4.431443  0  0.798339  0  0.097545  0.713136  0  4.420613  0
N  N101  1  0.00000261  0.32213374  0.24999949  1  0  0.705026  0  4.132978  0  0  0.732793  0  4.425252  0  0  0.761182  0  4.431499  0  0.798334  0  0.097576  0.713124  0  4.420662  0
N  N102  1  0.49999598  0.82213420  0.25000051  1  0  0.704856  0  4.133025  0  0  0.732724  0  4.425188  0  0  0.761113  0  4.431438  0  0.798257  0  0.097579  0.713052  0  4.420603  0
N  N103  1  0.99999980  0.67786521  0.74999899  1  0  0.705175  0  4.132854  0  0  0.732848  0  4.42523  0  0  0.761236  0  4.431479  0  0.798233  0  0.097604  0.713179  0  4.420637  0
O  O104  1  0.33890074  0.13740270  0.70395613  1  0  -0.46846  0  1.761826  0  0  -0.451721  0  1.980157  0  0  -0.467568  0  1.9759  0  -0.545868  0  -0.188109  -0.439968  0  1.982758  0
O  O105  1  0.16110047  0.36259776  0.20395663  1  0  -0.468439  0  1.76189  0  0  -0.451701  0  1.980189  0  0  -0.467549  0  1.975939  0  -0.54586  0  -0.188106  -0.439949  0  1.982792  0
O  O106  1  0.66109906  0.13740401  0.79604286  1  0  -0.468483  0  1.761764  0  0  -0.451739  0  1.980085  0  0  -0.467594  0  1.975844  0  -0.546168  0  -0.188127  -0.439984  0  1.982687  0
O  O107  1  0.83889933  0.36259645  0.29604235  1  0  -0.468418  0  1.761803  0  0  -0.45174  0  1.980089  0  0  -0.467592  0  1.975845  0  -0.546176  0  -0.188137  -0.439986  0  1.982688  0
O  O108  1  0.66108861  0.86259953  0.29604438  1  0  -0.468383  0  1.761818  0  0  -0.451703  0  1.980092  0  0  -0.467556  0  1.975848  0  -0.545873  0  -0.18813  -0.439951  0  1.982693  0
O  O109  1  0.83891239  0.63740184  0.79604438  1  0  -0.46853  0  1.761742  0  0  -0.451755  0  1.980073  0  0  -0.467609  0  1.975829  0  -0.546067  0  -0.188143  -0.44  0  1.982673  0
O  O110  1  0.33891119  0.86259953  0.20395562  1  0  -0.468415  0  1.761763  0  0  -0.451733  0  1.980041  0  0  -0.467583  0  1.975796  0  -0.546135  0  -0.18816  -0.43998  0  1.982643  0
O  O111  1  0.16107956  0.63739856  0.70395410  1  0  -0.46849  0  1.7618  0  0  -0.451789  0  1.980136  0  0  -0.467635  0  1.975879  0  -0.545924  0  -0.188186  -0.440041  0  1.98274  0
O  O112  1  0.49999859  0.26247074  0.75000000  1  0  -0.544928  0  1.909638  0  0  -0.514929  0  2.19815  0  0  -0.532478  0  2.182021  0  -0.566709  0  -0.235916  -0.502293  0  2.209208  0
O  O113  1  0.00000261  0.23752906  0.25000051  1  0  -0.544876  0  1.909691  0  0  -0.51491  0  2.198181  0  0  -0.53246  0  2.182051  0  -0.566778  0  -0.235928  -0.502275  0  2.209239  0
O  O114  1  0.49999598  0.73753018  0.25000051  1  0  -0.54476  0  1.909737  0  0  -0.514853  0  2.198193  0  0  -0.532401  0  2.182063  0  -0.566741  0  -0.235888  -0.502217  0  2.209251  0
O  O115  1  0.00000261  0.76246989  0.74999797  1  0  -0.544895  0  1.909698  0  0  -0.514876  0  2.198188  0  0  -0.532424  0  2.182055  0  -0.566663  0  -0.235862  -0.50224  0  2.209246  0
