# generated using pymatgen
data_KH28C13SeNO6
_symmetry_space_group_name_H-M   'P 1'
_cell_length_a   8.73516695
_cell_length_b   8.84690545
_cell_length_c   13.12509065
_cell_angle_alpha   109.70300078
_cell_angle_beta   101.25508098
_cell_angle_gamma   101.32343560
_symmetry_Int_Tables_number   1
_chemical_formula_structural   KH28C13SeNO6
_chemical_formula_sum   'K2 H56 C26 Se2 N2 O12'
_cell_volume   898.00853912
_cell_formula_units_Z   2
loop_
 _symmetry_equiv_pos_site_id
 _symmetry_equiv_pos_as_xyz
  1  'x, y, z'
loop_
 _atom_site_type_symbol
 _atom_site_label
 _atom_site_symmetry_multiplicity
 _atom_site_fract_x
 _atom_site_fract_y
 _atom_site_fract_z
 _atom_site_occupancy
 _atom_site_pbe_bader_spin_density
 _atom_site_pbe_cm5_charge
 _atom_site_pbe_ddec_charge
 _atom_site_pbe_ddec_spin_density
 _atom_site_pbe_ddec_sum_bond_order
 _atom_site_pbe_magmom
K  K0  1  0.78853580  0.04173861  0.69188055  1  0  0.691465  0.778604  0  0.803792  0
K  K1  1  0.21147626  0.95825588  0.30811091  1  0  0.691492  0.778621  0  0.803824  0
H  H2  1  0.63177345  0.13087794  0.97567804  1  0  0.094515  0.050512  0  1.014627  0
H  H3  1  0.36822159  0.86910536  0.02431340  1  0  0.094459  0.050499  0  1.014587  0
H  H4  1  0.41941295  0.08334597  0.90629897  1  0  0.094569  0.053164  0  1.002863  0
H  H5  1  0.58058672  0.91663717  0.09368847  1  0  0.094594  0.053121  0  1.002898  0
H  H6  1  0.50335973  0.23977184  0.78487238  1  0  0.101166  0.070348  0  1.034816  0
H  H7  1  0.49663447  0.76022131  0.21511799  1  0  0.101155  0.070301  0  1.034879  0
H  H8  1  0.53732614  0.36559200  0.93173734  1  0  0.086718  0.0424  0  0.999557  0
H  H9  1  0.46266360  0.63438897  0.06825825  1  0  0.086714  0.042322  0  0.999619  0
H  H10  1  0.11329997  0.25947796  0.59989426  1  0  0.105428  0.075025  0  0.999279  0
H  H11  1  0.88670370  0.74051573  0.40010890  1  0  0.105439  0.075074  0  0.99908  0
H  H12  1  0.31872460  0.31247870  0.68027240  1  0  0.089095  0.04977  0  1.052322  0
H  H13  1  0.68128040  0.68751129  0.31973090  1  0  0.089096  0.049772  0  1.052276  0
H  H14  1  0.64092284  0.63848657  0.53366677  1  0  0.08995  0.059447  0  1.04571  0
H  H15  1  0.35908683  0.36150772  0.46631976  1  0  0.08995  0.059501  0  1.045725  0
H  H16  1  0.65062021  0.47041481  0.58161829  1  0  0.088661  0.084407  0  1.032541  0
H  H17  1  0.34937741  0.52956938  0.41836453  1  0  0.088723  0.08446  0  1.032599  0
H  H18  1  0.95025029  0.60230447  0.67069701  1  0  0.097728  0.059661  0  1.022181  0
H  H19  1  0.04974956  0.39766631  0.32929088  1  0  0.097699  0.059584  0  1.022192  0
H  H20  1  0.88811888  0.53451897  0.52128086  1  0  0.095864  0.057058  0  1.006407  0
H  H21  1  0.11189830  0.46549018  0.47870523  1  0  0.095904  0.057178  0  1.006242  0
H  H22  1  0.16382881  0.73716427  0.57396011  1  0  0.095551  0.058224  0  1.02684  0
H  H23  1  0.83617930  0.26285031  0.42606940  1  0  0.095488  0.058162  0  1.027004  0
H  H24  1  0.18086843  0.84355709  0.72038457  1  0  0.092928  0.055243  0  0.990467  0
H  H25  1  0.81912933  0.15645372  0.27964431  1  0  0.093002  0.055282  0  0.990434  0
H  H26  1  0.98314296  0.62575514  0.83682779  1  0  0.094686  0.050615  0  1.037291  0
H  H27  1  0.01684480  0.37425317  0.16317030  1  0  0.09462  0.050512  0  1.037314  0
H  H28  1  0.03246775  0.53428555  0.93585980  1  0  0.099612  0.065353  0  1.02801  0
H  H29  1  0.96753320  0.46573273  0.06413908  1  0  0.09965  0.06553  0  1.02786  0
H  H30  1  0.74326684  0.56679562  0.89266203  1  0  0.090992  0.048061  0  1.003997  0
H  H31  1  0.25673099  0.43321542  0.10734176  1  0  0.090992  0.048048  0  1.004106  0
H  H32  1  0.70325254  0.41138808  0.75314502  1  0  0.094405  0.069551  0  1.042487  0
H  H33  1  0.29674171  0.58861401  0.24685183  1  0  0.094408  0.069534  0  1.042534  0
H  H34  1  0.48308183  0.56183505  0.71092549  1  0  0.091976  0.057477  0  1.007242  0
H  H35  1  0.51692275  0.43814898  0.28905287  1  0  0.092021  0.057494  0  1.007247  0
H  H36  1  0.45909581  0.69898957  0.63710389  1  0  0.094962  0.068201  0  1.032967  0
H  H37  1  0.54091770  0.30100597  0.36288264  1  0  0.094987  0.068278  0  1.032883  0
H  H38  1  0.31937651  0.01966580  0.62788841  1  0  0.087874  0.079743  0  1.064339  0
H  H39  1  0.68062233  0.98034467  0.37213215  1  0  0.087885  0.079785  0  1.064331  0
H  H40  1  0.12697168  0.98348426  0.53548728  1  0  0.102326  0.062607  0  1.002714  0
H  H41  1  0.87302903  0.01651149  0.46453650  1  0  0.102368  0.062598  0  1.002716  0
H  H42  1  0.40533799  0.78826637  0.83021470  1  0  0.090626  0.041092  0  1.027445  0
H  H43  1  0.59466601  0.21170685  0.16977196  1  0  0.090608  0.041125  0  1.027427  0
H  H44  1  0.61866262  0.82945037  0.89201231  1  0  0.096822  0.058785  0  1.003698  0
H  H45  1  0.38134336  0.17053018  0.10797159  1  0  0.096833  0.058815  0  1.003733  0
H  H46  1  0.23479667  0.43488551  0.85927628  1  0  0.095406  0.060352  0  0.98136  0
H  H47  1  0.76521150  0.56513789  0.14072614  1  0  0.095411  0.060345  0  0.981399  0
H  H48  1  0.20198440  0.53752117  0.76396548  1  0  0.092152  0.049203  0  1.009247  0
H  H49  1  0.79801911  0.46248059  0.23602260  1  0  0.092184  0.049276  0  1.009122  0
H  H50  1  0.09875547  0.10843709  0.84882214  1  0  0.26939  0.246877  0  1.054617  0
H  H51  1  0.90123945  0.89159782  0.15119014  1  0  0.269497  0.24706  0  1.054787  0
H  H52  1  0.06835431  0.22829706  0.96512024  1  0  0.27463  0.252375  0  1.013013  0
H  H53  1  0.93158538  0.77170611  0.03487660  1  0  0.274624  0.252347  0  1.013054  0
H  H54  1  0.16040125  0.97349450  0.97891637  1  0  0.080128  0.029889  0  1.033568  0
H  H55  1  0.83959956  0.02654067  0.02110207  1  0  0.080166  0.029999  0  1.033531  0
H  H56  1  0.96353835  0.86165220  0.88340164  1  0  0.097359  0.062818  0  1.015465  0
H  H57  1  0.03645858  0.13835548  0.11661122  1  0  0.097349  0.062787  0  1.015338  0
C  C58  1  0.54352652  0.11143488  0.89619430  1  0  -0.071128  0.006221  0  3.943285  0
C  C59  1  0.45647256  0.88855475  0.10380054  1  0  -0.071156  0.006142  0  3.943827  0
C  C60  1  0.57525838  0.26793148  0.87165936  1  0  -0.077314  -0.007583  0  3.939938  0
C  C61  1  0.42474169  0.73205317  0.12833454  1  0  -0.077224  -0.007286  0  3.939609  0
C  C62  1  0.19120889  0.27967186  0.68325905  1  0  -0.077063  -0.014674  0  3.941999  0
C  C63  1  0.80879279  0.72033181  0.31674596  1  0  -0.076973  -0.014545  0  3.94157  0
C  C64  1  0.70665521  0.60391760  0.59968793  1  0  -0.084918  -0.023516  0  3.911689  0
C  C65  1  0.29335716  0.39606936  0.40030121  1  0  -0.085003  -0.023675  0  3.911634  0
C  C66  1  0.88219203  0.62710594  0.60072061  1  0  -0.073363  0.007676  0  3.948229  0
C  C67  1  0.11782459  0.37288383  0.39927654  1  0  -0.073291  0.007767  0  3.948214  0
C  C68  1  0.12604287  0.83392820  0.63399796  1  0  -0.07479  0.003603  0  3.94924  0
C  C69  1  0.87395855  0.16607883  0.36602906  1  0  -0.074939  0.003487  0  3.949301  0
C  C70  1  0.95578572  0.50818820  0.85087044  1  0  -0.076503  -0.009771  0  3.940339  0
C  C71  1  0.04421940  0.49182388  0.14912766  1  0  -0.076472  -0.009884  0  3.940303  0
C  C72  1  0.77694023  0.45657910  0.84198781  1  0  -0.081243  -0.015027  0  3.943817  0
C  C73  1  0.22305756  0.54342310  0.15801182  1  0  -0.08124  -0.01487  0  3.944104  0
C  C74  1  0.53304666  0.68743706  0.71150690  1  0  -0.080531  -0.014877  0  3.933268  0
C  C75  1  0.46697520  0.31254611  0.28847962  1  0  -0.080527  -0.014866  0  3.933155  0
C  C76  1  0.18826678  0.99481716  0.62080569  1  0  -0.081157  -0.02368  0  3.935113  0
C  C77  1  0.81173624  0.00517848  0.37921533  1  0  -0.081133  -0.023719  0  3.935216  0
C  C78  1  0.52720087  0.82129658  0.81738721  1  0  -0.073573  -0.001757  0  3.956849  0
C  C79  1  0.47280365  0.17868289  0.18260085  1  0  -0.073588  -0.00185  0  3.957396  0
C  C80  1  0.16214263  0.41850177  0.77500938  1  0  -0.071048  0.008241  0  3.953424  0
C  C81  1  0.83785947  0.58150775  0.22498702  1  0  -0.071235  0.007933  0  3.953294  0
C  C82  1  0.03619976  0.98380429  0.95037489  1  0  -0.077212  0.023592  0  3.96955  0
C  C83  1  0.96378755  0.01621538  0.04962860  1  0  -0.077231  0.023612  0  3.969419  0
Se  Se84  1  0.46135932  0.84805831  0.46702937  1  0  -0.395295  -0.662342  0  2.145364  0
Se  Se85  1  0.53861652  0.15196645  0.53297828  1  0  -0.395274  -0.662261  0  2.145301  0
N  N86  1  0.02886592  0.11088957  0.90318492  1  0  -0.701217  -0.635311  0  3.285007  0
N  N87  1  0.97110779  0.88913161  0.09682627  1  0  -0.701305  -0.635515  0  3.285219  0
O  O88  1  0.99318363  0.38004639  0.76759179  1  0  -0.268104  -0.238426  0  2.536055  0
O  O89  1  0.00682855  0.61996589  0.23241108  1  0  -0.268042  -0.23829  0  2.535831  0
O  O90  1  0.15500605  0.12945082  0.70372010  1  0  -0.252011  -0.243226  0  2.5089  0
O  O91  1  0.84498670  0.87055437  0.29629245  1  0  -0.251972  -0.243167  0  2.508856  0
O  O92  1  0.69801620  0.70978818  0.70754463  1  0  -0.260567  -0.237784  0  2.494166  0
O  O93  1  0.30199414  0.29019125  0.29244189  1  0  -0.260644  -0.23787  0  2.493843  0
O  O94  1  0.95275838  0.79302087  0.61075973  1  0  -0.273295  -0.25329  0  2.537938  0
O  O95  1  0.04725312  0.20698459  0.38925837  1  0  -0.273305  -0.253294  0  2.537864  0
O  O96  1  0.55688788  0.97692032  0.80445017  1  0  -0.271359  -0.223893  0  2.544883  0
O  O97  1  0.44311294  0.02305406  0.19553480  1  0  -0.271303  -0.223777  0  2.545503  0
O  O98  1  0.74446627  0.32584145  0.88256487  1  0  -0.255348  -0.241171  0  2.51856  0
O  O99  1  0.25552450  0.67416070  0.11743383  1  0  -0.255412  -0.241352  0  2.518351  0
