# generated using pymatgen
data_AgH6(C5N)2
_symmetry_space_group_name_H-M   'P 1'
_cell_length_a   5.42712031
_cell_length_b   7.62471036
_cell_length_c   19.25775157
_cell_angle_alpha   98.07511386
_cell_angle_beta   89.99953893
_cell_angle_gamma   90.00126076
_symmetry_Int_Tables_number   1
_chemical_formula_structural   AgH6(C5N)2
_chemical_formula_sum   'Ag4 H24 C40 N8'
_cell_volume   788.98865252
_cell_formula_units_Z   4
loop_
 _symmetry_equiv_pos_site_id
 _symmetry_equiv_pos_as_xyz
  1  'x, y, z'
loop_
 _atom_site_type_symbol
 _atom_site_label
 _atom_site_symmetry_multiplicity
 _atom_site_fract_x
 _atom_site_fract_y
 _atom_site_fract_z
 _atom_site_occupancy
 _atom_site_hle17_bader_spin_density
 _atom_site_hle17_ddec_charge
 _atom_site_hle17_ddec_spin_density
 _atom_site_hle17_ddec_sum_bond_order
 _atom_site_hle17_magmom
 _atom_site_hse06_10hf_bader_spin_density
 _atom_site_hse06_10hf_ddec_charge
 _atom_site_hse06_10hf_ddec_spin_density
 _atom_site_hse06_10hf_ddec_sum_bond_order
 _atom_site_hse06_10hf_magmom
 _atom_site_hse06_bader_spin_density
 _atom_site_hse06_ddec_charge
 _atom_site_hse06_ddec_spin_density
 _atom_site_hse06_ddec_sum_bond_order
 _atom_site_hse06_magmom
 _atom_site_pbe_bader_spin_density
 _atom_site_pbe_cm5_charge
 _atom_site_pbe_ddec_charge
 _atom_site_pbe_ddec_spin_density
 _atom_site_pbe_ddec_sum_bond_order
 _atom_site_pbe_magmom
Ag  Ag0  1  0.81815165  0.80797320  0.72188738  1  0  0.385201  0  1.674537  0  0  0.242404  0  2.147271  0  0  0.269922  0  2.101741  0  0  0.457915  0.223931  0  2.178337  0
Ag  Ag1  1  0.31813608  0.69202364  0.77811962  1  0  0.385225  0  1.674707  0  0  0.242504  0  2.147385  0  0  0.270014  0  2.101861  0  0  0.458007  0.224035  0  2.178451  0
Ag  Ag2  1  0.18185201  0.19202229  0.27812229  1  0  0.385174  0  1.674586  0  0  0.242407  0  2.147258  0  0  0.269922  0  2.10173  0  0  0.457953  0.22393  0  2.178316  0
Ag  Ag3  1  0.68185836  0.30795724  0.22188828  1  0  0.385198  0  1.674611  0  0  0.242418  0  2.147346  0  0  0.269931  0  2.101816  0  0  0.457934  0.223942  0  2.178408  0
H  H4  1  0.84382349  0.24343989  0.81398107  1  0  0.097958  0  0.969303  0  0  0.115142  0  1.025648  0  0  0.116431  0  1.024877  0  0  0.113893  0.114179  0  1.026217  0
H  H5  1  0.34381836  0.25656300  0.68601360  1  0  0.097913  0  0.969245  0  0  0.115043  0  1.025656  0  0  0.116376  0  1.024829  0  0  0.11387  0.114066  0  1.026243  0
H  H6  1  0.15614700  0.75656192  0.18602061  1  0  0.097956  0  0.969324  0  0  0.115083  0  1.025742  0  0  0.116412  0  1.024923  0  0  0.113897  0.114105  0  1.026335  0
H  H7  1  0.65618899  0.74343439  0.31397540  1  0  0.097878  0  0.969432  0  0  0.115079  0  1.025745  0  0  0.116369  0  1.024974  0  0  0.113919  0.114122  0  1.026312  0
H  H8  1  0.24624901  0.01267784  0.91976402  1  0  0.092763  0  0.989147  0  0  0.107006  0  1.052246  0  0  0.10814  0  1.052217  0  0  0.109976  0.106185  0  1.052275  0
H  H9  1  0.74626910  0.48734614  0.58023294  1  0  0.092712  0  0.989241  0  0  0.107029  0  1.052255  0  0  0.108165  0  1.052221  0  0  0.109997  0.106203  0  1.052281  0
H  H10  1  0.75373991  0.98732285  0.08024332  1  0  0.092595  0  0.989181  0  0  0.106972  0  1.052164  0  0  0.10811  0  1.052126  0  0  0.10998  0.106149  0  1.052194  0
H  H11  1  0.25372534  0.51267550  0.41976870  1  0  0.092716  0  0.98927  0  0  0.10706  0  1.052244  0  0  0.108198  0  1.052207  0  0  0.10999  0.106234  0  1.052274  0
H  H12  1  0.19797225  0.16976349  0.06118882  1  0  0.092854  0  0.953231  0  0  0.102476  0  1.015676  0  0  0.105007  0  1.015691  0  0  0.098783  0.100623  0  1.015812  0
H  H13  1  0.69801306  0.33024255  0.43881683  1  0  0.092846  0  0.953381  0  0  0.102579  0  1.015674  0  0  0.105109  0  1.015689  0  0  0.098835  0.100752  0  1.015783  0
H  H14  1  0.80202035  0.83024099  0.93881352  1  0  0.09283  0  0.953251  0  0  0.10247  0  1.015685  0  0  0.105  0  1.015701  0  0  0.098786  0.100638  0  1.015801  0
H  H15  1  0.30202561  0.66974598  0.56118315  1  0  0.092811  0  0.953291  0  0  0.102476  0  1.015693  0  0  0.105006  0  1.015709  0  0  0.098796  0.100624  0  1.015824  0
H  H16  1  0.89736170  0.13671698  0.96270524  1  0  0.080247  0  0.991183  0  0  0.089522  0  1.058686  0  0  0.091921  0  1.058274  0  0  0.095523  0.087779  0  1.059111  0
H  H17  1  0.39737930  0.36328696  0.53729613  1  0  0.080157  0  0.991206  0  0  0.089478  0  1.058679  0  0  0.091876  0  1.058269  0  0  0.095487  0.087736  0  1.059094  0
H  H18  1  0.10263090  0.86329142  0.03729573  1  0  0.080132  0  0.991278  0  0  0.08944  0  1.058749  0  0  0.091837  0  1.058339  0  0  0.095458  0.087699  0  1.059166  0
H  H19  1  0.60265384  0.63669881  0.46270059  1  0  0.080195  0  0.991094  0  0  0.089497  0  1.05859  0  0  0.091895  0  1.05818  0  0  0.095532  0.087756  0  1.059011  0
H  H20  1  0.18344704  0.36150262  0.84344588  1  0  0.084913  0  0.983773  0  0  0.093164  0  1.048213  0  0  0.09579  0  1.047688  0  0  0.094998  0.091269  0  1.048712  0
H  H21  1  0.68345197  0.13850197  0.65655283  1  0  0.084954  0  0.983657  0  0  0.093177  0  1.048123  0  0  0.095801  0  1.047603  0  0  0.095014  0.091279  0  1.048627  0
H  H22  1  0.81653451  0.63850046  0.15655431  1  0  0.084844  0  0.983761  0  0  0.093065  0  1.048256  0  0  0.095689  0  1.047735  0  0  0.094974  0.091167  0  1.048763  0
H  H23  1  0.31657565  0.86151296  0.34344588  1  0  0.084973  0  0.98382  0  0  0.093196  0  1.048269  0  0  0.095823  0  1.047742  0  0  0.09501  0.0913  0  1.048776  0
H  H24  1  0.84424661  0.58067284  0.84152081  1  0  0.07736  0  0.967687  0  0  0.083304  0  1.043582  0  0  0.087263  0  1.039157  0  0  0.088858  0.080385  0  1.046893  0
H  H25  1  0.34426587  0.91931333  0.65847263  1  0  0.077439  0  0.967756  0  0  0.083372  0  1.043645  0  0  0.087329  0  1.039223  0  0  0.088907  0.080448  0  1.046958  0
H  H26  1  0.15572756  0.41932627  0.15847918  1  0  0.077424  0  0.96766  0  0  0.083333  0  1.043586  0  0  0.087288  0  1.039169  0  0  0.088881  0.080412  0  1.046893  0
H  H27  1  0.65577648  0.08068304  0.34152463  1  0  0.077344  0  0.967609  0  0  0.083345  0  1.043446  0  0  0.087305  0  1.039019  0  0  0.088875  0.080418  0  1.046767  0
C  C28  1  0.69999059  0.16206422  0.83195198  1  0  -0.025083  0  3.730912  0  0  -0.067678  0  3.980715  0  0  -0.061568  0  3.999969  0  0  -0.000655  -0.071437  0  3.96746  0
C  C29  1  0.19999041  0.33794319  0.66804477  1  0  -0.025158  0  3.730538  0  0  -0.067671  0  3.980403  0  0  -0.061601  0  3.999632  0  0  -0.000707  -0.071415  0  3.967152  0
C  C30  1  0.29997621  0.83793362  0.16804951  1  0  -0.025023  0  3.730529  0  0  -0.067543  0  3.980367  0  0  -0.061464  0  3.999603  0  0  -0.000649  -0.071289  0  3.967117  0
C  C31  1  0.80000956  0.66205832  0.33194859  1  0  -0.02509  0  3.730627  0  0  -0.067658  0  3.980483  0  0  -0.061555  0  3.999732  0  0  -0.00068  -0.071416  0  3.967233  0
C  C32  1  0.53755053  0.19851714  0.88917802  1  0  -0.063072  0  3.857938  0  0  -0.038522  0  4.0955  0  0  -0.046464  0  4.122569  0  0  -0.037583  -0.033362  0  4.077129  0
C  C33  1  0.03756390  0.30148909  0.61081691  1  0  -0.062718  0  3.857896  0  0  -0.038314  0  4.095584  0  0  -0.046226  0  4.122665  0  0  -0.037437  -0.033161  0  4.077195  0
C  C34  1  0.46242365  0.80148339  0.11082464  1  0  -0.062951  0  3.857898  0  0  -0.038578  0  4.095635  0  0  -0.046512  0  4.122744  0  0  -0.037532  -0.033398  0  4.077238  0
C  C35  1  0.96244713  0.69851243  0.38917645  1  0  -0.062818  0  3.85768  0  0  -0.038408  0  4.095408  0  0  -0.046324  0  4.122467  0  0  -0.03756  -0.033252  0  4.077045  0
C  C36  1  0.39345702  0.04452916  0.88566417  1  0  -0.020317  0  3.73086  0  0  -0.065032  0  3.982614  0  0  -0.058686  0  4.001558  0  0  0.000162  -0.068949  0  3.969515  0
C  C37  1  0.89348058  0.45547444  0.61432941  1  0  -0.020446  0  3.730486  0  0  -0.065195  0  3.982271  0  0  -0.058851  0  4.001205  0  0  4.4e-05  -0.069108  0  3.96917  0
C  C38  1  0.60651900  0.95546069  0.11433588  1  0  -0.020313  0  3.730585  0  0  -0.065107  0  3.982346  0  0  -0.05876  0  4.001287  0  0  -3.4e-05  -0.069026  0  3.969236  0
C  C39  1  0.10652861  0.54452989  0.38566877  1  0  -0.020334  0  3.730755  0  0  -0.065107  0  3.982509  0  0  -0.058764  0  4.001447  0  0  0.000135  -0.069022  0  3.969413  0
C  C40  1  0.04554851  0.26273647  0.06030579  1  0  -0.068787  0  3.757062  0  0  -0.08341  0  4.009192  0  0  -0.08561  0  4.030517  0  0  -0.096085  -0.081897  0  3.994792  0
C  C41  1  0.54561401  0.23726857  0.43969906  1  0  -0.068852  0  3.757017  0  0  -0.083561  0  4.009246  0  0  -0.08576  0  4.030566  0  0  -0.096201  -0.082059  0  3.994819  0
C  C42  1  0.95441830  0.73726271  0.93969628  1  0  -0.06884  0  3.757088  0  0  -0.083477  0  4.009252  0  0  -0.085676  0  4.030576  0  0  -0.096165  -0.081982  0  3.994858  0
C  C43  1  0.45443019  0.76272522  0.56030014  1  0  -0.068713  0  3.756905  0  0  -0.083387  0  4.009057  0  0  -0.085584  0  4.03038  0  0  -0.096164  -0.081874  0  3.994654  0
C  C44  1  0.88033802  0.24520277  0.00571062  1  0  -0.100793  0  3.728883  0  0  -0.120526  0  3.979066  0  0  -0.122028  0  3.999422  0  0  -0.089779  -0.119496  0  3.965315  0
C  C45  1  0.38038400  0.25479648  0.49428705  1  0  -0.100762  0  3.72878  0  0  -0.120555  0  3.979083  0  0  -0.122056  0  3.999428  0  0  -0.089697  -0.119521  0  3.965338  0
C  C46  1  0.11961404  0.75479772  0.99429100  1  0  -0.100717  0  3.728887  0  0  -0.120467  0  3.97911  0  0  -0.121966  0  3.999454  0  0  -0.08962  -0.119437  0  3.965371  0
C  C47  1  0.61964546  0.74519045  0.50570505  1  0  -0.100755  0  3.728311  0  0  -0.120508  0  3.978593  0  0  -0.122009  0  3.998942  0  0  -0.089719  -0.119478  0  3.964841  0
C  C48  1  0.68578013  0.36964200  0.00193747  1  0  0.028429  0  3.745934  0  0  0.037648  0  3.976923  0  0  0.036725  0  4.001341  0  0  -0.004096  0.038279  0  3.960396  0
C  C49  1  0.18581287  0.13035964  0.49806123  1  0  0.028623  0  3.746156  0  0  0.03781  0  3.977253  0  0  0.036907  0  4.001687  0  0  -0.004005  0.03842  0  3.960726  0
C  C50  1  0.31418852  0.63035576  0.99806194  1  0  0.028511  0  3.746185  0  0  0.037701  0  3.977285  0  0  0.036798  0  4.00172  0  0  -0.004065  0.038323  0  3.960768  0
C  C51  1  0.81422764  0.86963556  0.50194064  1  0  0.028704  0  3.745775  0  0  0.03784  0  3.976804  0  0  0.036927  0  4.001229  0  0  -0.003978  0.038469  0  3.960286  0
C  C52  1  0.52210930  0.35428434  0.94431512  1  0  0.000187  0  3.718363  0  0  0.00439  0  3.951906  0  0  0.004595  0  3.976121  0  0  0.001883  0.004218  0  3.935554  0
C  C53  1  0.02213793  0.14571531  0.55568730  1  0  8.8e-05  0  3.718591  0  0  0.004334  0  3.952039  0  0  0.004471  0  3.976328  0  0  0.001858  0.004198  0  3.935643  0
C  C54  1  0.47786119  0.64571742  0.05568500  1  0  0.000172  0  3.718232  0  0  0.004455  0  3.951697  0  0  0.004598  0  3.975989  0  0  0.001892  0.004276  0  3.935344  0
C  C55  1  0.97788599  0.85428641  0.44431179  1  0  -8.6e-05  0  3.718344  0  0  0.0042  0  3.951847  0  0  0.004369  0  3.976093  0  0  0.001806  0.004023  0  3.935502  0
C  C56  1  0.33701504  0.48380196  0.94192271  1  0  0.02162  0  3.76128  0  0  0.03184  0  3.991072  0  0  0.030624  0  4.016082  0  0  -0.007854  0.032649  0  3.974184  0
C  C57  1  0.83705607  0.01619438  0.55807633  1  0  0.021363  0  3.761637  0  0  0.031807  0  3.99105  0  0  0.030613  0  4.016073  0  0  -0.007878  0.032603  0  3.974155  0
C  C58  1  0.66297203  0.51621431  0.05807659  1  0  0.021484  0  3.761268  0  0  0.03184  0  3.990773  0  0  0.030646  0  4.015797  0  0  -0.007809  0.032651  0  3.973881  0
C  C59  1  0.16298260  0.98379818  0.44192541  1  0  0.021643  0  3.761253  0  0  0.031911  0  3.990922  0  0  0.030707  0  4.015938  0  0  -0.007857  0.032724  0  3.974037  0
C  C60  1  0.16574629  0.47288569  0.88525304  1  0  -0.124708  0  3.774449  0  0  -0.138695  0  4.019913  0  0  -0.141079  0  4.03992  0  0  -0.102606  -0.137084  0  4.006475  0
C  C61  1  0.66576378  0.02710526  0.61474139  1  0  -0.124573  0  3.774597  0  0  -0.138578  0  4.019948  0  0  -0.140964  0  4.039961  0  0  -0.102544  -0.13697  0  4.006514  0
C  C62  1  0.83423894  0.52712900  0.11473891  1  0  -0.124432  0  3.774601  0  0  -0.138433  0  4.019984  0  0  -0.140819  0  4.039995  0  0  -0.102478  -0.136829  0  4.006553  0
C  C63  1  0.33428226  0.97288320  0.38525651  1  0  -0.124859  0  3.774653  0  0  -0.138835  0  4.020125  0  0  -0.141223  0  4.040134  0  0  -0.102648  -0.137231  0  4.006697  0
C  C64  1  0.97831174  0.59463120  0.88421348  1  0  -0.080112  0  3.807208  0  0  -0.088065  0  4.055358  0  0  -0.089743  0  4.075425  0  0  -0.105338  -0.08689  0  4.041861  0
C  C65  1  0.47832268  0.90536226  0.61577953  1  0  -0.080303  0  3.807567  0  0  -0.088261  0  4.055728  0  0  -0.089944  0  4.075805  0  0  -0.105411  -0.087075  0  4.042208  0
C  C66  1  0.02166244  0.40537175  0.11578307  1  0  -0.080281  0  3.807449  0  0  -0.088203  0  4.055606  0  0  -0.089882  0  4.07568  0  0  -0.105387  -0.087013  0  4.042083  0
C  C67  1  0.52171414  0.09463159  0.38422123  1  0  -0.080077  0  3.807238  0  0  -0.088084  0  4.055369  0  0  -0.089769  0  4.075452  0  0  -0.105331  -0.086902  0  4.041862  0
N  N68  1  0.65499142  0.99861013  0.79750802  1  0  -0.241527  0  3.375907  0  0  -0.156239  0  3.652628  0  0  -0.174359  0  3.676456  0  0  -0.307482  -0.143938  0  3.636089  0
N  N69  1  0.15499067  0.50139991  0.70249322  1  0  -0.241491  0  3.375663  0  0  -0.156213  0  3.652376  0  0  -0.174333  0  3.67622  0  0  -0.307484  -0.143916  0  3.635843  0
N  N70  1  0.34498829  0.00138910  0.20249561  1  0  -0.241536  0  3.375855  0  0  -0.156206  0  3.652522  0  0  -0.174324  0  3.676363  0  0  -0.307468  -0.143908  0  3.635982  0
N  N71  1  0.84500930  0.49859922  0.29750729  1  0  -0.241484  0  3.375685  0  0  -0.156212  0  3.652418  0  0  -0.174329  0  3.676244  0  0  -0.307453  -0.143915  0  3.635887  0
N  N72  1  0.46616217  0.92587078  0.83092180  1  0  -0.237111  0  3.393554  0  0  -0.148782  0  3.671112  0  0  -0.166928  0  3.694368  0  0  -0.31061  -0.136496  0  3.654982  0
N  N73  1  0.96617206  0.57413860  0.66907775  1  0  -0.237141  0  3.393026  0  0  -0.148804  0  3.670603  0  0  -0.166952  0  3.693856  0  0  -0.310613  -0.136525  0  3.65448  0
N  N74  1  0.53381753  0.07412583  0.16908222  1  0  -0.237041  0  3.39309  0  0  -0.148707  0  3.670647  0  0  -0.166855  0  3.693901  0  0  -0.310501  -0.136422  0  3.65452  0
N  N75  1  0.03382238  0.42586995  0.33092738  1  0  -0.237134  0  3.39327  0  0  -0.148792  0  3.670818  0  0  -0.166941  0  3.694078  0  0  -0.310661  -0.136507  0  3.654682  0
