# generated using pymatgen
data_ZnH19C22NO4
_symmetry_space_group_name_H-M   'P 1'
_cell_length_a   8.23502144
_cell_length_b   11.38546981
_cell_length_c   11.78819890
_cell_angle_alpha   67.22920605
_cell_angle_beta   72.92159352
_cell_angle_gamma   77.32889228
_symmetry_Int_Tables_number   1
_chemical_formula_structural   ZnH19C22NO4
_chemical_formula_sum   'Zn2 H38 C44 N2 O8'
_cell_volume   967.14590863
_cell_formula_units_Z   2
loop_
 _symmetry_equiv_pos_site_id
 _symmetry_equiv_pos_as_xyz
  1  'x, y, z'
loop_
 _atom_site_type_symbol
 _atom_site_label
 _atom_site_symmetry_multiplicity
 _atom_site_fract_x
 _atom_site_fract_y
 _atom_site_fract_z
 _atom_site_occupancy
 _atom_site_hle17_bader_spin_density
 _atom_site_hle17_ddec_charge
 _atom_site_hle17_ddec_spin_density
 _atom_site_hle17_ddec_sum_bond_order
 _atom_site_hle17_magmom
 _atom_site_hse06_10hf_bader_spin_density
 _atom_site_hse06_10hf_ddec_charge
 _atom_site_hse06_10hf_ddec_spin_density
 _atom_site_hse06_10hf_ddec_sum_bond_order
 _atom_site_hse06_10hf_magmom
 _atom_site_hse06_bader_spin_density
 _atom_site_hse06_ddec_charge
 _atom_site_hse06_ddec_spin_density
 _atom_site_hse06_ddec_sum_bond_order
 _atom_site_hse06_magmom
 _atom_site_pbe_bader_spin_density
 _atom_site_pbe_cm5_charge
 _atom_site_pbe_ddec_charge
 _atom_site_pbe_ddec_spin_density
 _atom_site_pbe_ddec_sum_bond_order
 _atom_site_pbe_magmom
Zn  Zn0  1  0.42011265  0.47715786  0.41954492  1  0  1.029143  0  1.889932  0  0  0.860614  0  2.359248  0  0  0.913637  0  2.292788  0  0  0.667824  0.82366  0  2.404773  0
Zn  Zn1  1  0.57988800  0.52284214  0.58045492  1  0  1.029093  0  1.889973  0  0  0.860563  0  2.359296  0  0  0.913586  0  2.292837  0  0  0.667814  0.823608  0  2.404822  0
H  H2  1  0.52353469  0.37653952  0.20936553  1  0  0.091645  0  0.925283  0  0  0.102286  0  0.982889  0  0  0.105286  0  0.979958  0  0  0.122668  0.100009  0  0.985125  0
H  H3  1  0.47646597  0.62346049  0.79063431  1  0  0.091672  0  0.925292  0  0  0.102313  0  0.982894  0  0  0.105314  0  0.979964  0  0  0.122687  0.100031  0  0.985134  0
H  H4  1  0.39605223  0.37186207  0.04215509  1  0  0.104205  0  0.950933  0  0  0.116049  0  1.008899  0  0  0.119047  0  1.008441  0  0  0.108843  0.113887  0  1.009386  0
H  H5  1  0.60394858  0.62813698  0.95784423  1  0  0.10423  0  0.950973  0  0  0.116052  0  1.008956  0  0  0.11905  0  1.008498  0  0  0.108832  0.11389  0  1.009442  0
H  H6  1  0.92533072  0.56208095  0.20948506  1  0  0.112459  0  0.958421  0  0  0.122353  0  1.018457  0  0  0.124848  0  1.018466  0  0  0.111812  0.12051  0  1.018673  0
H  H7  1  0.07466866  0.43791905  0.79051334  1  0  0.112476  0  0.958418  0  0  0.12237  0  1.018451  0  0  0.124864  0  1.01846  0  0  0.111816  0.120527  0  1.018667  0
H  H8  1  0.07437507  0.56433640  0.36318284  1  0  0.095939  0  0.927269  0  0  0.105451  0  0.988158  0  0  0.108268  0  0.985422  0  0  0.125559  0.103354  0  0.99021  0
H  H9  1  0.92562558  0.43566361  0.63681615  1  0  0.095946  0  0.927264  0  0  0.105457  0  0.988153  0  0  0.108275  0  0.985418  0  0  0.125559  0.10336  0  0.990205  0
H  H10  1  0.16101249  0.42124041  0.94654725  1  0  0.097994  0  0.951585  0  0  0.108823  0  1.014046  0  0  0.111589  0  1.012704  0  0  0.107333  0.106811  0  1.015109  0
H  H11  1  0.83898816  0.57875960  0.05345259  1  0  0.098013  0  0.951585  0  0  0.108846  0  1.01404  0  0  0.111611  0  1.012699  0  0  0.107331  0.106834  0  1.015103  0
H  H12  1  0.20191592  0.82628783  0.68437950  1  0  0.088776  0  0.953998  0  0  0.099576  0  1.015628  0  0  0.103236  0  1.012432  0  0  0.098179  0.096809  0  1.018124  0
H  H13  1  0.79808600  0.17371218  0.31562008  1  0  0.08877  0  0.95401  0  0  0.099573  0  1.015634  0  0  0.103232  0  1.01244  0  0  0.098182  0.096807  0  1.018129  0
H  H14  1  0.94434488  0.97926199  0.72911762  1  0  0.083356  0  0.971688  0  0  0.094989  0  1.035931  0  0  0.097195  0  1.035965  0  0  0.094731  0.093364  0  1.036022  0
H  H15  1  0.05565689  0.02073898  0.27088078  1  0  0.083341  0  0.971699  0  0  0.094972  0  1.035944  0  0  0.097179  0  1.035977  0  0  0.094727  0.093346  0  1.036036  0
H  H16  1  0.68577386  0.85558233  0.53380617  1  0  0.096342  0  0.946186  0  0  0.108661  0  1.004778  0  0  0.111876  0  1.003221  0  0  0.099954  0.106277  0  1.006124  0
H  H17  1  0.31422553  0.14441768  0.46619393  1  0  0.096347  0  0.946185  0  0  0.108671  0  1.004768  0  0  0.111886  0  1.003211  0  0  0.099954  0.106287  0  1.006113  0
H  H18  1  0.94365164  0.70953269  0.48454492  1  0  0.097397  0  0.965253  0  0  0.10435  0  1.0352  0  0  0.108062  0  1.031569  0  0  0.100153  0.10156  0  1.03802  0
H  H19  1  0.05634774  0.29046731  0.51545518  1  0  0.097412  0  0.965252  0  0  0.104389  0  1.035172  0  0  0.108102  0  1.031539  0  0  0.100161  0.101599  0  1.037994  0
H  H20  1  0.54482778  0.96840982  0.74380024  1  0  0.104282  0  0.9612  0  0  0.125836  0  1.023398  0  0  0.12628  0  1.025067  0  0  0.087442  0.125496  0  1.022258  0
H  H21  1  0.45517288  0.03159019  0.25620045  1  0  0.104333  0  0.961234  0  0  0.125896  0  1.023408  0  0  0.126341  0  1.025077  0  0  0.087477  0.12555  0  1.022275  0
H  H22  1  0.57964331  0.06321538  0.58167517  1  0  0.115367  0  0.938281  0  0  0.138577  0  0.995772  0  0  0.140085  0  0.99533  0  0  0.093463  0.13745  0  0.996141  0
H  H23  1  0.42035734  0.93678463  0.41832467  1  0  0.115373  0  0.938282  0  0  0.138597  0  0.995758  0  0  0.140106  0  0.995317  0  0  0.093471  0.13747  0  0.996128  0
H  H24  1  0.67156825  0.09646982  0.68281244  1  0  0.110647  0  0.946108  0  0  0.131764  0  1.007701  0  0  0.13312  0  1.007567  0  0  0.090308  0.130713  0  1.007886  0
H  H25  1  0.32843225  0.90353114  0.31718707  1  0  0.110648  0  0.94613  0  0  0.131762  0  1.007724  0  0  0.133118  0  1.007591  0  0  0.090306  0.130713  0  1.007907  0
H  H26  1  0.80331971  0.87948253  0.31842453  1  0  0.094153  0  0.971078  0  0  0.103028  0  1.038145  0  0  0.105575  0  1.036934  0  0  0.102611  0.101182  0  1.039058  0
H  H27  1  0.19668095  0.12051748  0.68157446  1  0  0.094136  0  0.971071  0  0  0.103015  0  1.038139  0  0  0.105561  0  1.036929  0  0  0.102602  0.101168  0  1.039053  0
H  H28  1  0.86165080  0.08848969  0.14565978  1  0  0.088638  0  0.961992  0  0  0.1022  0  1.019963  0  0  0.104829  0  1.019423  0  0  0.098176  0.100318  0  1.02051  0
H  H29  1  0.13834858  0.91151032  0.85434032  1  0  0.08863  0  0.961994  0  0  0.102193  0  1.019965  0  0  0.104822  0  1.019425  0  0  0.098173  0.10031  0  1.020511  0
H  H30  1  0.67864492  0.97491794  0.90203906  1  0  0.091138  0  0.974788  0  0  0.102505  0  1.037094  0  0  0.104819  0  1.037388  0  0  0.098138  0.100883  0  1.036953  0
H  H31  1  0.32135574  0.02508207  0.09796078  1  0  0.091159  0  0.974758  0  0  0.10253  0  1.037062  0  0  0.104845  0  1.037355  0  0  0.098148  0.100909  0  1.036921  0
H  H32  1  0.61570667  0.76809898  0.07641285  1  0  0.088408  0  0.963929  0  0  0.098109  0  1.028571  0  0  0.101911  0  1.025163  0  0  0.097106  0.095361  0  1.031033  0
H  H33  1  0.38429144  0.23190103  0.92358667  1  0  0.088391  0  0.963964  0  0  0.098108  0  1.028586  0  0  0.101909  0  1.02518  0  0  0.097102  0.095362  0  1.031047  0
H  H34  1  0.79251372  0.17887112  0.81929949  1  0  0.116279  0  0.937087  0  0  0.138774  0  0.994908  0  0  0.140596  0  0.994028  0  0  0.093361  0.137417  0  0.99556  0
H  H35  1  0.20748567  0.82112889  0.18069976  1  0  0.11628  0  0.937101  0  0  0.138771  0  0.994926  0  0  0.140592  0  0.994048  0  0  0.093363  0.137417  0  0.995575  0
H  H36  1  0.91970595  0.20532460  0.90399906  1  0  0.104376  0  0.975407  0  0  0.123881  0  1.040098  0  0  0.124264  0  1.042561  0  0  0.087453  0.12357  0  1.038412  0
H  H37  1  0.08029344  0.79467541  0.09600104  1  0  0.104372  0  0.975372  0  0  0.123892  0  1.040048  0  0  0.124275  0  1.04251  0  0  0.087468  0.123581  0  1.038362  0
H  H38  1  0.69578252  0.25050444  0.93580757  1  0  0.102863  0  0.944173  0  0  0.124732  0  1.005268  0  0  0.125903  0  1.005394  0  0  0.08734  0.123897  0  1.005162  0
H  H39  1  0.30421687  0.74949557  0.06419253  1  0  0.102868  0  0.94417  0  0  0.124736  0  1.005266  0  0  0.125908  0  1.005391  0  0  0.087341  0.123902  0  1.00516  0
C  C40  1  0.39221032  0.41788491  0.20354141  1  0  0.132448  0  3.705166  0  0  0.099738  0  3.957309  0  0  0.107405  0  3.975679  0  0  0.052807  0.094929  0  3.944585  0
C  C41  1  0.60779018  0.58211606  0.79645725  1  0  0.132386  0  3.705285  0  0  0.099673  0  3.95742  0  0  0.107339  0  3.97579  0  0  0.052764  0.094869  0  3.944695  0
C  C42  1  0.32011138  0.41500902  0.11217633  1  0  -0.168933  0  3.71089  0  0  -0.185882  0  3.95661  0  0  -0.194907  0  3.979112  0  0  -0.079253  -0.179934  0  3.941258  0
C  C43  1  0.67988928  0.58499099  0.88782351  1  0  -0.168985  0  3.710979  0  0  -0.185916  0  3.95669  0  0  -0.194939  0  3.979191  0  0  -0.07926  -0.179966  0  3.941335  0
C  C44  1  0.14993709  0.46929385  0.10908966  1  0  0.141527  0  3.797872  0  0  0.156809  0  4.026027  0  0  0.162698  0  4.048458  0  0  0.014191  0.153095  0  4.010545  0
C  C45  1  0.85006357  0.53070616  0.89090934  1  0  0.141537  0  3.797835  0  0  0.156824  0  4.025983  0  0  0.16271  0  4.048418  0  0  0.014172  0.15311  0  4.010502  0
C  C46  1  0.05900448  0.52176306  0.20327995  1  0  -0.146  0  3.667323  0  0  -0.162315  0  3.911303  0  0  -0.170586  0  3.933256  0  0  -0.070326  -0.157042  0  3.896624  0
C  C47  1  0.94099491  0.47823695  0.79672016  1  0  -0.14606  0  3.667365  0  0  -0.162376  0  3.911349  0  0  -0.170647  0  3.933303  0  0  -0.070343  -0.157104  0  3.896671  0
C  C48  1  0.14023146  0.52229445  0.29052638  1  0  0.148165  0  3.66665  0  0  0.11434  0  3.920933  0  0  0.121836  0  3.93871  0  0  0.059533  0.109574  0  3.908643  0
C  C49  1  0.85976777  0.47770652  0.70947339  1  0  0.148164  0  3.666684  0  0  0.114341  0  3.920958  0  0  0.121837  0  3.938735  0  0  0.059539  0.109573  0  3.908675  0
C  C50  1  0.07798285  0.47065601  0.00968959  1  0  -0.089719  0  3.697412  0  0  -0.108721  0  3.940908  0  0  -0.111558  0  3.960731  0  0  -0.072906  -0.106616  0  3.927023  0
C  C51  1  0.92201781  0.52934400  0.99031025  1  0  -0.089844  0  3.697395  0  0  -0.10885  0  3.940902  0  0  -0.111686  0  3.960726  0  0  -0.072931  -0.106744  0  3.927016  0
C  C52  1  0.24437629  0.66840970  0.55274033  1  0  0.65923  0  3.891794  0  0  0.608572  0  4.182111  0  0  0.644469  0  4.174915  0  0  0.211005  0.584297  0  4.186163  0
C  C53  1  0.75562436  0.33159031  0.44725951  1  0  0.659124  0  3.891891  0  0  0.608529  0  4.18216  0  0  0.644425  0  4.174965  0  0  0.210989  0.584255  0  4.186211  0
C  C54  1  0.08973349  0.75826509  0.58170218  1  0  -0.088677  0  3.783538  0  0  -0.065009  0  4.016474  0  0  -0.075718  0  4.041847  0  0  -0.029097  -0.058103  0  3.999321  0
C  C55  1  0.91026843  0.24173492  0.41829739  1  0  -0.088642  0  3.783477  0  0  -0.065084  0  4.016536  0  0  -0.075791  0  4.041906  0  0  -0.029101  -0.058177  0  3.999383  0
C  C56  1  0.08765274  0.83361901  0.65206352  1  0  -0.061435  0  3.763277  0  0  -0.086585  0  4.012717  0  0  -0.084729  0  4.032822  0  0  -0.088498  -0.087414  0  3.998875  0
C  C57  1  0.91234792  0.16638100  0.34793632  1  0  -0.061409  0  3.763282  0  0  -0.086535  0  4.012752  0  0  -0.084681  0  4.032857  0  0  -0.088479  -0.087365  0  3.998911  0
C  C58  1  0.94341306  0.91820833  0.67727385  1  0  -0.142632  0  3.752106  0  0  -0.160678  0  3.997595  0  0  -0.166478  0  4.021248  0  0  -0.098123  -0.156816  0  3.981451  0
C  C59  1  0.05658648  0.08179072  0.32272658  1  0  -0.142635  0  3.752118  0  0  -0.160677  0  3.997605  0  0  -0.166478  0  4.021258  0  0  -0.098153  -0.156816  0  3.981463  0
C  C60  1  0.79697313  0.92840045  0.63484278  1  0  0.153691  0  3.760792  0  0  0.180301  0  3.992091  0  0  0.183106  0  4.016597  0  0  -0.00651  0.17854  0  3.975322  0
C  C61  1  0.20302610  0.07160052  0.36515700  1  0  0.153709  0  3.760737  0  0  0.180315  0  3.992044  0  0  0.18312  0  4.01655  0  0  -0.006495  0.178556  0  3.975272  0
C  C62  1  0.79901914  0.85062777  0.56658180  1  0  -0.140139  0  3.737919  0  0  -0.158027  0  3.985847  0  0  -0.163698  0  4.007873  0  0  -0.096983  -0.154353  0  3.971058  0
C  C63  1  0.20098025  0.14937224  0.43341915  1  0  -0.140159  0  3.737942  0  0  -0.158045  0  3.985872  0  0  -0.163716  0  4.007898  0  0  -0.096989  -0.15437  0  3.971082  0
C  C64  1  0.94373691  0.76793994  0.53895917  1  0  -0.063845  0  3.764046  0  0  -0.091902  0  4.020669  0  0  -0.089886  0  4.040686  0  0  -0.090003  -0.093146  0  4.007237  0
C  C65  1  0.05626375  0.23206007  0.46104152  1  0  -0.063869  0  3.764049  0  0  -0.091922  0  4.0207  0  0  -0.089905  0  4.040714  0  0  -0.090012  -0.093166  0  4.007269  0
C  C66  1  0.64109450  0.01892590  0.66197424  1  0  -0.341819  0  3.739486  0  0  -0.424061  0  3.977348  0  0  -0.426701  0  3.987464  0  0  -0.242112  -0.42198  0  3.970293  0
C  C67  1  0.35890727  0.98107507  0.33802501  1  0  -0.341881  0  3.739552  0  0  -0.424141  0  3.977391  0  0  -0.426781  0  3.987503  0  0  -0.242147  -0.422055  0  3.970344  0
C  C68  1  0.65183637  0.69085853  0.31474026  1  0  0.648535  0  3.907158  0  0  0.598698  0  4.198829  0  0  0.634058  0  4.191919  0  0  0.206719  0.574756  0  4.202712  0
C  C69  1  0.34816286  0.30914243  0.68525951  1  0  0.648543  0  3.907055  0  0  0.598714  0  4.198714  0  0  0.634073  0  4.191806  0  0  0.206702  0.574772  0  4.202598  0
C  C70  1  0.70517641  0.81061444  0.20819833  1  0  -0.089117  0  3.780105  0  0  -0.067218  0  4.015914  0  0  -0.077009  0  4.039669  0  0  -0.027559  -0.060905  0  3.999906  0
C  C71  1  0.29482297  0.18938557  0.79180092  1  0  -0.08912  0  3.780026  0  0  -0.067219  0  4.015845  0  0  -0.077009  0  4.0396  0  0  -0.027568  -0.060905  0  3.999837  0
C  C72  1  0.77665322  0.90096002  0.22680882  1  0  -0.063371  0  3.751988  0  0  -0.086539  0  3.999943  0  0  -0.084403  0  4.019152  0  0  -0.08373  -0.087664  0  3.986759  0
C  C73  1  0.22334616  0.09903999  0.77319044  1  0  -0.063365  0  3.751989  0  0  -0.086546  0  3.999956  0  0  -0.08441  0  4.019165  0  0  -0.08374  -0.087672  0  3.986772  0
C  C74  1  0.80798178  0.01778380  0.13035348  1  0  -0.141623  0  3.736979  0  0  -0.157015  0  3.977887  0  0  -0.162036  0  3.998824  0  0  -0.094892  -0.153731  0  3.963702  0
C  C75  1  0.19201761  0.98221621  0.86964662  1  0  -0.141614  0  3.736956  0  0  -0.157  0  3.977868  0  0  -0.162022  0  3.998806  0  0  -0.094887  -0.153717  0  3.963682  0
C  C76  1  0.77123035  0.04737944  0.01257798  1  0  0.155349  0  3.753348  0  0  0.179715  0  3.987697  0  0  0.18258  0  4.01163  0  0  -0.00495  0.177921  0  3.97134  0
C  C77  1  0.22877030  0.95262057  0.98742102  1  0  0.155337  0  3.753327  0  0  0.179697  0  3.987688  0  0  0.182561  0  4.011622  0  0  -0.004962  0.177904  0  3.97133  0
C  C78  1  0.70690767  0.95433049  0.99301563  1  0  -0.1408  0  3.753004  0  0  -0.156647  0  3.996749  0  0  -0.162036  0  4.019468  0  0  -0.095378  -0.153117  0  3.981304  0
C  C79  1  0.29309172  0.04566952  0.00698362  1  0  -0.140802  0  3.752996  0  0  -0.156654  0  3.996747  0  0  -0.162042  0  4.019466  0  0  -0.095379  -0.153124  0  3.981304  0
C  C80  1  0.67296971  0.83803339  0.08976963  1  0  -0.068108  0  3.766447  0  0  -0.092749  0  4.017623  0  0  -0.091064  0  4.036947  0  0  -0.089973  -0.093583  0  4.004441  0
C  C81  1  0.32703095  0.16196662  0.91023021  1  0  -0.068078  0  3.766391  0  0  -0.092735  0  4.017569  0  0  -0.091049  0  4.036894  0  0  -0.089938  -0.09357  0  4.004389  0
C  C82  1  0.79675236  0.17664547  0.91230506  1  0  -0.341322  0  3.741044  0  0  -0.422231  0  3.978948  0  0  -0.425057  0  3.989079  0  0  -0.241902  -0.420048  0  3.971809  0
C  C83  1  0.20324702  0.82335453  0.08769504  1  0  -0.341325  0  3.740992  0  0  -0.422241  0  3.978902  0  0  -0.425067  0  3.989034  0  0  -0.241921  -0.420063  0  3.971762  0
N  N84  1  0.30461208  0.47212736  0.29046067  1  0  -0.311336  0  3.272517  0  0  -0.228811  0  3.543997  0  0  -0.249008  0  3.559262  0  0  -0.326592  -0.215089  0  3.533307  0
N  N85  1  0.69538731  0.52787265  0.70953943  1  0  -0.311245  0  3.272645  0  0  -0.228699  0  3.544081  0  0  -0.248896  0  3.559348  0  0  -0.326537  -0.214977  0  3.533389  0
O  O86  1  0.24241974  0.61207458  0.47822630  1  0  -0.646585  0  2.088696  0  0  -0.580055  0  2.355168  0  0  -0.609399  0  2.34174  0  0  -0.318771  -0.559644  0  2.363529  0
O  O87  1  0.75757964  0.38792543  0.52177465  1  0  -0.646515  0  2.08873  0  0  -0.580005  0  2.355184  0  0  -0.609358  0  2.34178  0  0  -0.318744  -0.55959  0  2.363538  0
O  O88  1  0.36740198  0.65362355  0.60413205  1  0  -0.636048  0  2.063777  0  0  -0.570968  0  2.323304  0  0  -0.599778  0  2.309774  0  0  -0.319615  -0.551007  0  2.331964  0
O  O89  1  0.63259964  0.34637838  0.39586602  1  0  -0.636047  0  2.06382  0  0  -0.570952  0  2.323292  0  0  -0.599761  0  2.309761  0  0  -0.319622  -0.550992  0  2.331951  0
O  O90  1  0.57080918  0.62164472  0.29247577  1  0  -0.649528  0  2.064828  0  0  -0.588678  0  2.329391  0  0  -0.616777  0  2.315682  0  0  -0.326172  -0.569087  0  2.338088  0
O  O91  1  0.42919020  0.37835528  0.70752433  1  0  -0.649518  0  2.064818  0  0  -0.588677  0  2.329385  0  0  -0.616776  0  2.315677  0  0  -0.326166  -0.569086  0  2.338083  0
O  O92  1  0.68830696  0.66755539  0.41990104  1  0  -0.621234  0  2.045176  0  0  -0.55657  0  2.305848  0  0  -0.585673  0  2.294242  0  0  -0.313341  -0.536295  0  2.313078  0
O  O93  1  0.31169369  0.33244462  0.58009796  1  0  -0.621261  0  2.045096  0  0  -0.556599  0  2.305761  0  0  -0.585701  0  2.294156  0  0  -0.313326  -0.536324  0  2.312992  0
