# generated using pymatgen
data_MnH16C26N5O4
_symmetry_space_group_name_H-M   'P 1'
_cell_length_a   14.75331076
_cell_length_b   15.67831684
_cell_length_c   16.57193297
_cell_angle_alpha   93.16360900
_cell_angle_beta   109.45256838
_cell_angle_gamma   110.72599932
_symmetry_Int_Tables_number   1
_chemical_formula_structural   MnH16C26N5O4
_chemical_formula_sum   'Mn4 H64 C104 N20 O16'
_cell_volume   3314.76881948
_cell_formula_units_Z   4
loop_
 _symmetry_equiv_pos_site_id
 _symmetry_equiv_pos_as_xyz
  1  'x, y, z'
loop_
 _atom_site_type_symbol
 _atom_site_label
 _atom_site_symmetry_multiplicity
 _atom_site_fract_x
 _atom_site_fract_y
 _atom_site_fract_z
 _atom_site_occupancy
 _atom_site_pbe_bader_charge
 _atom_site_pbe_bader_spin_density
 _atom_site_pbe_cm5_charge
 _atom_site_pbe_ddec_charge
 _atom_site_pbe_ddec_spin_density
 _atom_site_pbe_ddec_sum_bond_order
 _atom_site_pbe_magmom
Mn  Mn0  1  0.83373890  0.26023085  0.32166819  1  1.46714  4.514553  0.604428  0.812689  4.654637  2.501213  4.432
Mn  Mn1  1  0.16626200  0.73977201  0.67833507  1  1.467015  4.514589  0.604402  0.81264  4.654617  2.501233  4.432
Mn  Mn2  1  0.66378235  0.67015599  0.74210482  1  1.473461  4.512664  0.604809  0.811534  4.653554  2.513944  4.432
Mn  Mn3  1  0.33622000  0.32984198  0.25789442  1  1.473446  4.512666  0.604802  0.811513  4.653597  2.513939  4.432
H  H4  1  0.82476272  0.39496097  0.46999232  1  0.122257  0.00139  0.121145  0.092198  0.000645  0.986372  0.001
H  H5  1  0.17523952  0.60504327  0.53001019  1  0.122224  0.001389  0.12113  0.092188  0.000645  0.986382  0.001
H  H6  1  0.93435610  0.47840278  0.62636080  1  0.080057  0.000726  0.111043  0.118299  0.000308  0.991503  0.0
H  H7  1  0.06565097  0.52159938  0.37364246  1  0.080222  0.000726  0.111049  0.118323  0.000308  0.991459  0.0
H  H8  1  0.11158948  0.47286946  0.69624511  1  0.103383  0.000241  0.110403  0.111185  -4.1e-05  1.011268  0.0
H  H9  1  0.88841411  0.52713128  0.30375402  1  0.103316  0.000241  0.110411  0.111203  -4.1e-05  1.011265  0.0
H  H10  1  0.17101535  0.38500618  0.61069706  1  0.11883  0.000675  0.106655  0.111303  0.000364  1.046781  0.0
H  H11  1  0.82898659  0.61499250  0.38930450  1  0.118888  0.000675  0.106656  0.11129  0.000364  1.046697  0.0
H  H12  1  0.03913638  0.02153227  0.31531751  1  0.098624  8.4e-05  0.113744  0.121469  4.8e-05  0.983395  0.0
H  H13  1  0.96086073  0.97846847  0.68468029  1  0.098463  8.4e-05  0.113735  0.121494  4.8e-05  0.983304  0.0
H  H14  1  0.96085315  0.90388068  0.17948024  1  0.074081  6.4e-05  0.106134  0.107548  3.2e-05  0.99258  0.0
H  H15  1  0.03914971  0.09612007  0.82051868  1  0.07412  6.4e-05  0.106142  0.107575  3.2e-05  0.992533  0.0
H  H16  1  0.86672635  0.09724885  0.03227307  1  0.043778  6.5e-05  0.103329  0.103909  1.8e-05  0.997296  0.0
H  H17  1  0.13327415  0.90274984  0.96772987  1  0.0437  6.5e-05  0.103281  0.103849  1.8e-05  0.997243  0.0
H  H18  1  0.94361340  0.21425561  0.16870651  1  0.083845  0.000291  0.109147  0.11158  0.000172  1.017027  0.0
H  H19  1  0.05638577  0.78574166  0.83129235  1  0.083798  0.000291  0.109167  0.111563  0.000172  1.017073  0.0
H  H20  1  0.71321710  0.68673084  0.93833084  1  0.131487  0.001604  0.126069  0.101378  0.000946  0.978065  0.001
H  H21  1  0.28678761  0.31326922  0.06166920  1  0.131571  0.001604  0.126107  0.101374  0.000946  0.978186  0.001
H  H22  1  0.79904761  0.80421185  0.07689442  1  0.094838  0.000703  0.110491  0.116727  0.000383  0.991988  0.0
H  H23  1  0.20095310  0.19578889  0.92310445  1  0.09482  0.000703  0.11049  0.116738  0.000383  0.991968  0.0
H  H24  1  0.89725480  0.01314059  0.92939507  1  0.062539  0.000725  0.106703  0.114033  0.000401  1.006311  0.0
H  H25  1  0.10274899  0.98685738  0.07060339  1  0.062636  0.000725  0.10669  0.114011  0.000401  1.006375  0.0
H  H26  1  0.80423376  0.88725646  0.79684645  1  0.098978  0.00133  0.120019  0.089464  0.000729  0.99887  0.001
H  H27  1  0.19577075  0.11274151  0.20315343  1  0.098912  0.00133  0.119998  0.089459  0.000729  0.998909  0.001
H  H28  1  0.67135875  0.52285591  0.60546506  1  0.127443  0.001422  0.121008  0.09295  0.000659  0.985894  0.001
H  H29  1  0.32863980  0.47714483  0.39453377  1  0.127453  0.001422  0.120999  0.092925  0.000659  0.985827  0.001
H  H30  1  0.55389835  0.36426874  0.50963574  1  0.083378  0.00072  0.110599  0.117817  0.000311  0.993599  0.0
H  H31  1  0.44610174  0.63573061  0.49036289  1  0.083478  0.00072  0.110621  0.117833  0.000311  0.993548  0.0
H  H32  1  0.37015515  0.29055259  0.50592476  1  0.071486  0.000235  0.110114  0.10958  -1.7e-05  1.017996  0.0
H  H33  1  0.62984298  0.70944402  0.49407858  1  0.07113  0.000235  0.11013  0.109536  -1.6e-05  1.018089  0.0
H  H34  1  0.31187119  0.37425874  0.59594960  1  0.092165  0.000689  0.10596  0.11077  0.000364  1.049271  0.0
H  H35  1  0.68813784  0.62574135  0.40405536  1  0.092549  0.000688  0.105982  0.110807  0.000364  1.049232  0.0
H  H36  1  0.55836908  0.83236400  0.79358264  1  0.094637  0.000263  0.109489  0.111456  0.000143  1.014609  0.0
H  H37  1  0.44162978  0.16763744  0.20641691  1  0.094635  0.000263  0.109493  0.111455  0.000143  1.014623  0.0
H  H38  1  0.63638539  0.97183844  0.91042825  1  0.056518  6.4e-05  0.103889  0.103866  1.9e-05  0.996779  0.0
H  H39  1  0.36361141  0.02816162  0.08957183  1  0.056543  6.4e-05  0.103875  0.103757  1.9e-05  0.996799  0.0
H  H40  1  0.52651088  0.80056650  0.08078247  1  0.088841  6.3e-05  0.106538  0.108095  3.3e-05  0.992057  0.0
H  H41  1  0.47348437  0.19943495  0.91921842  1  0.088743  6.3e-05  0.106523  0.108089  3.3e-05  0.992062  0.0
H  H42  1  0.44726912  0.66168777  0.96337014  1  0.098536  9.6e-05  0.112908  0.120857  5.6e-05  0.98176  0.0
H  H43  1  0.55272994  0.33831090  0.03662995  1  0.098554  9.6e-05  0.112917  0.120887  5.6e-05  0.98177  0.0
H  H44  1  0.77552327  0.05051865  0.29557216  1  0.118749  0.001664  0.126533  0.10164  0.000979  0.976596  0.001
H  H45  1  0.22447497  0.94948141  0.70442715  1  0.118891  0.001664  0.126554  0.101635  0.000979  0.976532  0.001
H  H46  1  0.68839675  0.90738699  0.17982223  1  0.071889  0.000702  0.110814  0.117895  0.000384  0.990684  0.0
H  H47  1  0.31159840  0.09261584  0.82017689  1  0.07199  0.000702  0.110807  0.117854  0.000384  0.99073  0.0
H  H48  1  0.60569912  0.07590138  0.99339494  1  0.065828  0.000722  0.106395  0.113096  0.0004  1.007985  0.0
H  H49  1  0.39430435  0.92410564  0.00660686  1  0.065836  0.000722  0.106408  0.113112  0.0004  1.007919  0.0
H  H50  1  0.69919352  0.21218443  0.11646846  1  0.110973  0.001348  0.119859  0.089278  0.000802  0.998503  0.001
H  H51  1  0.30081263  0.78782050  0.88353344  1  0.111063  0.001348  0.119852  0.089318  0.000802  0.998496  0.001
H  H52  1  0.65149161  0.05832511  0.46494173  1  0.117134  0.000552  0.104894  0.113106  0.000227  1.021596  0.0
H  H53  1  0.34850673  0.94167356  0.53505754  1  0.11715  0.000552  0.104903  0.113107  0.000227  1.021615  0.0
H  H54  1  0.35101328  0.03830095  0.46567082  1  0.11556  0.000206  0.104523  0.111048  0.000133  1.025523  0.0
H  H55  1  0.64898794  0.96169772  0.53433052  1  0.115536  0.000206  0.104503  0.110999  0.000133  1.025601  0.0
H  H56  1  0.51658266  0.24355811  0.34873715  1  0.116305  0.000282  0.103249  0.102831  -0.000244  1.050924  0.0
H  H57  1  0.48341393  0.75643985  0.65125976  1  0.116316  0.000282  0.103216  0.1028  -0.000244  1.050901  0.0
H  H58  1  0.84504869  0.52838315  0.94118186  1  0.104346  0.000548  0.104059  0.110835  0.000218  1.02464  0.0
H  H59  1  0.15494627  0.47161272  0.05881446  1  0.104349  0.000548  0.104022  0.110757  0.000219  1.024652  0.0
H  H60  1  0.14444318  0.52875886  0.95621689  1  0.109596  0.000218  0.103322  0.109403  0.000133  1.026595  0.0
H  H61  1  0.85555671  0.47124329  0.04378361  1  0.113596  0.000215  0.103345  0.109413  0.000133  1.026571  0.0
H  H62  1  0.97095678  0.63113655  0.75153550  1  0.110828  0.000321  0.104037  0.104931  -0.000278  1.044124  0.0
H  H63  1  0.02904126  0.36886141  0.24846244  1  0.110907  0.000321  0.104047  0.104937  -0.000278  1.044135  0.0
H  H64  1  0.30527753  0.58354870  0.80935861  1  0.578691  0.000419  0.307253  0.274893  0.00036  1.022757  0.0
H  H65  1  0.69472317  0.41645207  0.19064448  1  0.578711  0.000419  0.307269  0.274921  0.00036  1.022751  0.0
H  H66  1  0.18199941  0.17896735  0.39869075  1  0.578179  0.000415  0.307153  0.274221  0.000346  1.024201  0.0
H  H67  1  0.81800078  0.82103062  0.60130905  1  0.578042  0.000415  0.30717  0.274251  0.000346  1.024206  0.0
C  C68  1  0.90192671  0.39464966  0.50424240  1  0.42084  0.007176  0.054203  0.098539  0.005627  3.950343  0.005
C  C69  1  0.09807502  0.60535180  0.49575983  1  0.420294  0.007177  0.054248  0.098636  0.005626  3.950199  0.005
C  C70  1  0.96268042  0.44027376  0.59058288  1  0.023226  -1.3e-05  -0.080451  -0.129679  -0.000708  3.969941  0.0
C  C71  1  0.03732368  0.55972978  0.40941835  1  0.023065  -1.3e-05  -0.080501  -0.129825  -0.000708  3.969984  0.0
C  C72  1  0.06091241  0.43701759  0.62948386  1  -0.010918  0.006272  -0.062756  -0.014002  0.004697  3.951346  0.004
C  C73  1  0.93909210  0.56298524  0.37051504  1  -0.010819  0.006271  -0.062753  -0.013993  0.004696  3.95132  0.004
C  C74  1  0.09452015  0.38788799  0.58163616  1  -0.015555  -0.000361  -0.078435  -0.155833  -0.000782  3.940448  -0.001
C  C75  1  0.90548405  0.61211415  0.41836322  1  -0.015461  -0.000361  -0.078411  -0.155756  -0.000782  3.940295  -0.001
C  C76  1  0.02814636  0.34285420  0.49568625  1  0.470818  0.006858  0.128298  0.164562  0.005277  4.003013  0.004
C  C77  1  0.97185301  0.65714517  0.50431457  1  0.470807  0.006857  0.128323  0.164561  0.005275  4.003025  0.004
C  C78  1  0.05372281  0.28541943  0.44157148  1  0.986408  0.005444  0.217209  0.228255  0.004087  4.056359  0.004
C  C79  1  0.94627594  0.71457855  0.55842970  1  0.986806  0.005444  0.217212  0.22825  0.004087  4.056495  0.004
C  C80  1  0.03349710  0.19065189  0.33323263  1  1.000303  0.00885  0.242694  0.293447  0.00675  3.983961  0.007
C  C81  1  0.96650216  0.80934886  0.66676762  1  1.000151  0.00885  0.242671  0.293441  0.00675  3.983875  0.007
C  C82  1  0.99375158  0.12486209  0.25129469  1  0.012149  0.001128  0.004251  0.021004  0.000586  4.015106  0.001
C  C83  1  0.00625015  0.87513936  0.74870573  1  0.01223  0.001128  0.004321  0.021104  0.000586  4.015014  0.001
C  C84  1  0.00036816  0.03769593  0.25326592  1  0.006555  0.000714  -0.080123  -0.111189  0.000545  3.974899  0.0
C  C85  1  0.99962977  0.96230343  0.74673326  1  0.006691  0.000715  -0.080146  -0.111255  0.000545  3.974705  0.0
C  C86  1  0.95610250  0.97161970  0.17670252  1  -0.083238  0.001159  -0.088081  -0.131055  0.000886  3.992456  0.001
C  C87  1  0.04389687  0.02837966  0.82329770  1  -0.083267  0.001159  -0.088088  -0.131106  0.000886  3.992398  0.001
C  C88  1  0.90641814  0.99141800  0.09600792  1  -0.02897  0.000199  -0.009018  0.052191  0.000132  4.022433  0.0
C  C89  1  0.09358123  0.00858136  0.90399109  1  -0.028983  0.000199  -0.009024  0.052199  0.000132  4.022393  0.0
C  C90  1  0.90459932  0.08033728  0.09423266  1  -0.072733  0.001248  -0.084981  -0.122867  0.000916  3.975596  0.001
C  C91  1  0.09540683  0.91966277  0.90576721  1  -0.07273  0.001248  -0.0849  -0.122772  0.000917  3.97531  0.001
C  C92  1  0.94670668  0.14600581  0.17076673  1  0.041545  0.000856  -0.074318  -0.088795  0.000423  3.951412  0.0
C  C93  1  0.05329485  0.85399355  0.82923293  1  0.041699  0.000856  -0.074377  -0.088818  0.000423  3.951473  0.0
C  C94  1  0.75413197  0.76021256  0.93949326  1  0.507298  0.0087  0.054732  0.102044  0.006979  3.948536  0.006
C  C95  1  0.24587018  0.23978818  0.06050483  1  0.507174  0.0087  0.054713  0.102032  0.00698  3.948584  0.006
C  C96  1  0.80362265  0.82592614  0.01654114  1  -0.036622  -0.000736  -0.08261  -0.177498  -0.001339  3.953451  -0.001
C  C97  1  0.19637559  0.17407390  0.98345696  1  -0.036648  -0.000736  -0.082617  -0.177515  -0.001339  3.953445  -0.001
C  C98  1  0.85575173  0.91994903  0.01554207  1  -0.037847  0.007376  0.010934  0.105636  0.005657  4.00289  0.005
C  C99  1  0.14424620  0.08005033  0.98445651  1  -0.037809  0.007376  0.010949  0.105642  0.005658  4.002878  0.005
C  C100  1  0.85576909  0.94204199  0.93455716  1  -0.021333  -0.000919  -0.08638  -0.187105  -0.001424  3.963326  -0.001
C  C101  1  0.14423326  0.05795598  0.06544208  1  -0.021472  -0.000919  -0.086341  -0.187029  -0.001424  3.963281  -0.001
C  C102  1  0.80451533  0.87199217  0.86036107  1  0.469707  0.008834  0.053523  0.102321  0.006975  3.945241  0.006
C  C103  1  0.19548620  0.12800719  0.13963799  1  0.46972  0.008835  0.0535  0.10227  0.006975  3.945207  0.006
C  C104  1  0.59105983  0.48681505  0.60107589  1  0.544088  0.007563  0.055966  0.099846  0.00602  3.947905  0.005
C  C105  1  0.40894128  0.51318501  0.39892367  1  0.543788  0.007563  0.055956  0.099863  0.006019  3.94787  0.005
C  C106  1  0.52594227  0.39925585  0.54863272  1  -0.160768  -4.1e-05  -0.081458  -0.130513  -0.000845  3.96765  0.0
C  C107  1  0.47405803  0.60074558  0.45136486  1  -0.160898  -4e-05  -0.081444  -0.130442  -0.000845  3.967598  0.0
C  C108  1  0.42415029  0.35826078  0.54668037  1  0.057527  0.006734  -0.063323  -0.014427  0.005101  3.950914  0.004
C  C109  1  0.57585042  0.64173997  0.45331911  1  0.057957  0.006732  -0.063368  -0.014459  0.0051  3.951066  0.004
C  C110  1  0.39115952  0.40501777  0.59726735  1  -0.008449  -0.000477  -0.077686  -0.155083  -0.000918  3.939107  -0.001
C  C111  1  0.60884746  0.59498577  0.40273413  1  -0.008939  -0.000477  -0.077731  -0.155124  -0.000917  3.938973  -0.001
C  C112  1  0.46177783  0.49215536  0.64898174  1  0.527139  0.00733  0.128723  0.164938  0.005685  4.003297  0.005
C  C113  1  0.53822575  0.50784541  0.35102101  1  0.529087  0.007327  0.128794  0.165011  0.005684  4.003225  0.005
C  C114  1  0.43677013  0.54522407  0.70747521  1  0.987575  0.005527  0.21821  0.228616  0.004167  4.056314  0.004
C  C115  1  0.56323201  0.45477670  0.29252771  1  0.987662  0.005528  0.218211  0.228688  0.004168  4.056279  0.004
C  C116  1  0.45897341  0.65394062  0.80457663  1  1.024842  0.009042  0.242614  0.294577  0.006916  3.985092  0.007
C  C117  1  0.54102729  0.34606014  0.19542406  1  1.024722  0.009043  0.242609  0.294632  0.006917  3.98519  0.007
C  C118  1  0.50013549  0.73751118  0.87135301  1  -0.066258  0.001108  0.003364  0.020523  0.000555  4.013984  0.0
C  C119  1  0.49986449  0.26248957  0.12864806  1  -0.066259  0.001108  0.003364  0.020464  0.000555  4.014059  0.0
C  C120  1  0.55200815  0.82572531  0.85673349  1  -0.012878  0.000864  -0.074362  -0.088474  0.000408  3.949286  0.0
C  C121  1  0.44799255  0.17427544  0.14326659  1  -0.012848  0.000864  -0.074375  -0.088491  0.000408  3.949366  0.0
C  C122  1  0.59477796  0.90395139  0.92230721  1  -0.004014  0.001207  -0.08541  -0.12254  0.000896  3.97471  0.001
C  C123  1  0.40521760  0.09605074  0.07769139  1  -0.004069  0.001208  -0.085364  -0.122316  0.000896  3.974717  0.001
C  C124  1  0.58868917  0.89631360  0.00465965  1  -0.066155  0.000219  -0.00959  0.051122  0.000151  4.020146  0.0
C  C125  1  0.41130547  0.10368646  0.99533978  1  -0.066252  0.000219  -0.00956  0.051095  0.000151  4.020331  0.0
C  C126  1  0.53444298  0.80797980  0.01810968  1  -0.03009  0.001122  -0.087937  -0.130681  0.00086  3.991624  0.001
C  C127  1  0.46555310  0.19202027  0.98189079  1  -0.029822  0.001122  -0.087915  -0.130649  0.00086  3.991741  0.001
C  C128  1  0.48964179  0.72964974  0.95213494  1  -0.00155  0.000746  -0.079186  -0.11047  0.000571  3.975867  0.0
C  C129  1  0.51035716  0.27035032  0.04786519  1  -0.001681  0.000746  -0.079233  -0.110546  0.000571  3.9759  0.0
C  C130  1  0.73765837  0.05290133  0.22737623  1  0.469891  0.008471  0.055599  0.103094  0.006738  3.946634  0.006
C  C131  1  0.26234141  0.94710221  0.77262490  1  0.469707  0.008472  0.055697  0.10329  0.006738  3.946499  0.006
C  C132  1  0.68744724  0.97323046  0.16260422  1  0.009236  -0.000673  -0.082826  -0.178544  -0.001247  3.950966  -0.001
C  C133  1  0.31254874  0.02677099  0.83739628  1  0.008997  -0.000673  -0.082855  -0.17851  -0.001247  3.951164  -0.001
C  C134  1  0.63948907  0.97889109  0.07543378  1  -0.031185  0.00705  0.011751  0.105987  0.005398  4.000674  0.004
C  C135  1  0.36050691  0.02111034  0.92456431  1  -0.031247  0.007051  0.011706  0.105861  0.005399  4.000739  0.004
C  C136  1  0.64391683  0.06694503  0.05908961  1  -0.037153  -0.00073  -0.086657  -0.186059  -0.001261  3.961743  -0.001
C  C137  1  0.35608120  0.93305781  0.94091097  1  -0.037043  -0.00073  -0.086597  -0.185967  -0.001261  3.961373  -0.001
C  C138  1  0.69551905  0.14329573  0.12768227  1  0.480448  0.0086  0.054083  0.101905  0.006841  3.943963  0.006
C  C139  1  0.30448258  0.85670710  0.87231698  1  0.480478  0.008601  0.054044  0.101818  0.006842  3.94387  0.006
C  C140  1  0.68286265  0.19393705  0.37718991  1  1.541912  0.008329  0.193328  0.551653  0.009855  4.213793  0.006
C  C141  1  0.31713610  0.80606092  0.62280946  1  1.541982  0.008328  0.193364  0.551663  0.009854  4.2139  0.006
C  C142  1  0.59180633  0.15315509  0.40414417  1  0.013902  -0.000912  -0.022127  -0.028611  -0.00177  4.005983  -0.002
C  C143  1  0.40819335  0.84684497  0.59585496  1  0.013941  -0.000912  -0.0221  -0.028522  -0.001769  4.006024  -0.002
C  C144  1  0.58661473  0.08044777  0.44987417  1  -0.054912  0.005618  -0.075873  -0.126576  0.004301  3.907519  0.003
C  C145  1  0.41338300  0.91954950  0.55012486  1  -0.054957  0.005617  -0.075915  -0.126632  0.004301  3.907614  0.003
C  C146  1  0.50179406  0.03792195  0.47493904  1  -0.091092  -0.000397  -0.009106  0.063893  -0.000604  4.010171  0.0
C  C147  1  0.49820571  0.96207672  0.52506127  1  -0.056127  -0.000397  -0.009076  0.063897  -0.000604  4.010167  0.0
C  C148  1  0.42028418  0.06933218  0.45016990  1  -0.031098  0.005204  -0.079715  -0.12886  0.004119  3.919818  0.003
C  C149  1  0.57971632  0.93066648  0.54982881  1  -0.031128  0.005203  -0.079716  -0.128859  0.004118  3.919927  0.003
C  C150  1  0.42460035  0.14214261  0.40455817  1  -0.05566  0.001016  -0.026962  -0.053404  0.000249  4.027824  0.0
C  C151  1  0.57539830  0.85785674  0.59544002  1  -0.055633  0.001017  -0.026899  -0.05322  0.000249  4.027929  0.0
C  C152  1  0.51142376  0.18543859  0.38257644  1  -0.049003  0.004595  -0.082595  -0.118959  0.003246  3.956912  0.003
C  C153  1  0.48857325  0.81455866  0.61741935  1  -0.049117  0.004594  -0.08261  -0.119067  0.003246  3.957082  0.003
C  C154  1  0.33593032  0.17363799  0.38031762  1  1.563786  0.016155  0.212749  0.578202  0.015796  4.225909  0.015
C  C155  1  0.66406802  0.82636068  0.61968226  1  1.563759  0.016154  0.212675  0.578074  0.015795  4.226102  0.015
C  C156  1  0.80799813  0.60659276  0.80324097  1  1.533708  0.008437  0.192617  0.550704  0.009987  4.214662  0.006
C  C157  1  0.19200165  0.39340590  0.19675813  1  1.534092  0.008436  0.192645  0.550751  0.009986  4.214686  0.006
C  C158  1  0.89988535  0.58169257  0.84373984  1  0.040509  -0.000935  -0.021322  -0.026588  -0.001797  4.002734  -0.002
C  C159  1  0.10011546  0.41830679  0.15626081  1  0.039799  -0.000935  -0.021308  -0.026663  -0.001798  4.002806  -0.002
C  C160  1  0.90867632  0.54194159  0.91791277  1  -0.048243  0.00605  -0.077108  -0.127301  0.004651  3.909479  0.004
C  C161  1  0.09131977  0.45805359  0.08208447  1  -0.047919  0.00605  -0.077105  -0.127132  0.004651  3.909503  0.004
C  C162  1  0.99569190  0.52111978  0.96060135  1  -0.032337  -0.000508  -0.010512  0.06281  -0.00072  4.003137  -0.001
C  C163  1  0.00430654  0.47887750  0.03939909  1  0.000365  -0.000509  -0.010512  0.062676  -0.00072  4.003163  -0.001
C  C164  1  0.07443674  0.54234090  0.92626112  1  -0.078952  0.005652  -0.080659  -0.130584  0.004448  3.918888  0.003
C  C165  1  0.92556139  0.45766056  0.07374063  1  -0.083262  0.005656  -0.080666  -0.130542  0.004449  3.918819  0.003
C  C166  1  0.06639323  0.58187160  0.85189723  1  -0.014126  0.0008  -0.027065  -0.053481  4.3e-05  4.02876  0.0
C  C167  1  0.93360429  0.41812846  0.14810307  1  -0.013846  0.0008  -0.027083  -0.053512  4.3e-05  4.028793  0.0
C  C168  1  0.97845082  0.60104737  0.80991450  1  -0.108976  0.004972  -0.082829  -0.118943  0.003521  3.960069  0.003
C  C169  1  0.02154783  0.39895199  0.19008369  1  -0.109004  0.004972  -0.082826  -0.118914  0.003521  3.960091  0.003
C  C170  1  0.15240220  0.60341127  0.81760970  1  1.55388  0.017841  0.212778  0.577785  0.017275  4.224639  0.016
C  C171  1  0.84759583  0.39658670  0.18239005  1  1.553943  0.017841  0.212789  0.577872  0.017275  4.224552  0.016
N  N172  1  0.98599029  0.24034265  0.35815050  1  -1.225043  0.050389  -0.323557  -0.403652  0.035784  3.360769  0.015
N  N173  1  0.01400907  0.75965672  0.64185032  1  -1.224924  0.050378  -0.323557  -0.403666  0.035784  3.360761  0.015
N  N174  1  0.75349644  0.78237950  0.86194737  1  -1.2609  0.049924  -0.316737  -0.238299  0.032718  3.509998  0.014
N  N175  1  0.24650581  0.21761985  0.13805130  1  -1.260721  0.049927  -0.316727  -0.238262  0.032718  3.509926  0.014
N  N176  1  0.74286330  0.13731333  0.21070683  1  -1.252888  0.049433  -0.316128  -0.239097  0.033277  3.507122  0.014
N  N177  1  0.25713761  0.86268951  0.78929401  1  -1.252785  0.049426  -0.316195  -0.239225  0.033275  3.507166  0.014
N  N178  1  0.50767639  0.63098053  0.75656415  1  -1.232093  0.050905  -0.32515  -0.406929  0.036231  3.367334  0.015
N  N179  1  0.49232463  0.36902093  0.24343666  1  -1.232029  0.05091  -0.325095  -0.40687  0.036232  3.367334  0.015
N  N180  1  0.93370477  0.34699920  0.45749624  1  -1.233546  0.051711  -0.307914  -0.261905  0.03531  3.470407  0.02
N  N181  1  0.06629521  0.65300156  0.54250543  1  -1.233002  0.051703  -0.307936  -0.261943  0.03531  3.470307  0.02
N  N182  1  0.55993111  0.53249265  0.65018443  1  -1.244859  0.052063  -0.310671  -0.262791  0.035439  3.475835  0.02
N  N183  1  0.44007257  0.46750673  0.34981829  1  -1.246467  0.052062  -0.310711  -0.262904  0.035439  3.475912  0.02
N  N184  1  0.34820645  0.51511199  0.72257351  1  -0.663306  0.002572  -0.214518  -0.228247  0.0015  3.099969  0.001
N  N185  1  0.65179496  0.48488878  0.27742919  1  -0.663333  0.002572  -0.214551  -0.228345  0.0015  3.100036  0.001
N  N186  1  0.36435995  0.58442099  0.78436524  1  -0.825263  0.004593  -0.240103  -0.121532  0.002779  3.612388  0.003
N  N187  1  0.63564034  0.41558047  0.21563656  1  -0.825342  0.004594  -0.240147  -0.121595  0.002779  3.612409  0.003
N  N188  1  0.12452532  0.20631662  0.39930290  1  -0.824909  0.00453  -0.240864  -0.121466  0.002756  3.613368  0.003
N  N189  1  0.87547333  0.79368274  0.60069650  1  -0.824763  0.00453  -0.240856  -0.121521  0.002756  3.613362  0.003
N  N190  1  0.13936188  0.26651070  0.46838733  1  -0.656868  0.002523  -0.21258  -0.227291  0.00149  3.10602  0.001
N  N191  1  0.86063657  0.73348658  0.53161251  1  -0.657422  0.002523  -0.212621  -0.227295  0.00149  3.106062  0.001
O  O192  1  0.75114962  0.15844590  0.39312783  1  -1.184579  0.05527  -0.326208  -0.561668  0.039225  2.178588  0.032
O  O193  1  0.24885078  0.84155416  0.60687152  1  -1.184561  0.05527  -0.326235  -0.561682  0.039225  2.178572  0.032
O  O194  1  0.68951988  0.26260799  0.33761485  1  -1.192712  0.059353  -0.326828  -0.555597  0.041662  2.175646  0.033
O  O195  1  0.31047949  0.73739136  0.66238295  1  -1.192713  0.059345  -0.326831  -0.555585  0.041659  2.175802  0.033
O  O196  1  0.34669595  0.24469283  0.34431169  1  -1.232354  0.080916  -0.333341  -0.570937  0.056823  2.440774  0.035
O  O197  1  0.65329972  0.75530304  0.65568484  1  -1.232412  0.080913  -0.333359  -0.570983  0.056825  2.440806  0.035
O  O198  1  0.25685089  0.13012486  0.39842285  1  -1.184439  0.018126  -0.325704  -0.554149  0.013306  2.177663  0.014
O  O199  1  0.74314663  0.86987520  0.60157745  1  -1.184368  0.018125  -0.325656  -0.554054  0.013306  2.177699  0.014
O  O200  1  0.73665403  0.58697802  0.83468525  1  -1.188648  0.054704  -0.32738  -0.563832  0.038985  2.168344  0.032
O  O201  1  0.26334544  0.41301994  0.16531313  1  -1.188641  0.054699  -0.327392  -0.563846  0.038983  2.168302  0.032
O  O202  1  0.80486409  0.64960513  0.73933647  1  -1.181509  0.060333  -0.326357  -0.554024  0.042315  2.180718  0.034
O  O203  1  0.19513569  0.35039353  0.26066324  1  -1.181493  0.060324  -0.326399  -0.55408  0.042313  2.180743  0.034
O  O204  1  0.22998142  0.58334945  0.85635932  1  -1.179872  0.01904  -0.326347  -0.555333  0.013943  2.179342  0.015
O  O205  1  0.77001394  0.41664575  0.14364011  1  -1.179888  0.01904  -0.326373  -0.555381  0.013944  2.179267  0.015
O  O206  1  0.14081160  0.63935921  0.74931178  1  -1.231587  0.079191  -0.332466  -0.570574  0.055297  2.43697  0.033
O  O207  1  0.85918880  0.36064085  0.25068878  1  -1.231591  0.079189  -0.332458  -0.570622  0.055298  2.436983  0.033
