# generated using pymatgen
data_ZnH16C24Br4NO5
_symmetry_space_group_name_H-M   'P 1'
_cell_length_a   10.98206548
_cell_length_b   18.28814041
_cell_length_c   19.63369274
_cell_angle_alpha   88.32191270
_cell_angle_beta   89.08094392
_cell_angle_gamma   70.18183651
_symmetry_Int_Tables_number   1
_chemical_formula_structural   ZnH16C24Br4NO5
_chemical_formula_sum   'Zn2 H32 C48 Br8 N2 O10'
_cell_volume   3708.04589104
_cell_formula_units_Z   2
loop_
 _symmetry_equiv_pos_site_id
 _symmetry_equiv_pos_as_xyz
  1  'x, y, z'
loop_
 _atom_site_type_symbol
 _atom_site_label
 _atom_site_symmetry_multiplicity
 _atom_site_fract_x
 _atom_site_fract_y
 _atom_site_fract_z
 _atom_site_occupancy
 _atom_site_pbe_bader_charge
 _atom_site_pbe_bader_spin_density
 _atom_site_pbe_cm5_charge
 _atom_site_pbe_ddec_charge
 _atom_site_pbe_ddec_spin_density
 _atom_site_pbe_ddec_sum_bond_order
 _atom_site_pbe_magmom
Zn  Zn0  1  0.48326931  0.58034019  0.49674840  1  1.29727  0  0.674625  0.83315  0  2.424417  0
Zn  Zn1  1  0.51909973  0.41819801  0.50009695  1  1.29437  0  0.673383  0.832003  0  2.417543  0
H  H2  1  0.14373291  0.44296157  0.48906538  1  0.13312  0  0.10246  0.11575  0  1.03154  0
H  H3  1  0.30592295  0.96258744  0.48434092  1  0.098337  0  0.111109  0.125537  0  0.98843  0
H  H4  1  0.44987566  0.62095503  0.71109324  1  0.112327  0  0.105603  0.122557  0  1.004052  0
H  H5  1  0.46040294  0.62444591  0.28001703  1  0.105733  0  0.106758  0.126236  0  0.997864  0
H  H6  1  0.51767121  0.37693088  0.84661035  1  0.047738  0  0.102873  0.107873  0  0.988354  0
H  H7  1  0.54176445  0.37914410  0.15631635  1  0.084429  0  0.108175  0.114598  0  0.974545  0
H  H8  1  0.52282301  0.37506860  0.71910229  1  0.096398  0  0.104862  0.11181  0  0.997776  0
H  H9  1  0.54734170  0.37733744  0.28392375  1  0.059259  0  0.105162  0.10898  0  1.00183  0
H  H10  1  0.35716318  0.72133599  0.57428210  1  0.133502  0  0.132653  0.109165  0  0.961232  0
H  H11  1  0.64847734  0.27542900  0.42584457  1  0.13706  0  0.132096  0.107993  0  0.963935  0
H  H12  1  0.13402679  0.57670340  0.04757350  1  0.041032  0  0.087802  0.049468  0  1.007287  0
H  H13  1  0.85850921  0.55723921  0.48982726  1  0.138496  0  0.102348  0.115311  0  1.03192  0
H  H14  1  0.22619313  0.59373439  0.11612021  1  0.039628  0  0.08752  0.053711  0  1.017112  0
H  H15  1  0.00972127  0.58248358  0.15086569  1  0.008907  0  0.092988  0.08663  0  0.96733  0
H  H16  1  0.06611626  0.48493821  0.12485812  1  0.06221  0  0.089224  0.086427  0  0.974803  0
H  H17  1  0.24486252  0.45296741  0.21264924  1  0.018724  0  0.083194  0.115622  0  1.01788  0
H  H18  1  0.09032018  0.49255153  0.25210452  1  0.028542  0  0.085003  0.111371  0  1.002968  0
H  H19  1  0.18903509  0.55105166  0.23800823  1  0.003634  0  0.082585  0.111069  0  1.005569  0
H  H20  1  0.74746138  0.40678390  0.87749294  1  0.041203  0  0.091467  0.05418  0  0.996783  0
H  H21  1  0.84713779  0.41830094  0.94505181  1  0.067127  0  0.0872  0.049144  0  1.000278  0
H  H22  1  0.81922887  0.49692992  0.80297998  1  0.041909  0  0.095296  0.093743  0  0.961995  0
H  H23  1  0.91676807  0.51006125  0.86920216  1  0.036637  0  0.090818  0.088763  0  0.971885  0
H  H24  1  0.36310400  0.85704010  0.58047210  1  0.094371  0  0.116073  0.12516  0  0.979991  0
H  H25  1  0.05139361  0.36668843  0.86738305  1  0.021534  0  0.080599  0.105586  0  1.01532  0
H  H26  1  0.05051909  0.41149105  0.78590647  1  0.032415  0  0.087714  0.117621  0  1.000478  0
H  H27  1  0.95245810  0.35310346  0.80157992  1  -0.001014  0  0.084226  0.109497  0  1.003762  0
H  H28  1  0.64156775  0.13985729  0.42036523  1  0.066404  0  0.115593  0.125221  0  0.981699  0
H  H29  1  0.66385339  0.79583346  0.42621478  1  0.098935  0  0.109692  0.123212  0  0.995028  0
H  H30  1  0.33448983  0.20434443  0.57105536  1  0.097913  0  0.10915  0.122342  0  0.996445  0
H  H31  1  0.64476706  0.66320132  0.42663056  1  0.092829  0  0.130618  0.106844  0  0.965152  0
H  H32  1  0.35426155  0.33680289  0.56965365  1  0.122642  0  0.130534  0.106462  0  0.964561  0
H  H33  1  0.69518571  0.03580668  0.51558413  1  0.096775  0  0.110623  0.125307  0  0.990863  0
C  C34  1  0.50738451  0.50021009  0.36553767  1  1.527775  0  0.215588  0.594144  0  4.165938  0
C  C35  1  0.48496608  0.49912020  0.92679135  1  0.053819  0  -0.024611  -0.06209  0  4.035381  0
C  C36  1  0.42287807  0.74100951  0.54241237  1  0.480171  0  0.06384  0.110768  0  3.914227  0
C  C37  1  0.58096079  0.25648961  0.45698192  1  0.513434  0  0.063253  0.110221  0  3.916845  0
C  C38  1  0.42662253  0.81603317  0.54526062  1  -0.009219  0  -0.077165  -0.174422  0  3.938887  0
C  C39  1  0.57670185  0.18154153  0.45458275  1  -0.02669  0  -0.078601  -0.178066  0  3.943782  0
C  C40  1  0.51335765  0.83796649  0.50311923  1  -0.003183  0  0.013011  0.119076  0  3.995261  0
C  C41  1  0.48808754  0.16047808  0.49602573  1  -0.052998  0  0.012563  0.120731  0  3.992228  0
C  C42  1  0.59481587  0.78202025  0.46009901  1  -0.035061  0  -0.081572  -0.178301  0  3.954247  0
C  C43  1  0.40516041  0.21735012  0.53778393  1  0.065578  0  -0.081098  -0.178258  0  3.955398  0
C  C44  1  0.58464859  0.70831322  0.45984693  1  0.555283  0  0.063648  0.112105  0  3.908832  0
C  C45  1  0.49126362  0.49741079  0.63123317  1  1.517078  0  0.216553  0.596594  0  4.164839  0
C  C46  1  0.41574521  0.29097428  0.53751733  1  0.445135  0  0.062746  0.111376  0  3.911369  0
C  C47  1  0.62059874  0.94172067  0.51018737  1  -0.087132  0  -0.013166  0.067488  0  3.95071  0
C  C48  1  0.38056485  0.05670727  0.48957128  1  -0.113868  0  -0.01338  0.06743  0  3.953343  0
C  C49  1  0.75382366  0.44963343  0.49664436  1  1.615719  0  0.204587  0.58922  0  4.210929  0
C  C50  1  0.24864743  0.54995027  0.49323762  1  1.642744  0  0.203844  0.588043  0  4.213873  0
C  C51  1  0.60950553  0.01986462  0.50776924  1  0.045227  0  -0.088573  -0.166257  0  3.96617  0
C  C52  1  0.39160022  0.97857193  0.49206958  1  0.036994  0  -0.08812  -0.165401  0  3.963826  0
C  C53  1  0.48980391  0.07920422  0.49743292  1  0.055164  0  -0.005463  0.033976  0  3.975548  0
C  C54  1  0.51135872  0.91927285  0.50215840  1  -0.048552  0  -0.005241  0.034942  0  3.975337  0
C  C55  1  0.89532544  0.43866704  0.49192037  1  -0.165677  0  -0.01795  -0.017194  0  3.815275  0
C  C56  1  0.48702408  0.49783435  0.70771125  1  0.018863  0  -0.01598  -0.014461  0  3.962645  0
C  C57  1  0.10711820  0.56136154  0.48907290  1  -0.108185  0  -0.017774  -0.016637  0  3.816997  0
C  C58  1  0.93595462  0.50092611  0.48911005  1  0.052166  0  -0.09553  -0.092807  0  4.028124  0
C  C59  1  0.06623987  0.49928685  0.48830654  1  0.015735  0  -0.095185  -0.091582  0  4.028631  0
C  C60  1  0.46454712  0.56777218  0.74116212  1  0.018162  0  -0.090058  -0.144818  0  3.964224  0
C  C61  1  0.47922871  0.57092455  0.25245106  1  -0.016425  0  -0.090246  -0.144786  0  3.970437  0
C  C62  1  0.46199805  0.56828998  0.81201241  1  -0.078007  0  -0.011248  0.076322  0  3.927126  0
C  C63  1  0.47591945  0.57133765  0.18164775  1  -0.130312  0  -0.015408  0.062196  0  3.947323  0
C  C64  1  0.48211715  0.49978988  0.85122428  1  0.072159  0  -0.012261  0.044821  0  4.008748  0
C  C65  1  0.49962642  0.50249683  0.14581594  1  0.064292  0  -0.010898  0.046651  0  4.010192  0
C  C66  1  0.50298643  0.43039272  0.81665430  1  -0.012974  0  -0.090386  -0.129396  0  4.006002  0
C  C67  1  0.50560322  0.50061916  0.28917276  1  0.071245  0  -0.013855  -0.015827  0  3.964555  0
C  C68  1  0.52498546  0.43271698  0.18373288  1  0.017414  0  -0.082726  -0.112487  0  3.975088  0
C  C69  1  0.50557785  0.42903204  0.74583337  1  -0.05438  0  -0.087443  -0.094551  0  3.984772  0
C  C70  1  0.52820162  0.43140283  0.25448169  1  -0.038563  0  -0.083246  -0.091773  0  3.986202  0
C  C71  1  0.18569050  0.55169529  0.09500524  1  0.392328  0  -0.070238  0.037987  0  3.868384  0
C  C72  1  0.09730082  0.53073928  0.14623473  1  -0.017395  0  -0.165814  -0.121109  0  3.97658  0
C  C73  1  0.15868447  0.50526821  0.21617255  1  -0.029554  0  -0.247533  -0.349038  0  3.963442  0
C  C74  1  0.79225107  0.44649167  0.89921071  1  0.367683  0  -0.069739  0.041687  0  3.88321  0
C  C75  1  0.87861195  0.46767332  0.84697348  1  -0.012666  0  -0.166032  -0.121965  0  3.969798  0
C  C76  1  0.98928075  0.39575893  0.82428293  1  -0.041613  0  -0.244587  -0.354647  0  3.986327  0
C  C77  1  0.38378401  0.49136478  0.96746336  1  -0.128776  0  -0.025209  -0.023522  0  3.943402  0
C  C78  1  0.59915857  0.50732764  0.02973758  1  -0.040678  0  -0.026448  -0.022177  0  3.951411  0
C  C79  1  0.38833346  0.49218069  0.03889049  1  0.615334  0  0.073055  0.159329  0  4.063983  0
C  C80  1  0.59424285  0.50677472  0.95851527  1  0.530451  0  0.070937  0.155998  0  4.079507  0
C  C81  1  0.49662286  0.50133877  0.07037493  1  0.050484  0  -0.023347  -0.059768  0  4.030748  0
Br  Br82  1  0.78697056  0.86771018  0.52903794  1  -0.04601  0  0.035365  -0.053432  0  1.427669  0
Br  Br83  1  0.21402707  0.13041818  0.47059296  1  -0.04834  0  0.034132  -0.054644  0  1.439631  0
Br  Br84  1  0.99031433  0.66533750  0.48665235  1  -0.064054  0  0.004127  -0.072155  0  1.482956  0
Br  Br85  1  0.01338271  0.33493408  0.49186992  1  -0.069036  0  0.000756  -0.075904  0  1.488412  0
Br  Br86  1  0.42819935  0.66513616  0.85538685  1  -0.071172  0  0.001539  -0.082331  0  1.353198  0
Br  Br87  1  0.43488347  0.66887497  0.13349020  1  -0.083445  0  0.001653  -0.094508  0  1.391137  0
Br  Br88  1  0.23486249  0.48099426  0.92629230  1  -0.053171  0  0.036268  -0.047022  0  1.462005  0
Br  Br89  1  0.74944021  0.51585060  0.07072399  1  -0.049448  0  0.030023  -0.049897  0  1.47746  0
N  N90  1  0.49980551  0.68840343  0.49997032  1  -1.245916  0  -0.317676  -0.197  0  3.5167  0
N  N91  1  0.50258911  0.30995745  0.49823514  1  -1.233177  0  -0.317266  -0.196432  0  3.515447  0
O  O92  1  0.48894156  0.56508919  0.39360909  1  -1.167571  0  -0.318968  -0.544747  0  2.320632  0
O  O93  1  0.69105010  0.51737074  0.91885628  1  -1.078119  0  -0.204551  -0.236036  0  2.576653  0
O  O94  1  0.51162415  0.43222679  0.60335284  1  -1.163695  0  -0.319087  -0.548705  0  2.319595  0
O  O95  1  0.52677548  0.43496259  0.39615630  1  -1.173028  0  -0.317364  -0.550325  0  2.332635  0
O  O96  1  0.47456496  0.56216691  0.60022280  1  -1.165539  0  -0.31723  -0.549608  0  2.335821  0
O  O97  1  0.68034741  0.52043848  0.49770662  1  -1.175464  0  -0.317034  -0.553627  0  2.364334  0
O  O98  1  0.32190686  0.47904996  0.49624494  1  -1.180203  0  -0.31686  -0.553873  0  2.36226  0
O  O99  1  0.71863827  0.39035120  0.49936522  1  -1.153466  0  -0.32006  -0.532879  0  2.309811  0
O  O100  1  0.28391353  0.60914114  0.49381384  1  -1.148952  0  -0.319364  -0.531683  0  2.314409  0
O  O101  1  0.29205194  0.48111265  0.07871325  1  -1.069126  0  -0.205926  -0.233298  0  2.537541  0
