# generated using pymatgen
data_CdH28C28(N5O3)2
_symmetry_space_group_name_H-M   'P 1'
_cell_length_a   8.59246795
_cell_length_b   8.48411834
_cell_length_c   20.96088803
_cell_angle_alpha   90.00000353
_cell_angle_beta   90.00006825
_cell_angle_gamma   102.42988898
_symmetry_Int_Tables_number   1
_chemical_formula_structural   CdH28C28(N5O3)2
_chemical_formula_sum   'Cd2 H56 C56 N20 O12'
_cell_volume   1492.22153837
_cell_formula_units_Z   2
loop_
 _symmetry_equiv_pos_site_id
 _symmetry_equiv_pos_as_xyz
  1  'x, y, z'
loop_
 _atom_site_type_symbol
 _atom_site_label
 _atom_site_symmetry_multiplicity
 _atom_site_fract_x
 _atom_site_fract_y
 _atom_site_fract_z
 _atom_site_occupancy
 _atom_site_hle17_bader_spin_density
 _atom_site_hle17_ddec_charge
 _atom_site_hle17_ddec_spin_density
 _atom_site_hle17_ddec_sum_bond_order
 _atom_site_hle17_magmom
 _atom_site_hse06_10hf_bader_charge
 _atom_site_hse06_10hf_bader_spin_density
 _atom_site_hse06_10hf_ddec_charge
 _atom_site_hse06_10hf_ddec_spin_density
 _atom_site_hse06_10hf_ddec_sum_bond_order
 _atom_site_hse06_10hf_magmom
 _atom_site_hse06_bader_spin_density
 _atom_site_hse06_ddec_charge
 _atom_site_hse06_ddec_spin_density
 _atom_site_hse06_ddec_sum_bond_order
 _atom_site_hse06_magmom
 _atom_site_pbe_bader_spin_density
 _atom_site_pbe_cm5_charge
 _atom_site_pbe_ddec_charge
 _atom_site_pbe_ddec_spin_density
 _atom_site_pbe_ddec_sum_bond_order
 _atom_site_pbe_magmom
Cd  Cd0  1  0.49999939  0.99999785  0.49999994  1  0  1.046636  0  1.770123  0  1.292941  0  0.836578  0  2.221583  0  0  0.889368  0  2.177592  0  0  0.782859  0.799067  0  2.251652  0
Cd  Cd1  1  0.49999979  0.49999936  0.00000013  1  0  1.046662  0  1.770061  0  1.292921  0  0.8366  0  2.221506  0  0  0.889387  0  2.177516  0  0  0.782893  0.799086  0  2.251581  0
H  H2  1  0.79298939  0.78430382  0.47231273  1  0  0.099769  0  0.971694  0  0.177866  0  0.106553  0  1.04092  0  0  0.108909  0  1.037712  0  0  0.131988  0.104626  0  1.043423  0
H  H3  1  0.20700490  0.71569136  0.97231240  1  0  0.099811  0  0.971699  0  0.177893  0  0.106619  0  1.040873  0  0  0.108969  0  1.037676  0  0  0.132028  0.104705  0  1.043378  0
H  H4  1  0.20700488  0.21569049  0.52768762  1  0  0.099796  0  0.971708  0  0.177884  0  0.106613  0  1.040871  0  0  0.108962  0  1.037672  0  0  0.132045  0.104693  0  1.043392  0
H  H5  1  0.79299039  0.28430777  0.02768748  1  0  0.099815  0  0.971697  0  0.17784  0  0.106613  0  1.040892  0  0  0.108962  0  1.037693  0  0  0.132025  0.104685  0  1.0434  0
H  H6  1  0.30533194  0.65917836  0.42283570  1  0  0.107101  0  0.972052  0  0.12452  0  0.116265  0  1.034519  0  0  0.118421  0  1.033785  0  0  0.114378  0.114698  0  1.03512  0
H  H7  1  0.69466298  0.84082041  0.92283942  1  0  0.107066  0  0.972069  0  0.124581  0  0.116249  0  1.034513  0  0  0.118404  0  1.033777  0  0  0.11438  0.114676  0  1.035113  0
H  H8  1  0.69466452  0.34082078  0.57716084  1  0  0.107071  0  0.972062  0  0.124563  0  0.116255  0  1.034503  0  0  0.11841  0  1.033767  0  0  0.114384  0.114687  0  1.035106  0
H  H9  1  0.30533490  0.15917994  0.07716427  1  0  0.107097  0  0.972061  0  0.124545  0  0.116263  0  1.034522  0  0  0.118418  0  1.033789  0  0  0.114387  0.114691  0  1.035131  0
H  H10  1  0.45542097  0.41332161  0.38434500  1  0  0.10429  0  1.012352  0  0.129665  0  0.111742  0  1.078665  0  0  0.113709  0  1.078946  0  0  0.115919  0.110288  0  1.078594  0
H  H11  1  0.54457849  0.08668056  0.88434959  1  0  0.104351  0  1.012327  0  0.13008  0  0.111772  0  1.078664  0  0  0.113746  0  1.078938  0  0  0.115941  0.110316  0  1.078596  0
H  H12  1  0.54457949  0.58667994  0.61565011  1  0  0.104402  0  1.012304  0  0.130078  0  0.11179  0  1.078678  0  0  0.113764  0  1.07895  0  0  0.115951  0.110335  0  1.078605  0
H  H13  1  0.45542340  0.91332219  0.11565505  1  0  0.104371  0  1.012297  0  0.1297  0  0.111825  0  1.078601  0  0  0.113792  0  1.078883  0  0  0.11594  0.110369  0  1.078531  0
H  H14  1  0.72397332  0.35830597  0.40536182  1  0  0.090561  0  0.930472  0  0.087855  0  0.102362  0  0.998373  0  0  0.103075  0  0.998372  0  0  0.11423  0.101737  0  0.998539  0
H  H15  1  0.27602660  0.14169260  0.90536295  1  0  0.090607  0  0.930415  0  0.087881  0  0.10241  0  0.998305  0  0  0.103122  0  0.998306  0  0  0.114241  0.101789  0  0.998471  0
H  H16  1  0.27602637  0.64169196  0.59463710  1  0  0.090591  0  0.930456  0  0.087878  0  0.10239  0  0.998355  0  0  0.103101  0  0.998356  0  0  0.11423  0.101768  0  0.998518  0
H  H17  1  0.72397503  0.85830895  0.09463788  1  0  0.09059  0  0.930421  0  0.087902  0  0.102395  0  0.998306  0  0  0.103106  0  0.998306  0  0  0.114237  0.101772  0  0.998474  0
H  H18  1  0.85547675  0.49006859  0.45742740  1  0  0.098871  0  0.917288  0  0.105857  0  0.110647  0  0.982145  0  0  0.112066  0  0.980641  0  0  0.116713  0.109492  0  0.983415  0
H  H19  1  0.14452035  0.00993244  0.95742846  1  0  0.098919  0  0.917276  0  0.106832  0  0.110723  0  0.982109  0  0  0.112143  0  0.980604  0  0  0.116741  0.109568  0  0.983383  0
H  H20  1  0.14451997  0.50993176  0.54257200  1  0  0.098904  0  0.917272  0  0.10685  0  0.110701  0  0.982112  0  0  0.112121  0  0.980606  0  0  0.116739  0.109546  0  0.983381  0
H  H21  1  0.85547855  0.99007273  0.04257237  1  0  0.098887  0  0.917226  0  0.106898  0  0.110666  0  0.982083  0  0  0.112085  0  0.980577  0  0  0.116714  0.109511  0  0.983351  0
H  H22  1  0.04979504  0.72670196  0.41518281  1  0  0.101259  0  0.98593  0  0.118447  0  0.103932  0  1.060532  0  0  0.108099  0  1.057037  0  0  0.097284  0.100844  0  1.063198  0
H  H23  1  0.95020218  0.77329679  0.91518332  1  0  0.101261  0  0.985935  0  0.11842  0  0.103933  0  1.060546  0  0  0.108101  0  1.057049  0  0  0.097277  0.100841  0  1.063216  0
H  H24  1  0.95020375  0.27329717  0.58481658  1  0  0.101264  0  0.985927  0  0.118412  0  0.103938  0  1.060535  0  0  0.108107  0  1.057035  0  0  0.097284  0.100848  0  1.063201  0
H  H25  1  0.04979712  0.22670476  0.08481751  1  0  0.101267  0  0.985925  0  0.118429  0  0.103935  0  1.060548  0  0  0.108105  0  1.057049  0  0  0.097275  0.100847  0  1.063217  0
H  H26  1  0.21115782  0.84964318  0.32304077  1  0  0.087102  0  0.981018  0  0.067438  0  0.094245  0  1.050281  0  0  0.096248  0  1.050863  0  0  0.094803  0.092767  0  1.050035  0
H  H27  1  0.78884144  0.65035550  0.82304024  1  0  0.087155  0  0.981091  0  0.067418  0  0.094311  0  1.050326  0  0  0.096314  0  1.050906  0  0  0.09482  0.092826  0  1.050083  0
H  H28  1  0.78884122  0.15035716  0.67695959  1  0  0.087167  0  0.981081  0  0.067423  0  0.094322  0  1.050316  0  0  0.096324  0  1.050898  0  0  0.094828  0.092842  0  1.050072  0
H  H29  1  0.21116110  0.34964484  0.17696012  1  0  0.087165  0  0.98106  0  0.067401  0  0.094323  0  1.050293  0  0  0.096326  0  1.050871  0  0  0.094825  0.09284  0  1.05005  0
H  H30  1  0.91075638  0.51904471  0.19589556  1  0  0.106477  0  0.966615  0  0.095859  0  0.118311  0  1.025672  0  0  0.121213  0  1.024011  0  0  0.101791  0.116178  0  1.02698  0
H  H31  1  0.08924598  0.98095387  0.69589612  1  0  0.106491  0  0.966625  0  0.095904  0  0.118298  0  1.025716  0  0  0.121201  0  1.024053  0  0  0.101778  0.116164  0  1.027032  0
H  H32  1  0.08924590  0.48095443  0.80410432  1  0  0.106483  0  0.966623  0  0.095887  0  0.11829  0  1.025716  0  0  0.121192  0  1.024055  0  0  0.101773  0.116156  0  1.02703  0
H  H33  1  0.91075655  0.01904647  0.30410471  1  0  0.106484  0  0.966571  0  0.095878  0  0.11832  0  1.025632  0  0  0.121219  0  1.023968  0  0  0.101794  0.116187  0  1.026947  0
H  H34  1  0.74898684  0.39262853  0.28853806  1  0  0.084792  0  0.963858  0  0.056727  0  0.09554  0  1.02614  0  0  0.097824  0  1.026259  0  0  0.096186  0.093882  0  1.026153  0
H  H35  1  0.25101388  0.10736994  0.78853917  1  0  0.084833  0  0.963807  0  0.056731  0  0.095562  0  1.026108  0  0  0.097846  0  1.026226  0  0  0.096189  0.093902  0  1.02613  0
H  H36  1  0.25101492  0.60736819  0.71146086  1  0  0.084832  0  0.963791  0  0.056729  0  0.095559  0  1.026097  0  0  0.097843  0  1.026215  0  0  0.096203  0.093902  0  1.026116  0
H  H37  1  0.74898658  0.89263161  0.21146118  1  0  0.084864  0  0.963776  0  0.056753  0  0.09559  0  1.02608  0  0  0.097875  0  1.026199  0  0  0.09621  0.093934  0  1.026099  0
H  H38  1  0.08491407  0.77915824  0.15638320  1  0  0.098923  0  0.939197  0  0.137203  0  0.107589  0  1.010484  0  0  0.109512  0  1.008617  0  0  0.116319  0.106104  0  1.011901  0
H  H39  1  0.91508429  0.72084393  0.65638273  1  0  0.098894  0  0.939223  0  0.137205  0  0.107598  0  1.010481  0  0  0.10952  0  1.008614  0  0  0.116332  0.106106  0  1.011912  0
H  H40  1  0.91508549  0.22084452  0.84361716  1  0  0.098881  0  0.939227  0  0.1372  0  0.107569  0  1.010495  0  0  0.109492  0  1.008631  0  0  0.116313  0.10608  0  1.011914  0
H  H41  1  0.08491759  0.27915882  0.34361762  1  0  0.098906  0  0.939159  0  0.137215  0  0.107599  0  1.010422  0  0  0.109521  0  1.008553  0  0  0.116295  0.106106  0  1.011861  0
H  H42  1  0.22342956  0.89841592  0.20959758  1  0  0.078622  0  0.927882  0  0.037285  0  0.090927  0  0.995199  0  0  0.091606  0  0.995615  0  0  0.106905  0.090393  0  0.994991  0
H  H43  1  0.77656961  0.60158388  0.70959704  1  0  0.078646  0  0.927821  0  0.037291  0  0.090939  0  0.995175  0  0  0.091617  0  0.995591  0  0  0.106915  0.090406  0  0.994963  0
H  H44  1  0.77657065  0.10158442  0.79040277  1  0  0.078622  0  0.927865  0  0.037305  0  0.090931  0  0.995182  0  0  0.091609  0  0.995599  0  0  0.106911  0.090395  0  0.994969  0
H  H45  1  0.22343292  0.39841646  0.29040283  1  0  0.078635  0  0.927821  0  0.037339  0  0.090918  0  0.995195  0  0  0.091594  0  0.99561  0  0  0.10691  0.090387  0  0.994982  0
H  H46  1  0.44099349  0.70050016  0.25601265  1  0  0.116824  0  0.952511  0  0.122413  0  0.127218  0  1.012125  0  0  0.130188  0  1.010871  0  0  0.121763  0.125045  0  1.013163  0
H  H47  1  0.55900492  0.79950088  0.75601249  1  0  0.116833  0  0.952545  0  0.122483  0  0.127224  0  1.012166  0  0  0.130202  0  1.010901  0  0  0.121755  0.12505  0  1.013198  0
H  H48  1  0.55900439  0.29950018  0.74398770  1  0  0.116825  0  0.952539  0  0.122487  0  0.127215  0  1.01216  0  0  0.130195  0  1.010894  0  0  0.121766  0.125044  0  1.013193  0
H  H49  1  0.44099697  0.20050188  0.24398786  1  0  0.116848  0  0.95252  0  0.122495  0  0.127236  0  1.012146  0  0  0.130206  0  1.01089  0  0  0.121794  0.12506  0  1.013181  0
H  H50  1  0.61813558  0.56104787  0.16872965  1  0  0.112473  0  0.963333  0  0.142865  0  0.122545  0  1.022154  0  0  0.125171  0  1.020535  0  0  0.11652  0.120616  0  1.023446  0
H  H51  1  0.38186540  0.93895551  0.66872893  1  0  0.112429  0  0.963369  0  0.143065  0  0.122559  0  1.022126  0  0  0.125185  0  1.020507  0  0  0.116533  0.120631  0  1.02342  0
H  H52  1  0.38186488  0.43895368  0.83127165  1  0  0.112418  0  0.963404  0  0.142911  0  0.122538  0  1.022169  0  0  0.125164  0  1.020549  0  0  0.116532  0.120612  0  1.023458  0
H  H53  1  0.61813791  0.06104845  0.33127094  1  0  0.112447  0  0.963344  0  0.1429  0  0.122516  0  1.02217  0  0  0.125142  0  1.02055  0  0  0.116519  0.120588  0  1.023458  0
H  H54  1  0.20238780  0.64065271  0.07849339  1  0  0.099108  0  0.981112  0  0.198722  0  0.102664  0  1.054706  0  0  0.105565  0  1.051  0  0  0.130297  0.100474  0  1.057414  0
H  H55  1  0.79761239  0.85934819  0.57849383  1  0  0.099082  0  0.981143  0  0.198698  0  0.102632  0  1.054745  0  0  0.105535  0  1.051032  0  0  0.130288  0.100447  0  1.057447  0
H  H56  1  0.79761357  0.35934763  0.92150600  1  0  0.099106  0  0.981115  0  0.19869  0  0.10266  0  1.054706  0  0  0.105561  0  1.050999  0  0  0.130301  0.100472  0  1.05741  0
H  H57  1  0.20239015  0.14065215  0.42150653  1  0  0.099165  0  0.98109  0  0.198723  0  0.102696  0  1.054709  0  0  0.105602  0  1.050992  0  0  0.130293  0.100508  0  1.057418  0
C  C58  1  0.67883657  0.72011211  0.45412025  1  0  0.167405  0  3.65719  0  0.99928  0  0.103316  0  3.922837  0  0  0.117436  0  3.936426  0  0  0.13879  0.094289  0  3.913428  0
C  C59  1  0.32115793  0.77988426  0.95412140  1  0  0.167171  0  3.657116  0  0.999115  0  0.103084  0  3.922762  0  0  0.117202  0  3.936359  0  0  0.138689  0.094032  0  3.913359  0
C  C60  1  0.32115821  0.27988461  0.54587867  1  0  0.167252  0  3.657137  0  0.999119  0  0.103166  0  3.922781  0  0  0.117286  0  3.936376  0  0  0.138719  0.094112  0  3.913371  0
C  C61  1  0.67883969  0.22011487  0.04587990  1  0  0.167264  0  3.65713  0  0.999246  0  0.103178  0  3.922765  0  0  0.1173  0  3.936358  0  0  0.138761  0.094149  0  3.913363  0
C  C62  1  0.42849394  0.64923497  0.42698918  1  0  -0.004288  0  3.755227  0  0.402867  0  -0.037938  0  4.018079  0  0  -0.035495  0  4.038013  0  0  -0.01184  -0.039579  0  4.004601  0
C  C63  1  0.57150254  0.85076018  0.92699189  1  0  -0.004205  0  3.755122  0  0.402784  0  -0.037869  0  4.017932  0  0  -0.035423  0  4.037868  0  0  -0.011822  -0.039509  0  4.004443  0
C  C64  1  0.57150408  0.35076055  0.57300831  1  0  -0.004225  0  3.755124  0  0.402782  0  -0.037881  0  4.017921  0  0  -0.035437  0  4.037858  0  0  -0.011829  -0.039525  0  4.004442  0
C  C65  1  0.42849508  0.14923896  0.07301085  1  0  -0.004233  0  3.755246  0  0.403217  0  -0.037884  0  4.018082  0  0  -0.035441  0  4.038019  0  0  -0.011845  -0.039527  0  4.00461  0
C  C66  1  0.50059330  0.52768662  0.40755967  1  0  -0.071507  0  3.689387  0  0.304053  0  -0.110648  0  3.944878  0  0  -0.109083  0  3.964029  0  0  -0.007624  -0.11164  0  3.93207  0
C  C67  1  0.49940506  0.97231213  0.90756283  1  0  -0.071629  0  3.689539  0  0.303775  0  -0.110744  0  3.945033  0  0  -0.109187  0  3.964178  0  0  -0.007662  -0.111727  0  3.932216  0
C  C68  1  0.49940549  0.47231251  0.59243734  1  0  -0.07168  0  3.689536  0  0.303769  0  -0.110771  0  3.945048  0  0  -0.109214  0  3.964192  0  0  -0.007686  -0.111756  0  3.932231  0
C  C69  1  0.50059450  0.02769063  0.09243991  1  0  -0.071693  0  3.689558  0  0.303723  0  -0.110836  0  3.945043  0  0  -0.109271  0  3.964196  0  0  -0.007658  -0.111822  0  3.932231  0
C  C70  1  0.78388783  0.48422601  0.41383906  1  0  -0.043955  0  3.634705  0  0.298552  0  -0.111663  0  3.887179  0  0  -0.106801  0  3.897044  0  0  -0.048245  -0.114815  0  3.880516  0
C  C71  1  0.21610979  0.01577257  0.91384063  1  0  -0.044065  0  3.634769  0  0.297465  0  -0.111793  0  3.887248  0  0  -0.106931  0  3.897115  0  0  -0.048254  -0.114956  0  3.880592  0
C  C72  1  0.21611096  0.51577313  0.58616034  1  0  -0.044027  0  3.634771  0  0.297464  0  -0.111742  0  3.887244  0  0  -0.106878  0  3.897109  0  0  -0.048263  -0.1149  0  3.880582  0
C  C73  1  0.78388951  0.98422898  0.08616068  1  0  -0.044  0  3.63464  0  0.297444  0  -0.111699  0  3.887078  0  0  -0.106842  0  3.89696  0  0  -0.048239  -0.114862  0  3.880427  0
C  C74  1  0.88738444  0.55221135  0.35786531  1  0  0.071437  0  3.752138  0  -0.0656  0  0.088638  0  3.990715  0  0  0.087755  0  4.015872  0  0  -0.014679  0.089243  0  3.973629  0
C  C75  1  0.11261493  0.94778736  0.85786637  1  0  0.07143  0  3.752217  0  -0.065575  0  0.088634  0  3.990792  0  0  0.08775  0  4.015951  0  0  -0.014706  0.089241  0  3.973703  0
C  C76  1  0.11261525  0.44778658  0.64213361  1  0  0.071401  0  3.752249  0  -0.065591  0  0.088602  0  3.990827  0  0  0.087718  0  4.015985  0  0  -0.014707  0.089208  0  3.973739  0
C  C77  1  0.88738554  0.05221418  0.14213446  1  0  0.071475  0  3.752195  0  -0.06559  0  0.088693  0  3.990741  0  0  0.087809  0  4.015899  0  0  -0.014668  0.089301  0  3.973657  0
C  C78  1  0.01895818  0.67969639  0.36725592  1  0  -0.117075  0  3.737938  0  -0.044995  0  -0.133719  0  3.983465  0  0  -0.137271  0  4.004856  0  0  -0.095083  -0.131228  0  3.969002  0
C  C79  1  0.98103980  0.82030112  0.86725597  1  0  -0.116997  0  3.738027  0  -0.045305  0  -0.133648  0  3.983552  0  0  -0.137201  0  4.004946  0  0  -0.09503  -0.131154  0  3.969078  0
C  C80  1  0.98104035  0.32030154  0.63274443  1  0  -0.116962  0  3.738042  0  -0.045296  0  -0.133606  0  3.983553  0  0  -0.13716  0  4.004948  0  0  -0.095019  -0.131116  0  3.969091  0
C  C81  1  0.01896067  0.17970043  0.13274438  1  0  -0.116986  0  3.737991  0  -0.045317  0  -0.133644  0  3.983517  0  0  -0.137196  0  4.004908  0  0  -0.095021  -0.131142  0  3.969028  0
C  C82  1  0.10986733  0.74909935  0.31532017  1  0  -0.115931  0  3.76295  0  -0.028235  0  -0.134836  0  4.010001  0  0  -0.137204  0  4.032578  0  0  -0.093973  -0.133133  0  3.994673  0
C  C83  1  0.89013165  0.75089812  0.81532017  1  0  -0.116018  0  3.763077  0  -0.027919  0  -0.134927  0  4.010122  0  0  -0.137295  0  4.0327  0  0  -0.093986  -0.133215  0  3.994782  0
C  C84  1  0.89013120  0.25089858  0.68468018  1  0  -0.116074  0  3.76311  0  -0.027938  0  -0.134986  0  4.010167  0  0  -0.137356  0  4.032745  0  0  -0.094012  -0.133283  0  3.994834  0
C  C85  1  0.10986946  0.24910102  0.18468018  1  0  -0.116061  0  3.763059  0  -0.027919  0  -0.134962  0  4.010104  0  0  -0.137331  0  4.032683  0  0  -0.094008  -0.133257  0  3.994772  0
C  C86  1  0.07074246  0.69295433  0.25336525  1  0  0.058681  0  3.766552  0  -0.063755  0  0.079842  0  4.004646  0  0  0.078515  0  4.029392  0  0  -0.017999  0.080707  0  3.987859  0
C  C87  1  0.92925800  0.80704551  0.75336479  1  0  0.058666  0  3.766504  0  -0.063725  0  0.079841  0  4.004618  0  0  0.078512  0  4.029363  0  0  -0.018005  0.080711  0  3.987822  0
C  C88  1  0.92925774  0.30704601  0.74663463  1  0  0.058732  0  3.766529  0  -0.063738  0  0.079882  0  4.004646  0  0  0.078555  0  4.029395  0  0  -0.017981  0.080757  0  3.987845  0
C  C89  1  0.07074362  0.19295604  0.24663556  1  0  0.058674  0  3.766448  0  -0.063747  0  0.079836  0  4.004579  0  0  0.078506  0  4.029324  0  0  -0.018002  0.08071  0  3.987781  0
C  C90  1  0.94087006  0.56331414  0.24410822  1  0  -0.110054  0  3.740141  0  -0.046298  0  -0.130182  0  3.982452  0  0  -0.132516  0  4.004105  0  0  -0.090824  -0.128487  0  3.967738  0
C  C91  1  0.05913154  0.93668569  0.74410924  1  0  -0.110059  0  3.740244  0  -0.04632  0  -0.130158  0  3.982532  0  0  -0.132492  0  4.004187  0  0  -0.09082  -0.128476  0  3.967836  0
C  C92  1  0.05913247  0.43668620  0.75589070  1  0  -0.110081  0  3.740136  0  -0.046161  0  -0.130176  0  3.982434  0  0  -0.132513  0  4.004091  0  0  -0.090823  -0.128485  0  3.967728  0
C  C93  1  0.94087008  0.06331586  0.25589206  1  0  -0.110067  0  3.740043  0  -0.046137  0  -0.130188  0  3.982349  0  0  -0.132518  0  4.004  0  0  -0.090845  -0.128497  0  3.967646  0
C  C94  1  0.85009174  0.49356350  0.29601200  1  0  -0.114048  0  3.757472  0  -0.030434  0  -0.128787  0  3.998268  0  0  -0.131643  0  4.020415  0  0  -0.093538  -0.126776  0  3.983176  0
C  C95  1  0.14990810  0.00643618  0.79601259  1  0  -0.11414  0  3.757536  0  -0.030423  0  -0.128867  0  3.998334  0  0  -0.131723  0  4.020483  0  0  -0.093575  -0.126852  0  3.983247  0
C  C96  1  0.14991053  0.50643563  0.70398739  1  0  -0.114112  0  3.757431  0  -0.03058  0  -0.128842  0  3.998235  0  0  -0.131697  0  4.020381  0  0  -0.09357  -0.126832  0  3.98315  0
C  C97  1  0.85009262  0.99356657  0.20398728  1  0  -0.114204  0  3.757526  0  -0.030538  0  -0.128941  0  3.998342  0  0  -0.131798  0  4.020487  0  0  -0.093606  -0.126936  0  3.983261  0
C  C98  1  0.16405224  0.77417230  0.19710191  1  0  -0.041793  0  3.639035  0  0.293391  0  -0.108727  0  3.885964  0  0  -0.104118  0  3.895854  0  0  -0.048126  -0.11164  0  3.879225  0
C  C99  1  0.83594689  0.72582749  0.69710140  1  0  -0.041705  0  3.638883  0  0.293405  0  -0.108693  0  3.885892  0  0  -0.104091  0  3.895801  0  0  -0.048131  -0.111603  0  3.879148  0
C  C100  1  0.83594797  0.22582805  0.80289844  1  0  -0.04171  0  3.638931  0  0.293404  0  -0.108671  0  3.885895  0  0  -0.104057  0  3.89577  0  0  -0.048113  -0.111578  0  3.879142  0
C  C101  1  0.16405474  0.27417406  0.30289847  1  0  -0.041733  0  3.638887  0  0.293314  0  -0.108706  0  3.885888  0  0  -0.104106  0  3.895804  0  0  -0.048099  -0.111621  0  3.879145  0
C  C102  1  0.41963593  0.66623547  0.20639786  1  0  -0.094332  0  3.705747  0  0.246286  0  -0.133868  0  3.967533  0  0  -0.132447  0  3.984729  0  0  -0.009477  -0.134735  0  3.956035  0
C  C103  1  0.58036258  0.83376674  0.70639771  1  0  -0.094333  0  3.705702  0  0.245711  0  -0.133865  0  3.967489  0  0  -0.132454  0  3.984682  0  0  -0.009416  -0.134722  0  3.955975  0
C  C104  1  0.58036220  0.33376608  0.79360250  1  0  -0.094262  0  3.705666  0  0.245741  0  -0.133794  0  3.967456  0  0  -0.132383  0  3.984648  0  0  -0.009437  -0.134662  0  3.955954  0
C  C105  1  0.41963905  0.16623481  0.29360312  1  0  -0.094283  0  3.705678  0  0.245741  0  -0.133814  0  3.96746  0  0  -0.132392  0  3.984654  0  0  -0.009436  -0.134671  0  3.955946  0
C  C106  1  0.50508627  0.59667633  0.16295029  1  0  -0.012943  0  3.777581  0  0.425403  0  -0.046659  0  4.049324  0  0  -0.043721  0  4.067158  0  0  -0.009989  -0.048612  0  4.037265  0
C  C107  1  0.49491443  0.90332584  0.66295010  1  0  -0.012823  0  3.77755  0  0.42519  0  -0.046587  0  4.049283  0  0  -0.043649  0  4.067121  0  0  -0.009969  -0.048542  0  4.037223  0
C  C108  1  0.49491277  0.40332401  0.83705006  1  0  -0.012934  0  3.777612  0  0.425322  0  -0.046691  0  4.049359  0  0  -0.043755  0  4.067197  0  0  -0.010019  -0.048643  0  4.037302  0
C  C109  1  0.50508745  0.09667691  0.33705025  1  0  -0.012944  0  3.777591  0  0.42532  0  -0.046662  0  4.049347  0  0  -0.043725  0  4.067179  0  0  -0.010017  -0.048608  0  4.037276  0
C  C110  1  0.29413178  0.63508442  0.11348621  1  0  0.154799  0  3.667592  0  0.968963  0  0.09544  0  3.936151  0  0  0.108719  0  3.948568  0  0  0.135149  0.086875  0  3.927507  0
C  C111  1  0.70586878  0.86491772  0.61348660  1  0  0.154869  0  3.667689  0  0.968994  0  0.095526  0  3.936212  0  0  0.108807  0  3.948628  0  0  0.135206  0.08695  0  3.927578  0
C  C112  1  0.70586843  0.36491592  0.88651367  1  0  0.154841  0  3.66767  0  0.968993  0  0.095494  0  3.936205  0  0  0.108772  0  3.948623  0  0  0.135166  0.086925  0  3.927568  0
C  C113  1  0.29413311  0.13508504  0.38651423  1  0  0.154747  0  3.667595  0  0.968973  0  0.095423  0  3.93611  0  0  0.108701  0  3.948522  0  0  0.135164  0.086846  0  3.927481  0
N  N114  1  0.54135345  0.76823679  0.45607338  1  0  -0.386582  0  3.291  0  -1.256046  0  -0.306021  0  3.574514  0  0  -0.32825  0  3.592983  0  0  -0.364314  -0.290759  0  3.561428  0
N  N115  1  0.45864364  0.73176080  0.95607412  1  0  -0.386454  0  3.29069  0  -1.256228  0  -0.305898  0  3.574221  0  0  -0.328127  0  3.592689  0  0  -0.364282  -0.290636  0  3.561144  0
N  N116  1  0.45864276  0.23176114  0.54392602  1  0  -0.386499  0  3.29078  0  -1.256244  0  -0.305949  0  3.574323  0  0  -0.328178  0  3.592789  0  0  -0.364301  -0.290685  0  3.561248  0
N  N117  1  0.54135282  0.26823834  0.04392766  1  0  -0.386529  0  3.29082  0  -1.2561  0  -0.305973  0  3.57435  0  0  -0.328201  0  3.592817  0  0  -0.364332  -0.290708  0  3.561268  0
N  N118  1  0.65837825  0.57390904  0.42555084  1  0  -0.053534  0  3.564329  0  -1.256001  0  0.042903  0  3.778566  0  0  0.027646  0  3.804997  0  0  -0.239797  0.053022  0  3.760497  0
N  N119  1  0.34161758  0.92608852  0.92555249  1  0  -0.053438  0  3.564404  0  -1.255851  0  0.042989  0  3.778634  0  0  0.027733  0  3.805068  0  0  -0.239792  0.053109  0  3.760575  0
N  N120  1  0.34161795  0.42608889  0.57444760  1  0  -0.053446  0  3.564394  0  -1.255852  0  0.042983  0  3.778612  0  0  0.027727  0  3.805047  0  0  -0.239775  0.053108  0  3.760543  0
N  N121  1  0.65838030  0.07391182  0.07444930  1  0  -0.053429  0  3.564391  0  -1.255952  0  0.043002  0  3.778624  0  0  0.027747  0  3.805054  0  0  -0.239787  0.053122  0  3.760555  0
N  N122  1  0.28636377  0.69046642  0.17398698  1  0  -0.066237  0  3.570057  0  -1.275207  0  0.030293  0  3.78532  0  0  0.015405  0  3.811349  0  0  -0.245818  0.040177  0  3.767554  0
N  N123  1  0.71363580  0.80953577  0.67398690  1  0  -0.066325  0  3.570084  0  -1.274709  0  0.030227  0  3.785359  0  0  0.015337  0  3.81139  0  0  -0.245868  0.040108  0  3.767596  0
N  N124  1  0.71363553  0.30953513  0.82601289  1  0  -0.066343  0  3.570028  0  -1.274704  0  0.03019  0  3.785301  0  0  0.015301  0  3.811336  0  0  -0.245867  0.040069  0  3.76754  0
N  N125  1  0.28636608  0.19046699  0.32601345  1  0  -0.066276  0  3.569881  0  -1.274688  0  0.030273  0  3.785153  0  0  0.015385  0  3.811178  0  0  -0.24584  0.040152  0  3.767394  0
N  N126  1  0.42588375  0.57872232  0.10508535  1  0  -0.382869  0  3.203328  0  -1.244808  0  -0.314989  0  3.490095  0  0  -0.334622  0  3.506521  0  0  -0.35489  -0.301427  0  3.478412  0
N  N127  1  0.57411678  0.92127981  0.60508568  1  0  -0.382969  0  3.203319  0  -1.244825  0  -0.315087  0  3.490095  0  0  -0.334718  0  3.506515  0  0  -0.354966  -0.301528  0  3.478424  0
N  N128  1  0.57411646  0.42127802  0.89491452  1  0  -0.38288  0  3.203293  0  -1.244807  0  -0.315002  0  3.490072  0  0  -0.334636  0  3.5065  0  0  -0.354901  -0.301442  0  3.478395  0
N  N129  1  0.42588627  0.07872295  0.39491467  1  0  -0.382891  0  3.203339  0  -1.244834  0  -0.315019  0  3.490103  0  0  -0.334657  0  3.506548  0  0  -0.354929  -0.301458  0  3.478427  0
N  N130  1  0.88028861  0.15184527  0.45714163  1  0  0.688967  0  4.170125  0  0.846245  0  0.719022  0  4.467394  0  0  0.746556  0  4.473766  0  0  0.096097  0.700229  0  4.462828  0
N  N131  1  0.11970851  0.34814489  0.95714507  1  0  0.68908  0  4.169873  0  0.846222  0  0.718917  0  4.467451  0  0  0.74647  0  4.473776  0  0  0.095942  0.700127  0  4.462884  0
N  N132  1  0.11970954  0.84814541  0.54285490  1  0  0.689034  0  4.169914  0  0.846213  0  0.718881  0  4.467471  0  0  0.746431  0  4.473797  0  0  0.09594  0.70009  0  4.462899  0
N  N133  1  0.88029196  0.65185666  0.04285576  1  0  0.689051  0  4.170006  0  0.846197  0  0.718814  0  4.467692  0  0  0.746377  0  4.473994  0  0  0.095939  0.700008  0  4.463139  0
O  O134  1  0.78725871  0.12680326  0.50581560  1  0  -0.503179  0  1.805821  0  -0.60527  0  -0.472865  0  2.042795  0  0  -0.491561  0  2.034774  0  0  -0.206165  -0.459538  0  2.047967  0
O  O135  1  0.21273882  0.37319498  0.00581947  1  0  -0.503325  0  1.805752  0  -0.605331  0  -0.472887  0  2.042733  0  0  -0.491585  0  2.034706  0  0  -0.206167  -0.459565  0  2.047916  0
O  O136  1  0.21273775  0.87319587  0.49418094  1  0  -0.50329  0  1.805771  0  -0.605325  0  -0.472853  0  2.042749  0  0  -0.491551  0  2.034725  0  0  -0.206154  -0.459526  0  2.047926  0
O  O137  1  0.78726230  0.62680416  0.99418232  1  0  -0.503298  0  1.805845  0  -0.605256  0  -0.472847  0  2.042845  0  0  -0.491544  0  2.034818  0  0  -0.206143  -0.459511  0  2.04802  0
O  O138  1  0.01421253  0.24837235  0.46298755  1  0  -0.473276  0  1.747788  0  -0.567807  0  -0.462754  0  1.960462  0  0  -0.476593  0  1.953965  0  0  -0.196271  -0.453013  0  1.964946  0
O  O139  1  0.98578396  0.25162023  0.96299236  1  0  -0.4733  0  1.74778  0  -0.567974  0  -0.462709  0  1.960543  0  0  -0.476553  0  1.95405  0  0  -0.196197  -0.45298  0  1.965035  0
O  O140  1  0.98578381  0.75162075  0.53700803  1  0  -0.473287  0  1.747763  0  -0.567976  0  -0.462688  0  1.960509  0  0  -0.476532  0  1.954015  0  0  -0.196197  -0.452968  0  1.965016  0
O  O141  1  0.01421676  0.74838253  0.03700751  1  0  -0.473303  0  1.747763  0  -0.568019  0  -0.462695  0  1.96054  0  0  -0.476543  0  1.954048  0  0  -0.196231  -0.452962  0  1.965041  0
O  O142  1  0.83784649  0.08225241  0.40512474  1  0  -0.459189  0  1.751376  0  -0.549724  0  -0.454671  0  1.966264  0  0  -0.467031  0  1.960237  0  0  -0.187922  -0.445862  0  1.970273  0
O  O143  1  0.16215216  0.41772926  0.90512630  1  0  -0.459134  0  1.751177  0  -0.549471  0  -0.454586  0  1.966203  0  0  -0.466948  0  1.960165  0  0  -0.187839  -0.44577  0  1.970208  0
O  O144  1  0.16215168  0.91772741  0.59487370  1  0  -0.459137  0  1.751194  0  -0.549465  0  -0.4546  0  1.966224  0  0  -0.466966  0  1.960194  0  0  -0.187853  -0.44578  0  1.970229  0
O  O145  1  0.83785283  0.58227712  0.09487453  1  0  -0.459144  0  1.751276  0  -0.549465  0  -0.454538  0  1.966289  0  0  -0.46691  0  1.960259  0  0  -0.187833  -0.445724  0  1.970303  0
