# generated using pymatgen
data_AlH9C21(NO4)3
_symmetry_space_group_name_H-M   'P 1'
_cell_length_a   4.04974942
_cell_length_b   24.52399186
_cell_length_c   24.52395572
_cell_angle_alpha   120.00012977
_cell_angle_beta   89.99949316
_cell_angle_gamma   89.99980723
_symmetry_Int_Tables_number   1
_chemical_formula_structural   AlH9C21(NO4)3
_chemical_formula_sum   'Al2 H18 C42 N6 O24'
_cell_volume   2109.30752408
_cell_formula_units_Z   2
loop_
 _symmetry_equiv_pos_site_id
 _symmetry_equiv_pos_as_xyz
  1  'x, y, z'
loop_
 _atom_site_type_symbol
 _atom_site_label
 _atom_site_symmetry_multiplicity
 _atom_site_fract_x
 _atom_site_fract_y
 _atom_site_fract_z
 _atom_site_occupancy
 _atom_site_pbe_bader_charge
 _atom_site_pbe_bader_spin_density
 _atom_site_pbe_cm5_charge
 _atom_site_pbe_ddec_charge
 _atom_site_pbe_ddec_spin_density
 _atom_site_pbe_ddec_sum_bond_order
 _atom_site_pbe_magmom
Al  Al0  1  0.00832081  0.49999809  0.50000329  1  2.500609  0  0.431263  1.61572  0  2.549365  0
Al  Al1  1  0.00802961  0.16666706  0.83333694  1  2.499929  0  0.431313  1.615249  0  2.549704  0
H  H2  1  0.57857797  0.44007102  0.73638424  1  0.127065  0  0.116473  0.125738  0  1.009025  0
H  H3  1  0.57851217  0.22663712  0.59699953  1  0.127313  0  0.116439  0.125709  0  1.008938  0
H  H4  1  0.34916524  0.32484839  0.82592334  1  0.117192  0  0.124296  0.137124  0  0.955815  0
H  H5  1  0.30588660  0.38939947  0.77481130  1  0.068312  0  0.114258  0.116495  0  0.98055  0
H  H6  1  0.34934344  0.34187811  0.50746340  1  0.117771  0  0.124256  0.137085  0  0.955596  0
H  H7  1  0.30598214  0.27732217  0.55856826  1  0.069465  0  0.114387  0.116957  0  0.980639  0
H  H8  1  0.57855878  0.79630612  0.55991729  1  0.12616  0  0.116478  0.125793  0  1.008922  0
H  H9  1  0.57853039  0.87035589  0.77335106  1  0.127302  0  0.116438  0.12576  0  1.009001  0
H  H10  1  0.34917748  0.00107656  0.67515068  1  0.1133  0  0.124298  0.137144  0  0.955793  0
H  H11  1  0.30591251  0.88541364  0.61059458  1  0.10785  0  0.114277  0.116517  0  0.980612  0
H  H12  1  0.34935836  0.66558718  0.65812104  1  0.114719  0  0.124242  0.136987  0  0.955641  0
H  H13  1  0.30598490  0.78124890  0.72267355  1  0.109582  0  0.114424  0.117101  0  0.980538  0
H  H14  1  0.57857350  0.26361883  0.20369250  1  0.138291  0  0.116425  0.125598  0  1.009093  0
H  H15  1  0.57846767  0.40300436  0.12964530  1  0.139277  0  0.11647  0.125727  0  1.008929  0
H  H16  1  0.34918475  0.17407770  0.99893320  1  0.119404  0  0.124319  0.137093  0  0.955824  0
H  H17  1  0.30590497  0.22519074  0.11459583  1  0.102246  0  0.114305  0.116494  0  0.980601  0
H  H18  1  0.34931158  0.49253752  0.33442701  1  0.121184  0  0.124333  0.137211  0  0.955629  0
H  H19  1  0.30592964  0.44143586  0.21876580  1  0.100946  0  0.114451  0.117004  0  0.980464  0
C  C20  1  0.50596449  0.44228896  0.40492339  1  1.639752  0  0.279489  0.660114  0  4.112531  0
C  C21  1  0.50596537  0.46262790  0.55771355  1  1.633607  0  0.279492  0.660269  0  4.111837  0
C  C22  1  0.50596444  0.59508057  0.53737321  1  1.637491  0  0.279415  0.660202  0  4.111822  0
C  C23  1  0.50571577  0.20408933  0.77567041  1  1.635442  0  0.279439  0.66077  0  4.110553  0
C  C24  1  0.50571670  0.07157838  0.79591245  1  1.638493  0  0.279547  0.660771  0  4.11069  0
C  C25  1  0.50571171  0.22433475  0.92842685  1  1.641465  0  0.279472  0.660645  0  4.110652  0
C  C26  1  0.48152140  0.42683654  0.59243835  1  0.051085  0  0.010676  -0.048144  0  3.91656  0
C  C27  1  0.48135178  0.23988294  0.74094835  1  0.065792  0  0.010867  -0.048775  0  3.916782  0
C  C28  1  0.53802670  0.45277852  0.65694023  1  0.19505  0  0.077936  0.045606  0  3.929771  0
C  C29  1  0.51951162  0.41697399  0.68643676  1  -0.019627  0  -0.077421  -0.17152  0  3.953071  0
C  C30  1  0.53785348  0.21393372  0.67644532  1  0.196251  0  0.077971  0.046539  0  3.928747  0
C  C31  1  0.51940577  0.24974494  0.64695359  1  -0.019453  0  -0.077307  -0.170895  0  3.954118  0
C  C32  1  0.39684870  0.30378693  0.77562658  1  -0.029798  0  -0.068333  -0.077308  0  3.93314  0
C  C33  1  0.37502546  0.33993897  0.74656797  1  -0.029651  0  -0.071499  -0.104427  0  3.940464  0
C  C34  1  0.39696217  0.36293622  0.55775679  1  -0.014703  0  -0.068069  -0.077157  0  3.932904  0
C  C35  1  0.37504690  0.32677838  0.58681150  1  -0.005899  0  -0.07156  -0.105585  0  3.940231  0
C  C36  1  0.44045892  0.35288779  0.65153494  1  -0.017635  0  -0.004204  0.072112  0  4.00546  0
C  C37  1  0.44044623  0.31382473  0.68185235  1  0.043498  0  -0.004055  0.069505  0  4.008494  0
C  C38  1  0.48152423  0.66559731  0.57316000  1  -0.004392  0  0.010659  -0.04821  0  3.916689  0
C  C39  1  0.48135636  0.00106273  0.76011406  1  -0.010723  0  0.010824  -0.048702  0  3.916799  0
C  C40  1  0.53801685  0.70415387  0.54721214  1  0.194851  0  0.078007  0.045548  0  3.929659  0
C  C41  1  0.51949558  0.76945568  0.58301649  1  -0.082987  0  -0.077272  -0.170392  0  3.953464  0
C  C42  1  0.53785989  0.96250392  0.78605815  1  0.209414  0  0.077961  0.046411  0  3.928772  0
C  C43  1  0.51941838  0.89720272  0.75024594  1  -0.097257  0  -0.077351  -0.170935  0  3.953966  0
C  C44  1  0.39685579  0.97183958  0.69621025  1  0.034148  0  -0.068339  -0.077381  0  3.933009  0
C  C45  1  0.37503383  0.90662827  0.66005288  1  -0.046471  0  -0.071488  -0.104409  0  3.940333  0
C  C46  1  0.39697881  0.69482103  0.63706107  1  0.027099  0  -0.067998  -0.076736  0  3.932658  0
C  C47  1  0.37506226  0.76003246  0.67321434  1  -0.044911  0  -0.071697  -0.105185  0  3.941011  0
C  C48  1  0.44045913  0.79864284  0.64710090  1  0.056125  0  -0.00424  0.069423  0  4.009051  0
C  C49  1  0.44045493  0.86802212  0.68616344  1  0.106852  0  -0.004123  0.07027  0  4.009012  0
C  C50  1  0.48151327  0.40756436  0.33440791  1  0.050505  0  0.010762  -0.047904  0  3.916632  0
C  C51  1  0.48134757  0.25905395  0.99894212  1  0.049322  0  0.010809  -0.048831  0  3.916634  0
C  C52  1  0.53802214  0.34306126  0.29584832  1  0.154053  0  0.078  0.045636  0  3.929444  0
C  C53  1  0.51949950  0.31356761  0.23054637  1  0.010596  0  -0.077384  -0.170528  0  3.953695  0
C  C54  1  0.53783377  0.32355681  0.03749804  1  0.132628  0  0.078059  0.046528  0  3.928832  0
C  C55  1  0.51937881  0.35305131  0.10280085  1  0.03306  0  -0.077437  -0.171675  0  3.953189  0
C  C56  1  0.39684610  0.22437492  0.02816755  1  0.049484  0  -0.068422  -0.07743  0  3.933179  0
C  C57  1  0.37501317  0.25343280  0.09337934  1  -0.138032  0  -0.071463  -0.104963  0  3.939571  0
C  C58  1  0.39694543  0.44224487  0.30518909  1  0.04652  0  -0.068156  -0.077325  0  3.93272  0
C  C59  1  0.37502998  0.41318983  0.23997781  1  -0.161916  0  -0.071698  -0.104942  0  3.940946  0
C  C60  1  0.44044064  0.34846796  0.20136376  1  0.033541  0  -0.004057  0.068998  0  4.008708  0
C  C61  1  0.44042295  0.31814981  0.13198330  1  0.064651  0  -0.00419  0.07241  0  4.00563  0
N  N62  1  0.63551251  0.51951895  0.69570305  1  0.397135  0  0.05912  0.510682  0  4.203801  0
N  N63  1  0.63524885  0.14718967  0.63768163  1  0.39348  0  0.058984  0.510193  0  4.204945  0
N  N64  1  0.63548412  0.67617396  0.48047123  1  0.392025  0  0.059125  0.510753  0  4.203864  0
N  N65  1  0.63528122  0.99048371  0.85280123  1  0.390517  0  0.058929  0.51033  0  4.204683  0
N  N66  1  0.63549702  0.30429505  0.32382251  1  0.391393  0  0.05921  0.510812  0  4.203876  0
N  N67  1  0.63524007  0.36231699  0.00951398  1  0.388772  0  0.058858  0.510214  0  4.204927  0
O  O68  1  0.74813238  0.57255144  0.55255070  1  -1.244311  0  -0.223731  -0.575478  0  2.382801  0
O  O69  1  0.74813899  0.47999311  0.42745215  1  -1.247421  0  -0.223845  -0.575539  0  2.383189  0
O  O70  1  0.74813455  0.44745090  0.52000696  1  -1.243496  0  -0.22381  -0.575495  0  2.382795  0
O  O71  1  0.27381803  0.56423509  0.49973583  1  -1.250325  0  -0.234405  -0.59703  0  2.410206  0
O  O72  1  0.27381216  0.50026523  0.56450591  1  -1.244918  0  -0.234409  -0.597  0  2.41023  0
O  O73  1  0.27381856  0.43549507  0.43576944  1  -1.245357  0  -0.23444  -0.596964  0  2.410474  0
O  O74  1  0.74785360  0.18662643  0.90587680  1  -1.248333  0  -0.22402  -0.57562  0  2.382539  0
O  O75  1  0.74786051  0.21924722  0.81337797  1  -1.243147  0  -0.224018  -0.575762  0  2.382586  0
O  O76  1  0.74786515  0.09412934  0.78075615  1  -1.244236  0  -0.224049  -0.575744  0  2.382775  0
O  O77  1  0.27353756  0.23114424  0.89759797  1  -1.245534  0  -0.234187  -0.596795  0  2.409491  0
O  O78  1  0.27354303  0.10240651  0.83355100  1  -1.2504  0  -0.234209  -0.596874  0  2.409508  0
O  O79  1  0.27354396  0.16645067  0.76885994  1  -1.245836  0  -0.234192  -0.596945  0  2.409593  0
O  O80  1  0.71817729  0.54755346  0.66748235  1  -0.442197  0  -0.111524  -0.302379  0  1.954182  0
O  O81  1  0.63163896  0.54306600  0.75366422  1  -0.455104  0  -0.135161  -0.329115  0  1.874732  0
O  O82  1  0.71807333  0.11916591  0.66590266  1  -0.439179  0  -0.111315  -0.302129  0  1.955113  0
O  O83  1  0.63112685  0.12362837  0.57971516  1  -0.454641  0  -0.135218  -0.329133  0  1.875108  0
O  O84  1  0.71817944  0.61992234  0.45244012  1  -0.438897  0  -0.111513  -0.30233  0  1.954129  0
O  O85  1  0.63156558  0.71058729  0.45692068  1  -0.451348  0  -0.135279  -0.32928  0  1.874565  0
O  O86  1  0.71808847  0.04672597  0.88082674  1  -0.439223  0  -0.111252  -0.302158  0  1.9552  0
O  O87  1  0.63119186  0.95607340  0.87635856  1  -0.448903  0  -0.135198  -0.329186  0  1.874985  0
O  O88  1  0.71816462  0.33251491  0.38007839  1  -0.442448  0  -0.111616  -0.30249  0  1.954093  0
O  O89  1  0.63161186  0.24633459  0.28940710  1  -0.45224  0  -0.13525  -0.329229  0  1.874707  0
O  O90  1  0.71807860  0.33409498  0.95327012  1  -0.441282  0  -0.111211  -0.302136  0  1.955144  0
O  O91  1  0.63110993  0.42028273  0.04391678  1  -0.44978  0  -0.135136  -0.329077  0  1.875129  0
