# generated using pymatgen
data_AgH24C27(N3O)3
_symmetry_space_group_name_H-M   'P 1'
_cell_length_a   7.56885163
_cell_length_b   13.83698632
_cell_length_c   13.89500000
_cell_angle_alpha   120.13878904
_cell_angle_beta   90.00000000
_cell_angle_gamma   90.00000000
_symmetry_Int_Tables_number   1
_chemical_formula_structural   AgH24C27(N3O)3
_chemical_formula_sum   'Ag2 H48 C54 N18 O6'
_cell_volume   1258.49534033
_cell_formula_units_Z   2
loop_
 _symmetry_equiv_pos_site_id
 _symmetry_equiv_pos_as_xyz
  1  'x, y, z'
loop_
 _atom_site_type_symbol
 _atom_site_label
 _atom_site_symmetry_multiplicity
 _atom_site_fract_x
 _atom_site_fract_y
 _atom_site_fract_z
 _atom_site_occupancy
 _atom_site_hle17_bader_spin_density
 _atom_site_hle17_ddec_charge
 _atom_site_hle17_ddec_spin_density
 _atom_site_hle17_ddec_sum_bond_order
 _atom_site_hle17_magmom
 _atom_site_hse06_10hf_bader_spin_density
 _atom_site_hse06_10hf_ddec_charge
 _atom_site_hse06_10hf_ddec_spin_density
 _atom_site_hse06_10hf_ddec_sum_bond_order
 _atom_site_hse06_10hf_magmom
 _atom_site_hse06_bader_spin_density
 _atom_site_hse06_ddec_charge
 _atom_site_hse06_ddec_spin_density
 _atom_site_hse06_ddec_sum_bond_order
 _atom_site_hse06_magmom
 _atom_site_pbe_bader_charge
 _atom_site_pbe_bader_spin_density
 _atom_site_pbe_cm5_charge
 _atom_site_pbe_ddec_charge
 _atom_site_pbe_ddec_spin_density
 _atom_site_pbe_ddec_sum_bond_order
 _atom_site_pbe_magmom
Ag  Ag0  1  0.67779239  0.33370555  0.66772647  1  0  0.501582  0  1.551806  0  0  0.354373  0  2.02661  0  0  0.378497  0  1.981228  0  0.617532  0  0.474648  0.3395  0  2.056874  0
Ag  Ag1  1  0.17781826  0.66629464  0.33227507  1  0  0.50159  0  1.551859  0  0  0.354416  0  2.026653  0  0  0.37854  0  1.98127  0  0.617512  0  0.474686  0.339548  0  2.056915  0
H  H2  1  0.95871215  0.27229604  0.10960754  1  0  0.29101  0  0.919347  0  0  0.272272  0  0.989107  0  0  0.279922  0  0.983723  0  0.501765  0  0.301775  0.266859  0  0.992917  0
H  H3  1  0.95822727  0.89092968  0.16218381  1  0  0.291078  0  0.920069  0  0  0.272176  0  0.989901  0  0  0.27983  0  0.98447  0  0.504681  0  0.301484  0.26676  0  0.993738  0
H  H4  1  0.95954451  0.83770811  0.72912538  1  0  0.291061  0  0.919769  0  0  0.272568  0  0.988854  0  0  0.280233  0  0.983421  0  0.498355  0  0.301843  0.267136  0  0.992698  0
H  H5  1  0.45871556  0.72770415  0.89038968  1  0  0.290965  0  0.919357  0  0  0.272206  0  0.989132  0  0  0.27985  0  0.983759  0  0.501606  0  0.301767  0.266791  0  0.992944  0
H  H6  1  0.45822935  0.10906884  0.83781618  1  0  0.291126  0  0.919982  0  0  0.27218  0  0.989867  0  0  0.279834  0  0.984437  0  0.504692  0  0.301489  0.266763  0  0.993707  0
H  H7  1  0.45954527  0.16228958  0.27087275  1  0  0.29112  0  0.919674  0  0  0.272624  0  0.988762  0  0  0.280294  0  0.983324  0  0.498195  0  0.301852  0.267191  0  0.992606  0
H  H8  1  0.15236525  0.18284131  0.17679813  1  0  0.105279  0  0.95768  0  0  0.111021  0  1.028041  0  0  0.114549  0  1.026303  0  0.102947  0  0.107032  0.10845  0  1.029349  0
H  H9  1  0.15187244  0.82293924  0.00607487  1  0  0.104897  0  0.958617  0  0  0.110593  0  1.029002  0  0  0.114123  0  1.027185  0  0.10035  0  0.106997  0.108031  0  1.030349  0
H  H10  1  0.15255419  0.99358556  0.81819472  1  0  0.105213  0  0.956183  0  0  0.111036  0  1.026434  0  0  0.114526  0  1.024726  0  0.112006  0  0.107369  0.108457  0  1.027785  0
H  H11  1  0.65236713  0.81715805  0.82320011  1  0  0.105236  0  0.95772  0  0  0.11098  0  1.028074  0  0  0.114503  0  1.02635  0  0.102912  0  0.107024  0.108407  0  1.029385  0
H  H12  1  0.65187168  0.17706012  0.99392337  1  0  0.104956  0  0.958494  0  0  0.110638  0  1.028908  0  0  0.114168  0  1.027091  0  0.100372  0  0.10701  0.108078  0  1.03025  0
H  H13  1  0.65255738  0.00641380  0.18180280  1  0  0.105218  0  0.956232  0  0  0.111049  0  1.026472  0  0  0.114541  0  1.024761  0  0.112065  0  0.107391  0.108473  0  1.02782  0
H  H14  1  0.12586718  0.39414234  0.00686390  1  0  0.081457  0  0.937387  0  0  0.095923  0  0.999666  0  0  0.096983  0  0.999165  0  0.081151  0  0.113615  0.095014  0  1.000217  0
H  H15  1  0.12618823  0.99380701  0.38647673  1  0  0.081639  0  0.937091  0  0  0.096102  0  0.999548  0  0  0.097159  0  0.998986  0  0.098603  0  0.113918  0.09521  0  1.00013  0
H  H16  1  0.12617502  0.61221817  0.60580106  1  0  0.081754  0  0.937296  0  0  0.096364  0  0.999796  0  0  0.097402  0  0.999252  0  0.085449  0  0.113746  0.095483  0  1.000381  0
H  H17  1  0.62586773  0.60585786  0.99313548  1  0  0.08149  0  0.937321  0  0  0.095942  0  0.999619  0  0  0.097  0  0.99912  0  0.081417  0  0.113618  0.095032  0  1.000171  0
H  H18  1  0.62619143  0.00619736  0.61352617  1  0  0.081673  0  0.937097  0  0  0.096137  0  0.999553  0  0  0.097195  0  0.998989  0  0.098635  0  0.113939  0.095245  0  1.000135  0
H  H19  1  0.62617689  0.38777951  0.39419634  1  0  0.081759  0  0.937368  0  0  0.096338  0  0.999877  0  0  0.097376  0  0.99933  0  0.08547  0  0.113756  0.095455  0  1.000463  0
H  H20  1  0.02342363  0.45974944  0.14063614  1  0  0.078265  0  0.944675  0  0  0.085357  0  1.024863  0  0  0.08672  0  1.022821  0  0.113083  0  0.106405  0.084166  0  1.026535  0
H  H21  1  0.02438151  0.85929190  0.31764091  1  0  0.077645  0  0.944481  0  0  0.085083  0  1.024241  0  0  0.086393  0  1.022293  0  0.097254  0  0.106441  0.083954  0  1.025828  0
H  H22  1  0.02415162  0.68204376  0.54172645  1  0  0.078567  0  0.943044  0  0  0.086364  0  1.022141  0  0  0.087624  0  1.020279  0  0.089007  0  0.1071  0.085275  0  1.023661  0
H  H23  1  0.52342286  0.54024825  0.85935910  1  0  0.078286  0  0.944649  0  0  0.08539  0  1.024824  0  0  0.086752  0  1.022782  0  0.113181  0  0.10639  0.084198  0  1.026494  0
H  H24  1  0.52437942  0.14071080  0.68236188  1  0  0.077653  0  0.944499  0  0  0.085101  0  1.024253  0  0  0.086411  0  1.022305  0  0.09721  0  0.106445  0.083971  0  1.025839  0
H  H25  1  0.52415349  0.31795310  0.45827342  1  0  0.078575  0  0.943067  0  0  0.086338  0  1.022185  0  0  0.087603  0  1.020309  0  0.088928  0  0.107104  0.085257  0  1.023683  0
H  H26  1  0.94999088  0.33031439  0.83785097  1  0  0.083852  0  0.957858  0  0  0.089018  0  1.028481  0  0  0.09154  0  1.026549  0  0.130787  0  0.109252  0.087107  0  1.029995  0
H  H27  1  0.94982969  0.16304419  0.49285711  1  0  0.084209  0  0.958449  0  0  0.08925  0  1.02923  0  0  0.091775  0  1.027281  0  0.110442  0  0.109151  0.087325  0  1.030758  0
H  H28  1  0.94978609  0.50727339  0.66998214  1  0  0.084303  0  0.958495  0  0  0.089442  0  1.029131  0  0  0.091981  0  1.027204  0  0.130921  0  0.109388  0.087514  0  1.030669  0
H  H29  1  0.45001278  0.66968330  0.16214644  1  0  0.08388  0  0.957702  0  0  0.089022  0  1.028396  0  0  0.091547  0  1.026471  0  0.130616  0  0.109236  0.087112  0  1.029908  0
H  H30  1  0.44983706  0.83695600  0.50714227  1  0  0.084128  0  0.958489  0  0  0.089223  0  1.029214  0  0  0.091749  0  1.027262  0  0.110344  0  0.109147  0.087299  0  1.030742  0
H  H31  1  0.44979082  0.49272430  0.33001814  1  0  0.084237  0  0.958487  0  0  0.089371  0  1.029144  0  0  0.09191  0  1.027217  0  0.13079  0  0.109375  0.087446  0  1.030674  0
H  H32  1  0.68869496  0.43948935  0.15263852  1  0  0.113405  0  0.939749  0  0  0.12406  0  0.999164  0  0  0.126597  0  0.99765  0  0.116949  0  0.110632  0.122142  0  1.000368  0
H  H33  1  0.68936349  0.84663645  0.28565864  1  0  0.11254  0  0.939592  0  0  0.123452  0  0.998774  0  0  0.125989  0  0.997244  0  0.119288  0  0.110474  0.12154  0  1.000001  0
H  H34  1  0.68945069  0.71333808  0.56042219  1  0  0.113073  0  0.938524  0  0  0.12384  0  0.997892  0  0  0.126378  0  0.996352  0  0.115111  0  0.110682  0.121941  0  0.99911  0
H  H35  1  0.18868648  0.56051502  0.84736654  1  0  0.113282  0  0.939757  0  0  0.123987  0  0.999128  0  0  0.126521  0  0.997615  0  0.117057  0  0.110571  0.122063  0  1.000337  0
H  H36  1  0.18936823  0.15336291  0.71434104  1  0  0.112501  0  0.939508  0  0  0.123394  0  0.998734  0  0  0.125922  0  0.997204  0  0.119348  0  0.110465  0.121484  0  0.99996  0
H  H37  1  0.18944882  0.28666295  0.43957761  1  0  0.113141  0  0.938456  0  0  0.123898  0  0.997836  0  0  0.126436  0  0.996296  0  0.115156  0  0.110695  0.121998  0  0.999054  0
H  H38  1  0.40116125  0.41379656  0.05383315  1  0  0.10374  0  0.954003  0  0  0.116053  0  1.009648  0  0  0.118721  0  1.009563  0  0.095629  0  0.107282  0.114119  0  1.009933  0
H  H39  1  0.40153515  0.94539725  0.35969611  1  0  0.103704  0  0.95437  0  0  0.116302  0  1.009663  0  0  0.11896  0  1.009587  0  0.090556  0  0.107262  0.114352  0  1.009947  0
H  H40  1  0.40156686  0.64016061  0.58596947  1  0  0.103049  0  0.954239  0  0  0.115952  0  1.009225  0  0  0.118497  0  1.009343  0  0.094699  0  0.107303  0.114096  0  1.009384  0
H  H41  1  0.90115520  0.58621116  0.94618151  1  0  0.103767  0  0.953962  0  0  0.116089  0  1.009611  0  0  0.118759  0  1.009521  0  0.095408  0  0.107295  0.114156  0  1.009894  0
H  H42  1  0.90153835  0.05460211  0.64030069  1  0  0.103786  0  0.954351  0  0  0.116354  0  1.009664  0  0  0.119033  0  1.009563  0  0.090594  0  0.107294  0.114403  0  1.00995  0
H  H43  1  0.90156345  0.35983959  0.41402487  1  0  0.103062  0  0.954165  0  0  0.115961  0  1.009164  0  0  0.118507  0  1.009281  0  0.094652  0  0.107301  0.114105  0  1.009323  0
H  H44  1  0.40517903  0.34797469  0.84845514  1  0  0.078092  0  0.951669  0  0  0.083306  0  1.021746  0  0  0.08592  0  1.019418  0  0.126895  0  0.109569  0.081346  0  1.023535  0
H  H45  1  0.40499407  0.15161718  0.50022889  1  0  0.077936  0  0.952786  0  0  0.083176  0  1.022866  0  0  0.085818  0  1.020502  0  0.128225  0  0.109499  0.081205  0  1.024644  0
H  H46  1  0.40494254  0.50046599  0.65203868  1  0  0.078448  0  0.952266  0  0  0.083779  0  1.022156  0  0  0.086398  0  1.019819  0  0.128496  0  0.109626  0.081809  0  1.023956  0
H  H47  1  0.90519941  0.65203136  0.15155940  1  0  0.078065  0  0.951652  0  0  0.083286  0  1.021729  0  0  0.085897  0  1.019409  0  0.126642  0  0.109622  0.081327  0  1.023518  0
H  H48  1  0.90500123  0.84838217  0.49976719  1  0  0.077923  0  0.952794  0  0  0.083156  0  1.022889  0  0  0.085814  0  1.020511  0  0.128248  0  0.10949  0.081185  0  1.024668  0
H  H49  1  0.90494573  0.49953337  0.34795524  1  0  0.078488  0  0.952267  0  0  0.083805  0  1.022162  0  0  0.086426  0  1.019824  0  0.12834  0  0.109648  0.081836  0  1.023962  0
C  C50  1  0.14953788  0.09887863  0.99670740  1  0  -0.043953  0  3.787358  0  0  -0.018242  0  4.023429  0  0  -0.02549  0  4.045087  0  -0.025361  0  -0.011025  -0.013818  0  4.008955  0
C  C51  1  0.14959072  0.00370454  0.10270366  1  0  -0.042963  0  3.78555  0  0  -0.017495  0  4.022375  0  0  -0.024726  0  4.044046  0  -0.037011  0  -0.011091  -0.013081  0  4.00791  0
C  C52  1  0.14964886  0.89684208  0.90151496  1  0  -0.044844  0  3.787455  0  0  -0.018503  0  4.023208  0  0  -0.025774  0  4.044906  0  -0.012876  0  -0.011354  -0.014137  0  4.008827  0
C  C53  1  0.64953975  0.90112157  0.00329054  1  0  -0.043879  0  3.787291  0  0  -0.018192  0  4.023414  0  0  -0.025438  0  4.045071  0  -0.02537  0  -0.011032  -0.01377  0  4.00894  0
C  C54  1  0.64959524  0.99629565  0.89729428  1  0  -0.04298  0  3.785619  0  0  -0.017551  0  4.022432  0  0  -0.024783  0  4.044105  0  -0.037092  0  -0.011169  -0.013136  0  4.007965  0
C  C55  1  0.64965073  0.10315812  0.09848298  1  0  -0.04485  0  3.787543  0  0  -0.018526  0  4.023296  0  0  -0.025781  0  4.044979  0  -0.01279  0  -0.011374  -0.014168  0  4.008924  0
C  C56  1  0.15005579  0.10300268  0.09905370  1  0  -0.084679  0  3.688061  0  0  -0.121926  0  3.937413  0  0  -0.119144  0  3.954522  0  -0.062945  0  -0.076511  -0.123456  0  3.925905  0
C  C57  1  0.15001615  0.90078395  0.00419982  1  0  -0.084065  0  3.688127  0  0  -0.121211  0  3.937113  0  0  -0.118369  0  3.954204  0  -0.051366  0  -0.076167  -0.122765  0  3.925637  0
C  C58  1  0.15020905  0.99562962  0.89768383  1  0  -0.084105  0  3.687806  0  0  -0.121593  0  3.937226  0  0  -0.118735  0  3.954344  0  -0.03035  0  -0.076755  -0.12314  0  3.92574  0
C  C59  1  0.65006163  0.89699668  0.90094454  1  0  -0.084586  0  3.68803  0  0  -0.121803  0  3.93736  0  0  -0.119022  0  3.954468  0  -0.062756  0  -0.076439  -0.123332  0  3.925854  0
C  C60  1  0.65001803  0.09921457  0.99579944  1  0  -0.084114  0  3.688177  0  0  -0.121234  0  3.937146  0  0  -0.118395  0  3.954233  0  -0.051389  0  -0.07615  -0.122782  0  3.925669  0
C  C61  1  0.65021092  0.00437141  0.10231525  1  0  -0.084155  0  3.687876  0  0  -0.121646  0  3.937313  0  0  -0.11879  0  3.954426  0  -0.030334  0  -0.076769  -0.12319  0  3.925826  0
C  C62  1  0.15091193  0.20204510  0.98805745  1  0  0.532665  0  3.866203  0  0  0.487256  0  4.1484  0  0  0.516918  0  4.147275  0  1.399075  0  0.236918  0.467354  0  4.148424  0
C  C63  1  0.15112729  0.01252592  0.21420682  1  0  0.534023  0  3.862408  0  0  0.487692  0  4.145635  0  0  0.517279  0  4.144607  0  1.4096  0  0.237142  0.467832  0  4.145608  0
C  C64  1  0.15096874  0.78489852  0.79836722  1  0  0.533999  0  3.862865  0  0  0.487088  0  4.146511  0  0  0.516718  0  4.145462  0  1.399796  0  0.236841  0.46721  0  4.146515  0
C  C65  1  0.65091116  0.79795509  0.01193976  1  0  0.53256  0  3.866254  0  0  0.487114  0  4.148513  0  0  0.516774  0  4.147383  0  1.398751  0  0.23683  0.467213  0  4.148537  0
C  C66  1  0.65112916  0.98747511  0.78579441  1  0  0.533978  0  3.86234  0  0  0.487741  0  4.145435  0  0  0.517327  0  4.14441  0  1.409273  0  0.237122  0.46788  0  4.145411  0
C  C67  1  0.65096533  0.21510167  0.20163288  1  0  0.533971  0  3.862999  0  0  0.487068  0  4.146624  0  0  0.516691  0  4.145588  0  1.400437  0  0.236845  0.467192  0  4.146625  0
C  C68  1  0.01793667  0.38745862  0.05577393  1  0  0.010901  0  3.680761  0  0  -0.053117  0  3.934434  0  0  -0.047409  0  3.945444  0  0.282798  0  -0.056844  -0.056737  0  3.926949  0
C  C69  1  0.01823130  0.94450391  0.33086873  1  0  0.012655  0  3.679314  0  0  -0.052419  0  3.933543  0  0  -0.046621  0  3.944371  0  0.297213  0  -0.056963  -0.056154  0  3.926239  0
C  C70  1  0.01845458  0.66842561  0.61308866  1  0  0.012032  0  3.679519  0  0  -0.053763  0  3.93501  0  0  -0.047899  0  3.945851  0  0.306016  0  -0.057038  -0.057564  0  3.927747  0
C  C71  1  0.51793458  0.61254074  0.94422359  1  0  0.010858  0  3.680873  0  0  -0.053164  0  3.934547  0  0  -0.047462  0  3.94556  0  0.282418  0  -0.056828  -0.056781  0  3.927059  0
C  C72  1  0.51823053  0.05549879  0.66913334  1  0  0.012574  0  3.679524  0  0  -0.0525  0  3.933724  0  0  -0.046701  0  3.944559  0  0.297216  0  -0.056965  -0.056232  0  3.926415  0
C  C73  1  0.51845514  0.33157291  0.38690988  1  0  0.011992  0  3.679748  0  0  -0.053737  0  3.935133  0  0  -0.047863  0  3.945982  0  0.306086  0  -0.057014  -0.057535  0  3.92787  0
C  C74  1  0.83152905  0.34807664  0.88910489  1  0  0.063685  0  3.693855  0  0  0.027951  0  3.942062  0  0  0.03376  0  3.960121  0  0.45731  0  0.036779  0.024206  0  3.929914  0
C  C75  1  0.83142467  0.11147725  0.45923701  1  0  0.063412  0  3.694464  0  0  0.027582  0  3.942494  0  0  0.033343  0  3.960607  0  0.457227  0  0.036657  0.023884  0  3.930297  0
C  C76  1  0.83141410  0.54079144  0.65204451  1  0  0.063526  0  3.695041  0  0  0.027794  0  3.9428  0  0  0.033561  0  3.960863  0  0.46149  0  0.036478  0.024075  0  3.930638  0
C  C77  1  0.33154171  0.65192272  0.11089623  1  0  0.063675  0  3.693791  0  0  0.02794  0  3.942001  0  0  0.033727  0  3.960075  0  0.457558  0  0.036804  0.0242  0  3.929852  0
C  C78  1  0.33143073  0.88852211  0.54076267  1  0  0.063456  0  3.694477  0  0  0.027619  0  3.942487  0  0  0.033381  0  3.960599  0  0.457188  0  0.036668  0.023917  0  3.93029  0
C  C79  1  0.33142148  0.45920458  0.34795565  1  0  0.063522  0  3.695027  0  0  0.027783  0  3.942831  0  0  0.033551  0  3.960892  0  0.461616  0  0.03644  0.024066  0  3.930661  0
C  C80  1  0.84234179  0.38264430  0.00225774  1  0  0.014725  0  3.744747  0  0  0.041399  0  3.981638  0  0  0.035255  0  4.008036  0  -0.032203  0  -0.010213  0.045259  0  3.963908  0
C  C81  1  0.84251751  0.99787006  0.38000160  1  0  0.013674  0  3.746075  0  0  0.041387  0  3.981845  0  0  0.035213  0  4.008242  0  -0.021227  0  -0.010336  0.045272  0  3.964119  0
C  C82  1  0.84259678  0.61950358  0.61738547  1  0  0.013662  0  3.745758  0  0  0.040879  0  3.982542  0  0  0.034719  0  4.008896  0  -0.057598  0  -0.01032  0.044766  0  3.964853  0
C  C83  1  0.34234916  0.61735590  0.99774236  1  0  0.014567  0  3.744874  0  0  0.041263  0  3.981794  0  0  0.035117  0  4.008198  0  -0.032111  0  -0.010299  0.045123  0  3.96406  0
C  C84  1  0.34252092  0.00213097  0.62000035  1  0  0.013753  0  3.746122  0  0  0.041413  0  3.981967  0  0  0.035237  0  4.008367  0  -0.021192  0  -0.010297  0.0453  0  3.96424  0
C  C85  1  0.34259887  0.38049578  0.38261421  1  0  0.013748  0  3.745933  0  0  0.040974  0  3.982644  0  0  0.034815  0  4.009  0  -0.057349  0  -0.010321  0.044859  0  3.964957  0
C  C86  1  0.68540516  0.40958058  0.06364959  1  0  -0.058849  0  3.693848  0  0  -0.08506  0  3.939954  0  0  -0.082454  0  3.959044  0  -0.050632  0  -0.070431  -0.086605  0  3.9271  0
C  C87  1  0.68578964  0.93599007  0.34527751  1  0  -0.058181  0  3.694661  0  0  -0.084864  0  3.940581  0  0  -0.08232  0  3.959815  0  -0.111879  0  -0.070618  -0.086375  0  3.927636  0
C  C88  1  0.68585702  0.65412221  0.59035654  1  0  -0.058484  0  3.693451  0  0  -0.08489  0  3.939652  0  0  -0.082283  0  3.958748  0  -0.057423  0  -0.070688  -0.086458  0  3.926823  0
C  C89  1  0.18540197  0.59042045  0.93635812  1  0  -0.058682  0  3.693831  0  0  -0.084935  0  3.939948  0  0  -0.082326  0  3.959038  0  -0.050529  0  -0.070327  -0.086475  0  3.927091  0
C  C90  1  0.18579172  0.06400846  0.65472319  1  0  -0.058178  0  3.694648  0  0  -0.084846  0  3.940596  0  0  -0.08229  0  3.959829  0  -0.112173  0  -0.070672  -0.08636  0  3.927654  0
C  C91  1  0.18585382  0.34587882  0.40964110  1  0  -0.058581  0  3.693536  0  0  -0.084987  0  3.939735  0  0  -0.082382  0  3.958833  0  -0.057309  0  -0.070686  -0.086555  0  3.92691  0
C  C92  1  0.52552754  0.39564989  0.00879940  1  0  -0.114727  0  3.756253  0  0  -0.125569  0  4.007508  0  0  -0.132463  0  4.029679  0  -0.061581  0  -0.08645  -0.121157  0  3.992715  0
C  C93  1  0.52576932  0.99079023  0.38669990  1  0  -0.114709  0  3.755982  0  0  -0.12579  0  4.00719  0  0  -0.132683  0  4.029466  0  0.039826  0  -0.086413  -0.121353  0  3.99233  0
C  C94  1  0.52581292  0.61317001  0.60420213  1  0  -0.114932  0  3.75582  0  0  -0.12611  0  4.007176  0  0  -0.132984  0  4.02942  0  -0.017842  0  -0.086766  -0.121715  0  3.992331  0
C  C95  1  0.02552831  0.60434863  0.99120562  1  0  -0.114722  0  3.756154  0  0  -0.125581  0  4.007419  0  0  -0.132473  0  4.029588  0  -0.061327  0  -0.086438  -0.12117  0  3.99263  0
C  C96  1  0.02577009  0.00920746  0.61329822  1  0  -0.114817  0  3.756097  0  0  -0.125856  0  4.007263  0  0  -0.132766  0  4.029535  0  0.040177  0  -0.086437  -0.121419  0  3.992406  0
C  C97  1  0.02581369  0.38682852  0.39579281  1  0  -0.114969  0  3.755886  0  0  -0.126148  0  4.007242  0  0  -0.133021  0  4.029484  0  -0.018013  0  -0.08682  -0.121752  0  3.992396  0
C  C98  1  0.52664528  0.35917105  0.89530485  1  0  0.117645  0  3.712912  0  0  0.087088  0  3.967027  0  0  0.093587  0  3.984887  0  0.501111  0  0.039587  0.082832  0  3.955025  0
C  C99  1  0.52659904  0.10478517  0.46434149  1  0  0.117839  0  3.712319  0  0  0.087516  0  3.966203  0  0  0.093969  0  3.984117  0  0.442604  0  0.039285  0.083306  0  3.954163  0
C  C100  1  0.52657262  0.53602225  0.64078910  1  0  0.117511  0  3.711817  0  0  0.086739  0  3.96633  0  0  0.093245  0  3.984144  0  0.473616  0  0.039458  0.082489  0  3.95435  0
C  C101  1  0.02665794  0.64083416  0.10470711  1  0  0.117645  0  3.712721  0  0  0.087078  0  3.966902  0  0  0.093576  0  3.984754  0  0.501016  0  0.039511  0.082826  0  3.954907  0
C  C102  1  0.02660906  0.89521335  0.53565633  1  0  0.11792  0  3.712358  0  0  0.087605  0  3.966212  0  0  0.094044  0  3.98413  0  0.442543  0  0.039347  0.083396  0  3.954172  0
C  C103  1  0.02657206  0.46397711  0.35920626  1  0  0.117543  0  3.711723  0  0  0.086794  0  3.966236  0  0  0.093304  0  3.984042  0  0.473888  0  0.0395  0.082544  0  3.954258  0
N  N104  1  0.04653678  0.28608299  0.06129267  1  0  -0.413373  0  3.297792  0  0  -0.35492  0  3.54334  0  0  -0.377596  0  3.553184  0  -1.234665  0  -0.412567  -0.339406  0  3.536203  0
N  N105  1  0.04623555  0.93923248  0.22443812  1  0  -0.415441  0  3.297764  0  0  -0.355869  0  3.5431  0  0  -0.378528  0  3.552898  0  -1.234717  0  -0.412489  -0.34031  0  3.535921  0
N  N106  1  0.04720663  0.77508019  0.71480961  1  0  -0.415199  0  3.296706  0  0  -0.355536  0  3.542003  0  0  -0.378251  0  3.551813  0  -1.226617  0  -0.412543  -0.339952  0  3.534881  0
N  N107  1  0.54654130  0.71391720  0.93870527  1  0  -0.41331  0  3.29797  0  0  -0.354799  0  3.54352  0  0  -0.377462  0  3.553357  0  -1.234534  0  -0.412535  -0.339287  0  3.53638  0
N  N108  1  0.54623742  0.06076855  0.77556240  1  0  -0.415454  0  3.297808  0  0  -0.355852  0  3.543122  0  0  -0.378504  0  3.552904  0  -1.234734  0  -0.41248  -0.340295  0  3.535942  0
N  N109  1  0.54720851  0.22491917  0.28518791  1  0  -0.415277  0  3.296847  0  0  -0.355611  0  3.542083  0  0  -0.378346  0  3.55191  0  -1.227143  0  -0.41258  -0.34003  0  3.534962  0
N  N110  1  0.67732204  0.33827251  0.83670157  1  0  -0.30811  0  3.302212  0  0  -0.232236  0  3.587266  0  0  -0.248249  0  3.601631  0  -1.237719  0  -0.338809  -0.221579  0  3.577404  0
N  N111  1  0.67711329  0.16386984  0.50221775  1  0  -0.307836  0  3.298478  0  0  -0.232666  0  3.58376  0  0  -0.248635  0  3.598111  0  -1.216846  0  -0.338238  -0.222032  0  3.573895  0
N  N112  1  0.67708290  0.49821050  0.66186308  1  0  -0.307529  0  3.299921  0  0  -0.231792  0  3.584987  0  0  -0.247772  0  3.599348  0  -1.222672  0  -0.338365  -0.221147  0  3.575113  0
N  N113  1  0.17733866  0.66172936  0.16330153  1  0  -0.308033  0  3.30229  0  0  -0.232158  0  3.58736  0  0  -0.248157  0  3.601715  0  -1.237714  0  -0.33878  -0.221515  0  3.577507  0
N  N114  1  0.17711934  0.83612952  0.49778121  1  0  -0.307855  0  3.298556  0  0  -0.232713  0  3.583876  0  0  -0.248682  0  3.598234  0  -1.2168  0  -0.338273  -0.222077  0  3.574009  0
N  N115  1  0.17708895  0.50179053  0.33813528  1  0  -0.307541  0  3.299698  0  0  -0.231845  0  3.584812  0  0  -0.247824  0  3.599168  0  -1.222901  0  -0.338375  -0.2212  0  3.57494  0
N  N116  1  0.33484076  0.33349580  0.66721281  1  0  -0.556637  0  2.565056  0  0  -0.541275  0  2.847794  0  0  -0.555341  0  2.852561  0  -0.165399  0  -0.290454  -0.531438  0  2.844395  0
N  N117  1  0.83485716  0.66650356  0.33278543  1  0  -0.55686  0  2.564258  0  0  -0.541536  0  2.846986  0  0  -0.555624  0  2.851762  0  -0.165736  0  -0.290591  -0.531693  0  2.843586  0
N  N118  1  0.17777730  0.33349998  0.66716093  1  0  0.366018  0  4.354154  0  0  0.411286  0  4.628847  0  0  0.425197  0  4.659978  0  -0.491851  0  0.053261  0.402245  0  4.607423  0
N  N119  1  0.67775935  0.66650022  0.33283989  1  0  0.365868  0  4.354128  0  0  0.411169  0  4.628791  0  0  0.42508  0  4.65992  0  -0.492273  0  0.053263  0.40213  0  4.607358  0
N  N120  1  0.02088824  0.33350415  0.66710184  1  0  -0.545791  0  2.564084  0  0  -0.530065  0  2.840848  0  0  -0.543618  0  2.845668  0  -0.161334  0  -0.285748  -0.520575  0  2.83739  0
N  N121  1  0.52090201  0.66649688  0.33290011  1  0  -0.54539  0  2.564861  0  0  -0.529662  0  2.84164  0  0  -0.543193  0  2.846457  0  -0.160587  0  -0.285592  -0.520179  0  2.838173  0
O  O122  1  0.24327865  0.20665301  0.91572449  1  0  -0.572916  0  1.948662  0  0  -0.52788  0  2.173867  0  0  -0.54939  0  2.168338  0  -1.160365  0  -0.299851  -0.512854  0  2.177137  0
O  O123  1  0.24406609  0.08488861  0.29127482  1  0  -0.573396  0  1.945728  0  0  -0.528055  0  2.17108  0  0  -0.549486  0  2.165477  0  -1.168403  0  -0.300061  -0.513056  0  2.174339  0
O  O124  1  0.24289550  0.70722178  0.79323737  1  0  -0.57308  0  1.946901  0  0  -0.527681  0  2.172928  0  0  -0.549087  0  2.167233  0  -1.167003  0  -0.299835  -0.512666  0  2.176208  0
O  O125  1  0.74328449  0.79334886  0.08427572  1  0  -0.572884  0  1.94861  0  0  -0.527833  0  2.173812  0  0  -0.549344  0  2.168286  0  -1.160318  0  -0.299801  -0.512805  0  2.177082  0
O  O126  1  0.74406928  0.91510908  0.70872187  1  0  -0.573382  0  1.94552  0  0  -0.528116  0  2.170854  0  0  -0.549548  0  2.165256  0  -1.16806  0  -0.300063  -0.513115  0  2.174114  0
O  O127  1  0.74289341  0.29277925  0.20676098  1  0  -0.573008  0  1.946893  0  0  -0.52761  0  2.172893  0  0  -0.549027  0  2.167224  0  -1.166997  0  -0.299796  -0.51261  0  2.176197  0
