# generated using pymatgen
data_AlH9C21Br3NO6
_symmetry_space_group_name_H-M   'P 1'
_cell_length_a   4.12176815
_cell_length_b   23.39312575
_cell_length_c   23.39272287
_cell_angle_alpha   119.99894772
_cell_angle_beta   89.99861955
_cell_angle_gamma   90.00375271
_symmetry_Int_Tables_number   1
_chemical_formula_structural   AlH9C21Br3NO6
_chemical_formula_sum   'Al3 H27 C63 Br9 N3 O18'
_cell_volume   1953.38489676
_cell_formula_units_Z   3
loop_
 _symmetry_equiv_pos_site_id
 _symmetry_equiv_pos_as_xyz
  1  'x, y, z'
loop_
 _atom_site_type_symbol
 _atom_site_label
 _atom_site_symmetry_multiplicity
 _atom_site_fract_x
 _atom_site_fract_y
 _atom_site_fract_z
 _atom_site_occupancy
 _atom_site_pbe_bader_charge
 _atom_site_pbe_bader_spin_density
 _atom_site_pbe_cm5_charge
 _atom_site_pbe_ddec_charge
 _atom_site_pbe_ddec_spin_density
 _atom_site_pbe_ddec_sum_bond_order
 _atom_site_pbe_magmom
Al  Al0  1  0.98923872  0.00047490  0.50017714  1  2.512441  0  0.433777  1.63263  0  2.524926  0
Al  Al1  1  0.98911700  0.33314256  0.16695406  1  2.512618  0  0.43387  1.632658  0  2.524756  0
Al  Al2  1  0.98947209  0.66636630  0.83284760  1  2.512666  0  0.433794  1.632874  0  2.524538  0
H  H3  1  0.21224861  0.86829579  0.92150972  1  0.079196  0  0.112287  0.119632  0  0.969692  0
H  H4  1  0.19833883  0.97433845  0.92316930  1  0.081339  0  0.103641  0.113997  0  1.025405  0
H  H5  1  0.75271803  0.88746359  0.74269372  1  0.083461  0  0.102533  0.118162  0  1.039431  0
H  H6  1  0.75268294  0.02191192  0.94588546  1  0.084092  0  0.102455  0.118229  0  1.039338  0
H  H7  1  0.21199503  0.21984023  0.96500051  1  0.082121  0  0.11226  0.119489  0  0.969799  0
H  H8  1  0.19826325  0.11545751  0.85896213  1  0.078295  0  0.103705  0.113865  0  1.025626  0
H  H9  1  0.75270103  0.09062295  0.81141572  1  0.085143  0  0.102458  0.118104  0  1.039513  0
H  H10  1  0.21200368  0.91182315  0.61347105  1  0.074759  0  0.112393  0.119726  0  0.969789  0
H  H11  1  0.19822370  0.91015508  0.71785082  1  0.076791  0  0.103689  0.113899  0  1.025527  0
H  H12  1  0.77726681  0.41997667  0.36616568  1  0.09433  0  0.111905  0.120671  0  0.970682  0
H  H13  1  0.80110724  0.42259814  0.47269305  1  0.050519  0  0.103578  0.114076  0  1.024007  0
H  H14  1  0.24686925  0.24218373  0.38871500  1  0.079403  0  0.102676  0.11854  0  1.040609  0
H  H15  1  0.24689459  0.44463037  0.52015297  1  0.086231  0  0.10264  0.118578  0  1.04056  0
H  H16  1  0.77752496  0.46714467  0.72045285  1  0.107777  0  0.11193  0.120627  0  0.970766  0
H  H17  1  0.80119408  0.36062332  0.61654489  1  0.081619  0  0.103554  0.114009  0  1.024135  0
H  H18  1  0.24691783  0.31317623  0.59114758  1  0.081715  0  0.102711  0.118667  0  1.040578  0
H  H19  1  0.77736954  0.11287657  0.41335081  1  0.105955  0  0.111974  0.120751  0  0.970752  0
H  H20  1  0.80113037  0.21678438  0.41073597  1  0.082504  0  0.103506  0.113861  0  1.024148  0
H  H21  1  0.77601309  0.44677598  0.08061612  1  0.066848  0  0.113  0.121233  0  0.968644  0
H  H22  1  0.79361879  0.55057307  0.07788368  1  0.051151  0  0.103714  0.113835  0  1.02506  0
H  H23  1  0.24011454  0.64622710  0.25842869  1  0.100827  0  0.102768  0.11892  0  1.039451  0
H  H24  1  0.24016062  0.57491822  0.05446493  1  0.105557  0  0.102834  0.118919  0  1.039482  0
H  H25  1  0.77632021  0.75272872  0.03284881  1  0.074426  0  0.113105  0.121494  0  0.968898  0
H  H26  1  0.79380659  0.75544898  0.13937480  1  0.051991  0  0.103603  0.113459  0  1.025363  0
H  H27  1  0.24017160  0.77885632  0.18710365  1  0.104227  0  0.102747  0.118827  0  1.039519  0
H  H28  1  0.77613937  0.80049531  0.38655532  1  0.071232  0  0.112971  0.121211  0  0.96877  0
H  H29  1  0.79370432  0.69396975  0.28275327  1  0.051529  0  0.103681  0.113673  0  1.025244  0
C  C30  1  0.48768472  0.91418686  0.41131569  1  1.614678  0  0.277586  0.681425  0  4.062605  0
C  C31  1  0.49432452  0.99989012  0.58730041  1  1.612997  0  0.279138  0.684607  0  4.051395  0
C  C32  1  0.48796939  0.08888269  0.50260438  1  1.639659  0  0.278514  0.685936  0  4.047125  0
C  C33  1  0.49421985  0.24602496  0.07924354  1  1.616561  0  0.279083  0.684398  0  4.052019  0
C  C34  1  0.48758086  0.42201799  0.16955230  1  1.630041  0  0.277448  0.681067  0  4.062879  0
C  C35  1  0.48784336  0.33070797  0.25293208  1  1.637418  0  0.278579  0.685894  0  4.047526  0
C  C36  1  0.49458350  0.75407101  0.83342850  1  1.611198  0  0.279341  0.684707  0  4.052157  0
C  C37  1  0.48789514  0.66380295  0.91914160  1  1.631227  0  0.277602  0.681351  0  4.062464  0
C  C38  1  0.48817503  0.58038768  0.74444431  1  1.62956  0  0.278586  0.685952  0  4.047617  0
C  C39  1  0.33559210  0.87291447  0.88276546  1  -0.023497  0  -0.081245  -0.068157  0  3.976937  0
C  C40  1  0.32443753  0.93257671  0.88335649  1  0.009067  0  -0.098614  -0.18019  0  3.991859  0
C  C41  1  0.47748537  0.93931831  0.83331752  1  0.302617  0  0.093705  0.198211  0  4.00992  0
C  C42  1  0.63466128  0.88416098  0.78244996  1  0.050262  0  -0.105968  -0.24003  0  4.0031  0
C  C43  1  0.63414607  0.82416415  0.78135558  1  -0.106846  0  -0.013032  0.10006  0  3.986556  0
C  C44  1  0.49218569  0.81757279  0.83201812  1  0.006071  0  -0.021694  -0.099269  0  3.96725  0
C  C45  1  0.63456388  0.06495888  0.94917780  1  -0.000421  0  -0.105932  -0.240234  0  4.002961  0
C  C46  1  0.63394595  0.12386329  0.00917312  1  -0.088727  0  -0.012648  0.100619  0  3.986068  0
C  C47  1  0.49193412  0.18110422  0.01574886  1  0.026536  0  -0.021751  -0.099741  0  3.967536  0
C  C48  1  0.33537642  0.17649340  0.96039734  1  -0.045532  0  -0.081177  -0.067952  0  3.976754  0
C  C49  1  0.32432098  0.11741883  0.90073353  1  0.001263  0  -0.098742  -0.179873  0  3.991774  0
C  C50  1  0.47741795  0.06065172  0.89400465  1  0.354509  0  0.093612  0.198009  0  4.010083  0
C  C51  1  0.63458228  0.05087598  0.76836797  1  -0.006924  0  -0.105861  -0.239861  0  4.002819  0
C  C52  1  0.63400143  0.05196743  0.70946271  1  -0.109744  0  -0.0129  0.100224  0  3.986361  0
C  C53  1  0.49196956  0.00130622  0.65222009  1  0.058399  0  -0.021564  -0.099364  0  3.96719  0
C  C54  1  0.33537482  0.95056315  0.65682135  1  -0.044366  0  -0.081329  -0.068298  0  3.977044  0
C  C55  1  0.32430057  0.94997041  0.71589467  1  0.017967  0  -0.098813  -0.180114  0  3.99167  0
C  C56  1  0.47740016  0.00000688  0.77266762  1  0.337235  0  0.093649  0.19807  0  4.009738  0
C  C57  1  0.65739116  0.38132657  0.37148019  1  0.00448  0  -0.080155  -0.066876  0  3.971091  0
C  C58  1  0.67380779  0.38247262  0.43139428  1  0.026949  0  -0.098405  -0.1796  0  3.988932  0
C  C59  1  0.52371970  0.33271440  0.43904680  1  0.283362  0  0.094297  0.198478  0  4.009546  0
C  C60  1  0.36360310  0.28158727  0.38460315  1  0.090932  0  -0.106381  -0.240946  0  4.004566  0
C  C61  1  0.35892166  0.27993538  0.32436825  1  -0.115647  0  -0.013025  0.100577  0  3.986682  0
C  C62  1  0.49847309  0.33019353  0.31681589  1  -0.047004  0  -0.022075  -0.098915  0  3.967633  0
C  C63  1  0.36369202  0.44873610  0.56365619  1  0.024317  0  -0.106454  -0.24114  0  4.004472  0
C  C64  1  0.35914520  0.50896614  0.62224049  1  -0.098091  0  -0.012967  0.100624  0  3.986713  0
C  C65  1  0.49873596  0.51650155  0.68003735  1  -0.019323  0  -0.022081  -0.099058  0  3.967746  0
C  C66  1  0.65761461  0.46183942  0.67650336  1  -0.013356  0  -0.08022  -0.066491  0  3.971244  0
C  C67  1  0.67393071  0.40192979  0.61773297  1  -0.026191  0  -0.098304  -0.179842  0  3.989  0
C  C68  1  0.52377163  0.39428603  0.56032736  1  0.343863  0  0.094353  0.198727  0  4.008945  0
C  C69  1  0.36364886  0.26967548  0.55174944  1  0.036  0  -0.106538  -0.241226  0  4.004489  0
C  C70  1  0.35900686  0.21108675  0.55338658  1  -0.09276  0  -0.012944  0.100466  0  3.986695  0
C  C71  1  0.49857332  0.15329083  0.50312702  1  -0.040239  0  -0.022007  -0.098655  0  3.967249  0
C  C72  1  0.65750163  0.15682731  0.45199799  1  -0.031502  0  -0.080185  -0.066834  0  3.971135  0
C  C73  1  0.67385705  0.21559994  0.45086356  1  -0.003538  0  -0.098375  -0.179591  0  3.989139  0
C  C74  1  0.52375381  0.27300460  0.50062430  1  0.335368  0  0.094405  0.198728  0  4.008916  0
C  C75  1  0.65420180  0.49047381  0.11922809  1  -0.043218  0  -0.080462  -0.067887  0  3.974158  0
C  C76  1  0.66701991  0.54923279  0.11798673  1  0.045511  0  -0.098755  -0.180664  0  3.99097  0
C  C77  1  0.51485927  0.60641702  0.16761393  1  0.274011  0  0.094515  0.198878  0  4.006142  0
C  C78  1  0.35728959  0.60286601  0.21890712  1  -0.012884  0  -0.106543  -0.241166  0  4.000724  0
C  C79  1  0.35589134  0.54425730  0.22060275  1  -0.088956  0  -0.012522  0.101703  0  3.985253  0
C  C80  1  0.49670971  0.48661730  0.17031893  1  0.081997  0  -0.02182  -0.099262  0  3.968428  0
C  C81  1  0.35739911  0.61442901  0.05062372  1  -0.017673  0  -0.106588  -0.240922  0  4.000714  0
C  C82  1  0.35610085  0.61274082  0.99032526  1  -0.077362  0  -0.012481  0.101554  0  3.984842  0
C  C83  1  0.49697939  0.66303853  0.98298129  1  0.001629  0  -0.021826  -0.099263  0  3.967943  0
C  C84  1  0.65446001  0.71412115  0.03792498  1  0.013297  0  -0.080633  -0.068325  0  3.97511  0
C  C85  1  0.66720832  0.71535073  0.09791967  1  0.033118  0  -0.098627  -0.179914  0  3.990508  0
C  C86  1  0.51495128  0.66571626  0.10547235  1  0.287044  0  0.094441  0.198305  0  4.005627  0
C  C87  1  0.35735231  0.78269982  0.23046558  1  -0.001357  0  -0.106478  -0.240896  0  4.001018  0
C  C88  1  0.35600802  0.84299968  0.28907327  1  -0.081612  0  -0.012656  0.10156  0  3.985344  0
C  C89  1  0.49680212  0.85035277  0.34671988  1  0.070171  0  -0.021716  -0.099203  0  3.968352  0
C  C90  1  0.65428328  0.79540902  0.34286134  1  -0.037694  0  -0.080577  -0.068124  0  3.97472  0
C  C91  1  0.66708389  0.73541540  0.28410225  1  0.033341  0  -0.098666  -0.180206  0  3.990587  0
C  C92  1  0.51488442  0.72786007  0.22691342  1  0.279252  0  0.094447  0.198462  0  4.005844  0
Br  Br93  1  0.82351503  0.75031028  0.70715990  1  -0.039072  0  0.036519  -0.043453  0  1.57291  0
Br  Br94  1  0.82324114  0.12354966  0.08304766  1  -0.044336  0  0.036414  -0.043594  0  1.572804  0
Br  Br95  1  0.82340901  0.12615573  0.70978865  1  -0.045317  0  0.036431  -0.043565  0  1.572935  0
Br  Br96  1  0.16405972  0.20563402  0.25144993  1  -0.043198  0  0.035335  -0.044417  0  1.564624  0
Br  Br97  1  0.16443111  0.58190580  0.62088060  1  -0.049819  0  0.035374  -0.044391  0  1.56476  0
Br  Br98  1  0.16412740  0.21244624  0.62767719  1  -0.049805  0  0.035297  -0.044401  0  1.564697  0
Br  Br99  1  0.16373393  0.54523487  0.29501540  1  -0.048169  0  0.036348  -0.044886  0  1.471828  0
Br  Br100  1  0.16407510  0.53832872  0.91687564  1  -0.046956  0  0.036355  -0.044819  0  1.471878  0
Br  Br101  1  0.16401370  0.91644441  0.28809405  1  -0.047589  0  0.036393  -0.044819  0  1.471699  0
N  N102  1  0.47123426  0.99999096  0.83333247  1  -1.171707  0  -0.244434  -0.138478  0  3.603368  0
N  N103  1  0.53446627  0.33333436  0.49999566  1  -1.17278  0  -0.245687  -0.139822  0  3.605286  0
N  N104  1  0.52183062  0.66666140  0.16667138  1  -1.169975  0  -0.245339  -0.140143  0  3.597749  0
O  O105  1  0.72133864  0.07659909  0.53020309  1  -1.254992  0  -0.234109  -0.608398  0  2.43593  0
O  O106  1  0.72106175  0.95406312  0.42368147  1  -1.24583  0  -0.234159  -0.606512  0  2.419913  0
O  O107  1  0.72966724  0.96997577  0.54819066  1  -1.254021  0  -0.239198  -0.59627  0  2.319854  0
O  O108  1  0.24880498  0.05090935  0.47307807  1  -1.258889  0  -0.235131  -0.596511  0  2.352078  0
O  O109  1  0.25725679  0.02709322  0.57568832  1  -1.252237  0  -0.231528  -0.604783  0  2.441195  0
O  O110  1  0.24896592  0.92259663  0.44936223  1  -1.2538  0  -0.235886  -0.593697  0  2.329451  0
O  O111  1  0.24868719  0.36022832  0.24448565  1  -1.25499  0  -0.235069  -0.596339  0  2.352176  0
O  O112  1  0.25710282  0.25763190  0.11805130  1  -1.252197  0  -0.231407  -0.604671  0  2.441219  0
O  O113  1  0.24886043  0.38397213  0.13991298  1  -1.257731  0  -0.235806  -0.593625  0  2.329639  0
O  O114  1  0.72118254  0.30310260  0.21304278  1  -1.258399  0  -0.234139  -0.608395  0  2.435935  0
O  O115  1  0.72093312  0.40964514  0.19705730  1  -1.247201  0  -0.234242  -0.60637  0  2.419865  0
O  O116  1  0.72954513  0.28514599  0.08844375  1  -1.252225  0  -0.239324  -0.596166  0  2.31989  0
O  O117  1  0.24903166  0.58883386  0.78241768  1  -1.255962  0  -0.235244  -0.596728  0  2.352166  0
O  O118  1  0.25751742  0.71524871  0.80621828  1  -1.252014  0  -0.231516  -0.605094  0  2.442063  0
O  O119  1  0.24919754  0.69343847  0.91072792  1  -1.25379  0  -0.2358  -0.593413  0  2.329378  0
O  O120  1  0.72157389  0.62026660  0.75672193  1  -1.253253  0  -0.23403  -0.608176  0  2.436178  0
O  O121  1  0.72127558  0.63629275  0.87926999  1  -1.250755  0  -0.234352  -0.606726  0  2.419768  0
O  O122  1  0.72994746  0.74487579  0.86333867  1  -1.2512  0  -0.239391  -0.596457  0  2.32016  0
