# generated using pymatgen
data_MnH8C9O5
_symmetry_space_group_name_H-M   'P 1'
_cell_length_a   7.16407307
_cell_length_b   10.03448087
_cell_length_c   14.37176534
_cell_angle_alpha   103.91303524
_cell_angle_beta   89.99954357
_cell_angle_gamma   89.99976851
_symmetry_Int_Tables_number   1
_chemical_formula_structural   MnH8C9O5
_chemical_formula_sum   'Mn4 H32 C36 O20'
_cell_volume   1002.84305942
_cell_formula_units_Z   4
loop_
 _symmetry_equiv_pos_site_id
 _symmetry_equiv_pos_as_xyz
  1  'x, y, z'
loop_
 _atom_site_type_symbol
 _atom_site_label
 _atom_site_symmetry_multiplicity
 _atom_site_fract_x
 _atom_site_fract_y
 _atom_site_fract_z
 _atom_site_occupancy
 _atom_site_pbe_cm5_charge
 _atom_site_pbe_ddec_charge
 _atom_site_pbe_ddec_spin_density
 _atom_site_pbe_ddec_sum_bond_order
 _atom_site_pbe_magmom
Mn  Mn0  1  0.76888926  0.94689387  0.72957498  1  0.605846  1.030903  4.670224  2.280373  4.468
Mn  Mn1  1  0.26889236  0.05308958  0.77042283  1  0.60585  1.030874  4.67027  2.280398  4.468
Mn  Mn2  1  0.23111760  0.05310469  0.27042012  1  0.605854  1.030925  4.670227  2.280279  4.468
Mn  Mn3  1  0.73111450  0.94691720  0.22957429  1  0.605812  1.03081  4.670233  2.280499  4.468
H  H4  1  0.90802120  0.87605764  0.55663366  1  0.330579  0.409629  0.000493  0.864854  0.001
H  H5  1  0.40800716  0.12394987  0.94337096  1  0.330605  0.409623  0.000493  0.864897  0.001
H  H6  1  0.09198426  0.12394915  0.44336415  1  0.330603  0.409678  0.000493  0.864757  0.001
H  H7  1  0.59198713  0.87605906  0.05663347  1  0.33058  0.40959  0.000492  0.864925  0.001
H  H8  1  0.04848746  0.81492795  0.62155319  1  0.299646  0.392375  0.000747  0.949921  0.001
H  H9  1  0.54847788  0.18506677  0.87844732  1  0.299724  0.39253  0.000746  0.949715  0.001
H  H10  1  0.95151660  0.18507368  0.37844171  1  0.299638  0.39239  0.000747  0.949902  0.001
H  H11  1  0.45152199  0.81493603  0.12155751  1  0.299719  0.392536  0.000747  0.949704  0.001
H  H12  1  0.20064133  0.34583822  0.76169516  1  0.107105  0.109182  0.000304  1.034613  0.0
H  H13  1  0.70064532  0.65414670  0.73831220  1  0.107143  0.109244  0.000304  1.034502  0.0
H  H14  1  0.79935716  0.65415429  0.23830661  1  0.107147  0.109255  0.000303  1.034567  0.0
H  H15  1  0.29935735  0.34585193  0.26168778  1  0.107129  0.109224  0.000304  1.034551  0.0
H  H16  1  0.27385265  0.59123865  0.82711105  1  0.099167  0.105447  -4.6e-05  1.010579  0.0
H  H17  1  0.77385768  0.40874689  0.67289125  1  0.099199  0.105504  -4.6e-05  1.010577  0.0
H  H18  1  0.72614304  0.40875684  0.17288425  1  0.099166  0.105406  -4.7e-05  1.010567  0.0
H  H19  1  0.22614778  0.59124965  0.32710630  1  0.099219  0.105492  -4.6e-05  1.010647  0.0
H  H20  1  0.75316239  0.64598953  0.98181926  1  0.097925  0.105714  -0.000129  1.03183  0.0
H  H21  1  0.25318181  0.35400639  0.51818619  1  0.097928  0.105729  -0.000129  1.031829  0.0
H  H22  1  0.24683609  0.35401224  0.01818609  1  0.097938  0.105756  -0.000129  1.031852  0.0
H  H23  1  0.74681528  0.64599729  0.48180904  1  0.097909  0.10572  -0.000129  1.031775  0.0
H  H24  1  0.68104540  0.39965954  0.91855309  1  0.105212  0.103917  0.000112  1.003408  0.0
H  H25  1  0.18105823  0.60033359  0.58144941  1  0.105223  0.103941  0.000112  1.00344  0.0
H  H26  1  0.31895169  0.60034025  0.08145682  1  0.105184  0.103878  0.000112  1.003465  0.0
H  H27  1  0.81894444  0.39966809  0.41854897  1  0.105226  0.10394  0.000112  1.003434  0.0
H  H28  1  0.97603174  0.83016059  0.00946878  1  0.108049  0.139482  0.000373  0.995898  0.001
H  H29  1  0.47603762  0.16983266  0.49053325  1  0.108071  0.139543  0.000372  0.995846  0.001
H  H30  1  0.02397233  0.16984212  0.99052977  1  0.108051  0.13952  0.000373  0.995887  0.001
H  H31  1  0.52396644  0.83016491  0.50946447  1  0.108075  0.139603  0.000372  0.995822  0.001
H  H32  1  0.21075829  0.79542867  0.97494093  1  0.101228  0.123699  0.000565  0.99096  0.001
H  H33  1  0.71076266  0.20455196  0.52505596  1  0.101207  0.123658  0.000565  0.990982  0.001
H  H34  1  0.78924159  0.20456988  0.02505347  1  0.101204  0.123714  0.000565  0.990918  0.001
H  H35  1  0.28922466  0.79544454  0.47493811  1  0.101256  0.12372  0.000565  0.990948  0.001
C  C36  1  0.89724792  0.20792050  0.80087102  1  0.225857  0.586412  0.029968  4.14445  0.024
C  C37  1  0.39725778  0.79206758  0.69913190  1  0.22575  0.586017  0.029979  4.144804  0.024
C  C38  1  0.10275056  0.79207616  0.19913490  1  0.225721  0.586051  0.029979  4.144604  0.024
C  C39  1  0.60274210  0.20793411  0.30086718  1  0.225727  0.586063  0.029981  4.144915  0.024
C  C40  1  0.93671638  0.35560202  0.83692857  1  -0.026539  -0.079033  -0.001152  4.029551  -0.001
C  C41  1  0.43672765  0.64438590  0.66307625  1  -0.026371  -0.078751  -0.001154  4.029499  -0.001
C  C42  1  0.06328210  0.64439568  0.16307891  1  -0.026534  -0.078945  -0.001153  4.029662  -0.001
C  C43  1  0.56327642  0.35560960  0.33692044  1  -0.026383  -0.078812  -0.001154  4.029641  -0.001
C  C44  1  0.10302589  0.41127998  0.81039872  1  -0.077153  -0.075716  0.005805  3.956197  0.004
C  C45  1  0.60303662  0.58870838  0.68960401  1  -0.077232  -0.075895  0.005807  3.95605  0.004
C  C46  1  0.89697259  0.58871457  0.18960268  1  -0.077216  -0.07584  0.005807  3.956217  0.004
C  C47  1  0.39696745  0.41129024  0.31039596  1  -0.077249  -0.07586  0.005808  3.956168  0.004
C  C48  1  0.14281124  0.54956135  0.84659649  1  -0.090454  -0.139848  -0.000993  3.946098  -0.001
C  C49  1  0.64281914  0.45042888  0.65340639  1  -0.090524  -0.139873  -0.000994  3.946024  -0.001
C  C50  1  0.85718864  0.45043829  0.15340296  1  -0.090445  -0.139753  -0.000994  3.946022  -0.001
C  C51  1  0.35718353  0.54956769  0.34659325  1  -0.090525  -0.139837  -0.000995  3.946137  -0.001
C  C52  1  0.01795833  0.63575562  0.90848408  1  0.003594  0.165456  0.006694  3.955911  0.006
C  C53  1  0.51796213  0.36423928  0.59152005  1  0.003708  0.165521  0.006696  3.955891  0.006
C  C54  1  0.98204015  0.36423791  0.09151786  1  0.003699  0.165547  0.006697  3.955922  0.006
C  C55  1  0.48203356  0.63576447  0.40848005  1  0.003719  0.16548  0.006698  3.955985  0.006
C  C56  1  0.85030603  0.58054245  0.93273700  1  -0.088893  -0.140511  -0.000709  3.955205  -0.001
C  C57  1  0.35031452  0.41944793  0.56726925  1  -0.088916  -0.140612  -0.000709  3.955332  -0.001
C  C58  1  0.14969245  0.41945625  0.06726785  1  -0.088922  -0.140629  -0.000709  3.955393  -0.001
C  C59  1  0.64967977  0.58055064  0.43272724  1  -0.088799  -0.140432  -0.00071  3.955321  -0.001
C  C60  1  0.81039644  0.44192097  0.89792126  1  -0.076819  -0.06972  0.005478  3.972721  0.004
C  C61  1  0.31040499  0.55807162  0.60208412  1  -0.076877  -0.069706  0.00548  3.972708  0.004
C  C62  1  0.18960204  0.55807569  0.10208467  1  -0.076828  -0.069657  0.00548  3.97276  0.004
C  C63  1  0.68959349  0.44193104  0.39791163  1  -0.076955  -0.069834  0.005482  3.972841  0.004
C  C64  1  0.06665475  0.78414629  0.94835447  1  -0.161365  -0.360922  0.002988  3.926172  0.002
C  C65  1  0.56666142  0.21584016  0.55164672  1  -0.161428  -0.361004  0.002988  3.926117  0.002
C  C66  1  0.93334512  0.21585127  0.05164325  1  -0.161346  -0.360956  0.002988  3.92616  0.002
C  C67  1  0.43333147  0.78415747  0.44835519  1  -0.161484  -0.361143  0.002989  3.926059  0.002
C  C68  1  0.04370445  0.87342058  0.87693444  1  0.233666  0.675545  0.023268  4.092816  0.021
C  C69  1  0.54370628  0.12656596  0.62306615  1  0.233849  0.675892  0.023265  4.092639  0.021
C  C70  1  0.95629822  0.12657595  0.12306242  1  0.233637  0.675484  0.023273  4.092899  0.021
C  C71  1  0.45629639  0.87343879  0.37693273  1  0.233888  0.675913  0.023265  4.092408  0.021
O  O72  1  0.00977302  0.13101449  0.74136142  1  -0.310169  -0.592461  0.069224  2.366815  0.039
O  O73  1  0.50978525  0.86897021  0.75864249  1  -0.310209  -0.592393  0.069226  2.367103  0.039
O  O74  1  0.99021848  0.86898420  0.25864275  1  -0.310092  -0.592253  0.069214  2.366632  0.039
O  O75  1  0.49021603  0.13102944  0.24135765  1  -0.31016  -0.592351  0.06923  2.36712  0.039
O  O76  1  0.75031888  0.15295587  0.82676505  1  -0.297078  -0.568668  0.052009  2.335357  0.039
O  O77  1  0.25033024  0.84703187  0.67324048  1  -0.297015  -0.568514  0.052016  2.335436  0.039
O  O78  1  0.24968240  0.84703982  0.17324489  1  -0.297025  -0.568594  0.052016  2.335485  0.039
O  O79  1  0.74967383  0.15296977  0.32675511  1  -0.29701  -0.568511  0.052019  2.335374  0.039
O  O80  1  0.15895420  0.97201969  0.88287074  1  -0.323123  -0.604979  0.0412  2.308901  0.026
O  O81  1  0.65894971  0.02796529  0.61712844  1  -0.323267  -0.60523  0.041205  2.308793  0.026
O  O82  1  0.84104289  0.02797891  0.11712784  1  -0.323135  -0.605015  0.041209  2.308937  0.026
O  O83  1  0.34105436  0.97204357  0.38287110  1  -0.323346  -0.605279  0.041205  2.308744  0.026
O  O84  1  0.90908143  0.84545862  0.81781539  1  -0.311224  -0.5679  0.049312  2.317145  0.031
O  O85  1  0.40908399  0.15452936  0.68218468  1  -0.311275  -0.567986  0.049311  2.317162  0.031
O  O86  1  0.09091565  0.15454100  0.18218266  1  -0.311188  -0.567834  0.04931  2.317219  0.031
O  O87  1  0.59091868  0.84546924  0.31781320  1  -0.311252  -0.567994  0.049306  2.317097  0.031
O  O88  1  0.91393523  0.81885534  0.60261696  1  -0.555042  -0.747981  0.044233  2.070323  0.028
O  O89  1  0.41392579  0.18114697  0.89738401  1  -0.555163  -0.74814  0.044232  2.070192  0.028
O  O90  1  0.08606744  0.18115041  0.39737999  1  -0.555083  -0.748074  0.044231  2.070141  0.028
O  O91  1  0.58607269  0.81885780  0.10261626  1  -0.555117  -0.748085  0.04423  2.07019  0.028
