# generated using pymatgen
data_CuH14C24N5O4
_symmetry_space_group_name_H-M   'P 1'
_cell_length_a   9.54260297
_cell_length_b   10.80818787
_cell_length_c   11.65025419
_cell_angle_alpha   111.05234311
_cell_angle_beta   91.41424368
_cell_angle_gamma   107.09315470
_symmetry_Int_Tables_number   1
_chemical_formula_structural   CuH14C24N5O4
_chemical_formula_sum   'Cu2 H28 C48 N10 O8'
_cell_volume   1060.35999636
_cell_formula_units_Z   2
loop_
 _symmetry_equiv_pos_site_id
 _symmetry_equiv_pos_as_xyz
  1  'x, y, z'
loop_
 _atom_site_type_symbol
 _atom_site_label
 _atom_site_symmetry_multiplicity
 _atom_site_fract_x
 _atom_site_fract_y
 _atom_site_fract_z
 _atom_site_occupancy
 _atom_site_hle17_ddec_charge
 _atom_site_hle17_ddec_spin_density
 _atom_site_hle17_ddec_sum_bond_order
 _atom_site_hle17_magmom
 _atom_site_hse06_10hf_ddec_charge
 _atom_site_hse06_10hf_ddec_spin_density
 _atom_site_hse06_10hf_ddec_sum_bond_order
 _atom_site_hse06_10hf_magmom
 _atom_site_hse06_ddec_charge
 _atom_site_hse06_ddec_spin_density
 _atom_site_hse06_ddec_sum_bond_order
 _atom_site_hse06_magmom
 _atom_site_pbe_cm5_charge
 _atom_site_pbe_ddec_charge
 _atom_site_pbe_ddec_spin_density
 _atom_site_pbe_ddec_sum_bond_order
 _atom_site_pbe_magmom
Cu  Cu0  1  0.80031837  0.25403510  0.21988261  1  0.807484  0.743749  1.977523  0.518  0.775492  0.818525  2.387803  0.626  0.855916  0.896966  2.322841  0.715  0.783986  0.73131  0.760836  2.430962  0.567
Cu  Cu1  1  0.19968772  0.74596860  0.78012424  1  0.807606  -0.743769  1.977415  -0.518  0.775733  -0.818554  2.387721  -0.626  0.856134  -0.896984  2.322755  -0.715  0.784015  0.731441  -0.760848  2.430961  -0.567
H  H2  1  0.46610666  0.10666735  0.09061035  1  0.115137  0.001823  0.948486  0.003  0.117799  0.001441  1.013088  0.002  0.120662  0.00095  1.010891  0.002  0.128313  0.115325  0.001771  1.01479  0.003
H  H3  1  0.53389134  0.89334605  0.90940175  1  0.115109  -0.001829  0.948438  -0.003  0.117735  -0.001441  1.01309  -0.002  0.120568  -0.00095  1.01094  -0.002  0.128298  0.115265  -0.001771  1.014781  -0.003
H  H4  1  0.26515312  0.90127441  0.09620326  1  0.121389  0.000796  0.953338  0.001  0.12221  0.000652  1.017881  0.001  0.127137  0.000389  1.013374  0.001  0.124401  0.11814  0.000829  1.022068  0.001
H  H5  1  0.73484089  0.09872441  0.90378550  1  0.121399  -0.00079  0.953381  -0.001  0.122244  -0.000653  1.01791  -0.001  0.127166  -0.00039  1.013403  -0.001  0.124452  0.118176  -0.000829  1.022087  -0.001
H  H6  1  0.52701752  0.89139247  0.38277560  1  0.091698  0.001026  0.922746  0.001  0.100443  0.000903  0.983397  0.001  0.102939  0.000564  0.982075  0.001  0.120576  0.09865  0.001116  0.984618  0.001
H  H7  1  0.47297867  0.10859483  0.61721152  1  0.091652  -0.001035  0.922886  -0.001  0.100454  -0.000902  0.983483  -0.001  0.102947  -0.000563  0.982162  -0.001  0.120559  0.098664  -0.001116  0.984701  -0.001
H  H8  1  0.74170071  0.00882558  0.51420319  1  0.108056  0.000712  0.960596  0.001  0.118737  0.000617  1.021685  0.001  0.121969  0.000442  1.020306  0.001  0.111048  0.116441  0.000755  1.022837  0.001
H  H9  1  0.25830410  0.99116213  0.48577396  1  0.108102  -0.000711  0.960562  -0.001  0.118775  -0.000618  1.021673  -0.001  0.122007  -0.000442  1.020291  -0.001  0.111057  0.11647  -0.000755  1.022826  -0.001
H  H10  1  0.15951105  0.34158929  0.58283306  1  0.133114  0.000707  0.97275  0.001  0.143353  0.000591  1.032187  0.001  0.147102  0.000422  1.030344  0.001  0.114316  0.140264  0.000733  1.034363  0.001
H  H11  1  0.84048159  0.65839136  0.41716487  1  0.133194  -0.000705  0.972635  -0.001  0.143447  -0.00059  1.03206  -0.001  0.14719  -0.000421  1.03023  -0.001  0.114328  0.140353  -0.000733  1.034246  -0.001
H  H12  1  0.27992190  0.51131810  0.51812662  1  0.11681  0.000855  0.932355  0.001  0.122341  0.00081  0.996405  0.001  0.126132  0.000536  0.992728  0.001  0.125185  0.119271  0.001049  0.999724  0.001
H  H13  1  0.72008990  0.48869543  0.48187127  1  0.116848  -0.000867  0.932295  -0.001  0.122258  -0.000809  0.996485  -0.001  0.126045  -0.000535  0.992814  -0.001  0.12515  0.119188  -0.001049  0.999798  -0.001
H  H14  1  0.24870657  0.68856507  0.25929214  1  0.08419  0.000559  0.988796  0.001  0.082155  0.000486  1.064638  0.001  0.0864  0.000312  1.06111  0.0  0.114666  0.079449  0.000733  1.066891  0.001
H  H15  1  0.75131201  0.31144372  0.74069593  1  0.084099  -0.00055  0.988874  -0.001  0.082032  -0.000486  1.064774  -0.001  0.086264  -0.000312  1.061249  0.0  0.114607  0.079333  -0.000733  1.06704  -0.001
H  H16  1  0.00065822  0.50014196  0.15566193  1  0.107237  0.00147  0.90121  0.002  0.118509  0.001276  0.951913  0.002  0.121193  0.000878  0.950366  0.001  0.134702  0.116221  0.001648  0.953522  0.002
H  H17  1  0.99936990  0.49985833  0.84432472  1  0.107354  -0.001481  0.901232  -0.002  0.118583  -0.001275  0.951958  -0.002  0.121267  -0.000878  0.950416  -0.001  0.134743  0.116297  -0.001648  0.953569  -0.002
H  H18  1  0.81566432  0.95406353  0.63555821  1  0.080932  8.2e-05  0.964277  0.0  0.095826  5.3e-05  1.018597  0.0  0.098119  3.6e-05  1.018076  0.0  0.097408  0.094198  6.9e-05  1.019387  0.0
H  H19  1  0.18434152  0.04593328  0.36443543  1  0.080935  -9e-05  0.964084  0.0  0.095837  -5.2e-05  1.018422  0.0  0.09813  -3.5e-05  1.017901  0.0  0.097412  0.094215  -6.9e-05  1.019213  0.0
H  H20  1  0.90747107  0.89391416  0.80011948  1  0.114667  -1e-06  0.949315  0.0  0.121777  1.5e-05  1.011522  0.0  0.125789  1.2e-05  1.009022  0.0  0.104981  0.118673  2.1e-05  1.013813  0.0
H  H21  1  0.09251484  0.10609156  0.19988057  1  0.114701  1.3e-05  0.949062  0.0  0.121742  -1.5e-05  1.01136  0.0  0.125756  -1.3e-05  1.008862  0.0  0.104977  0.118639  -2.1e-05  1.013655  0.0
H  H22  1  0.30177139  0.24999223  0.89569496  1  0.096033  -3.2e-05  0.983586  0.0  0.102899  3e-06  1.051228  0.0  0.105281  4e-06  1.052089  0.0  0.097758  0.101119  2e-06  1.050474  0.0
H  H23  1  0.69820428  0.75000285  0.10431713  1  0.095941  3.2e-05  0.983477  0.0  0.102821  -2e-06  1.051135  0.0  0.105204  -3e-06  1.051993  0.0  0.097748  0.101039  -2e-06  1.050383  0.0
H  H24  1  0.21759845  0.30923781  0.72639542  1  0.092372  7.5e-05  1.006735  0.0  0.102808  3.1e-05  1.07003  0.0  0.105445  1.6e-05  1.069112  0.0  0.096474  0.100827  4.1e-05  1.070713  0.0
H  H25  1  0.78240310  0.69076218  0.27361881  1  0.09239  -6.9e-05  1.006762  0.0  0.102871  -3.1e-05  1.070013  0.0  0.105511  -1.6e-05  1.06909  0.0  0.096477  0.10089  -4.1e-05  1.070699  0.0
H  H26  1  0.46581537  0.56677286  0.22241644  1  0.095191  -0.0  0.967165  0.0  0.101606  -4e-06  1.034178  0.0  0.104614  -0.0  1.032596  0.0  0.097786  0.09986  -1.4e-05  1.03481  0.0
H  H27  1  0.53418312  0.43320920  0.77757004  1  0.095141  1.3e-05  0.967127  0.0  0.101599  3e-06  1.034116  0.0  0.104606  -0.0  1.032538  0.0  0.097757  0.099841  1.4e-05  1.034761  0.0
H  H28  1  0.66444836  0.35861198  0.91825334  1  0.09034  0.000244  0.986908  0.0  0.096723  0.000171  1.055709  0.0  0.099738  0.000107  1.054031  0.0  0.096733  0.094916  0.000213  1.056348  0.0
H  H29  1  0.33554995  0.64137551  0.08173818  1  0.090434  -0.000241  0.986786  0.0  0.096842  -0.00017  1.055553  0.0  0.099852  -0.000107  1.053883  0.0  0.096775  0.095037  -0.000213  1.056183  0.0
C  C30  1  0.48191920  0.05759928  0.15456562  1  0.117906  -0.00779  3.601155  -0.008  0.090419  -0.001453  3.855544  -0.003  0.09862  -0.002564  3.867858  -0.004  0.074834  0.085748  -0.000554  3.847406  -0.002
C  C31  1  0.51807846  0.94241606  0.84544361  1  0.118071  0.007801  3.601083  0.008  0.090654  0.001458  3.855472  0.003  0.098856  0.002567  3.86776  0.004  0.075025  0.085982  0.000555  3.847328  0.002
C  C32  1  0.36875167  0.94365433  0.16015488  1  0.103657  0.008987  3.598301  0.01  0.078214  0.004116  3.857729  0.005  0.08254  0.003344  3.866374  0.004  0.07058  0.074428  0.004709  3.853653  0.006
C  C33  1  0.63124422  0.05634980  0.83983723  1  0.103402  -0.008996  3.598518  -0.01  0.077889  -0.004115  3.858009  -0.005  0.082226  -0.003343  3.866644  -0.004  0.070303  0.074103  -0.004708  3.853918  -0.006
C  C34  1  0.51436265  0.94088840  0.31795385  1  0.042018  0.00595  3.685057  0.006  0.01347  0.002519  3.940838  0.002  0.013989  0.002253  3.959056  0.002  0.056003  0.011754  0.002835  3.929533  0.003
C  C35  1  0.48563939  0.05910952  0.68204001  1  0.041803  -0.005917  3.685017  -0.006  0.013196  -0.002515  3.94089  -0.002  0.013718  -0.00225  3.959106  -0.002  0.05594  0.011479  -0.002835  3.929592  -0.003
C  C36  1  0.62840020  0.05468815  0.31455809  1  0.121589  -0.00118  3.753553  -0.001  0.120062  0.001939  3.998761  0.002  0.122596  0.000597  4.020552  0.0  0.120802  0.118345  0.002839  3.985095  0.003
C  C37  1  0.37160206  0.94531647  0.68544550  1  0.121628  0.001164  3.753425  0.001  0.120034  -0.001942  3.998717  -0.002  0.122556  -0.0006  4.02051  0.0  0.120731  0.118312  -0.002839  3.98506  -0.003
C  C38  1  0.77271364  0.12214252  0.39427569  1  0.202267  -0.002575  3.812721  -0.004  0.196291  0.000479  4.062536  -0.001  0.208881  -0.000498  4.079712  -0.002  0.12422  0.187937  0.001168  4.051555  0.0
C  C39  1  0.22728775  0.87785663  0.60572196  1  0.202303  0.002604  3.812649  0.004  0.196409  -0.000476  4.062394  0.001  0.208994  0.000501  4.07957  0.002  0.124228  0.188052  -0.001167  4.051414  0.0
C  C40  1  0.81759813  0.09130266  0.49211836  1  -0.164705  0.005093  3.646717  0.005  -0.194833  0.002817  3.899752  0.003  -0.203729  0.002538  3.917974  0.003  -0.070159  -0.189063  0.003023  3.887349  0.003
C  C41  1  0.18241096  0.90869758  0.50788239  1  -0.164783  -0.005126  3.646627  -0.005  -0.194917  -0.002817  3.899642  -0.003  -0.203816  -0.002537  3.917864  -0.003  -0.070174  -0.189134  -0.003022  3.887225  -0.003
C  C42  1  0.95905797  0.16799396  0.56280949  1  0.123119  -0.005364  3.737336  -0.005  0.133514  -0.002348  3.97329  -0.002  0.143276  -0.002424  3.991577  -0.002  0.019451  0.127288  -0.002375  3.959707  -0.002
C  C43  1  0.04094727  0.83200436  0.43719316  1  0.123209  0.005372  3.737151  0.005  0.133616  0.002351  3.973158  0.002  0.143384  0.002427  3.991427  0.002  0.019485  0.12739  0.002376  3.959562  0.002
C  C44  1  0.05013574  0.27613665  0.53030464  1  -0.176789  0.005292  3.610669  0.005  -0.203339  0.002912  3.854873  0.003  -0.212281  0.002576  3.87359  0.003  -0.072256  -0.198104  0.003236  3.842689  0.003
C  C45  1  0.94985674  0.72386692  0.46969580  1  -0.176786  -0.005306  3.610552  -0.005  -0.203376  -0.002921  3.854794  -0.003  -0.212324  -0.002578  3.873523  -0.003  -0.072269  -0.198136  -0.003237  3.842611  -0.003
C  C46  1  0.99891417  0.30071958  0.43034941  1  0.19311  -0.002531  3.800877  -0.004  0.187013  0.000537  4.051982  -0.001  0.197733  -0.000401  4.071938  -0.002  0.120238  0.180381  0.001269  4.038675  0.0
C  C47  1  0.00108416  0.69928269  0.56964736  1  0.193043  0.002536  3.800982  0.004  0.186974  -0.000533  4.052092  0.001  0.197688  0.000402  4.072046  0.002  0.120243  0.180334  -0.001269  4.038794  0.0
C  C48  1  0.07837376  0.40735565  0.38326056  1  0.127361  -0.00234  3.715235  -0.002  0.127094  0.001299  3.959102  0.001  0.130353  0.000139  3.980019  0.0  0.12481  0.124598  0.002053  3.946327  0.002
C  C49  1  0.92162942  0.59265751  0.61674817  1  0.127435  0.002329  3.71521  0.002  0.127226  -0.001297  3.95901  -0.001  0.130486  -0.00014  3.979929  0.0  0.124916  0.124723  -0.002053  3.946253  -0.002
C  C50  1  0.21818833  0.50787089  0.43598357  1  0.060981  0.006152  3.626203  0.006  0.033872  0.002612  3.87865  0.002  0.035406  0.002442  3.892907  0.002  0.065319  0.031722  0.002811  3.87095  0.002
C  C51  1  0.78181604  0.49213660  0.56401576  1  0.060811  -0.00611  3.626281  -0.006  0.033772  -0.002613  3.878764  -0.002  0.035327  -0.002441  3.892984  -0.002  0.065193  0.031622  -0.002812  3.871073  -0.002
C  C52  1  0.20148922  0.60470562  0.29278754  1  0.073301  0.008255  3.681904  0.009  0.054318  0.00367  3.940464  0.004  0.055668  0.003199  3.955228  0.004  0.057256  0.052663  0.004056  3.931196  0.005
C  C53  1  0.79852526  0.39530366  0.70720916  1  0.073481  -0.00827  3.682122  -0.009  0.054446  -0.003669  3.940754  -0.004  0.055816  -0.003198  3.955504  -0.004  0.05726  0.052774  -0.004055  3.931509  -0.005
C  C54  1  0.06392601  0.50289749  0.23630531  1  0.10843  -0.00801  3.631672  -0.009  0.082481  -0.00177  3.882057  -0.003  0.089067  -0.002686  3.897479  -0.004  0.071844  0.07741  -0.000892  3.873085  -0.002
C  C55  1  0.93608127  0.49710049  0.76369128  1  0.108252  0.008039  3.632055  0.009  0.082407  0.001771  3.882426  0.003  0.088987  0.002686  3.897852  0.004  0.071898  0.077343  0.000891  3.87346  0.002
C  C56  1  0.00942032  0.13609615  0.66593002  1  0.017225  0.001247  3.791735  0.001  0.033704  0.000254  4.023404  0.0  0.029919  0.000411  4.048719  0.001  -0.019316  0.037324  0.000242  4.00463  0.0
C  C57  1  0.99057878  0.86390567  0.33407867  1  0.01735  -0.001261  3.791752  -0.001  0.033766  -0.000245  4.023523  0.0  0.029979  -0.00041  4.048836  -0.001  -0.0192  0.03739  -0.000242  4.00474  0.0
C  C58  1  0.92354853  0.02001945  0.69040114  1  -0.10149  -0.001874  3.743449  -0.002  -0.121972  -0.000661  3.995194  -0.001  -0.124353  -0.000741  4.017687  -0.001  -0.090459  -0.120294  -0.00052  3.980725  0.0
C  C59  1  0.07643767  0.97998140  0.30960521  1  -0.101503  0.001929  3.743401  0.002  -0.121973  0.000657  3.99516  0.001  -0.124357  0.000743  4.017662  0.001  -0.090418  -0.1203  0.00052  3.980698  0.0
C  C60  1  0.97488386  0.98419575  0.78251072  1  -0.064234  0.001204  3.712285  0.001  -0.087355  0.000321  3.964782  0.0  -0.0883  0.000441  3.983512  0.0  -0.084584  -0.088088  0.000261  3.95521  0.0
C  C61  1  0.02510747  0.01580188  0.21749480  1  -0.064178  -0.001264  3.712117  -0.001  -0.087246  -0.000325  3.964576  0.0  -0.088191  -0.000443  3.983302  0.0  -0.084585  -0.087982  -0.000261  3.955018  0.0
C  C62  1  0.11268039  0.06635945  0.85611290  1  -0.021444  -0.001476  3.700993  -0.001  -0.004204  -0.00077  3.935097  -0.001  -0.007393  -0.000882  3.953172  -0.001  -0.00843  -0.004307  -0.000568  3.925561  -0.001
C  C63  1  0.88729659  0.93364525  0.14390552  1  -0.02166  0.001492  3.701102  0.001  -0.004344  0.000779  3.935124  0.001  -0.007533  0.000883  3.953204  0.001  -0.008454  -0.004447  0.000569  3.925596  0.001
C  C64  1  0.19642929  0.18502865  0.83611232  1  -0.082604  0.001229  3.753593  0.001  -0.101966  0.000345  3.997489  0.0  -0.104187  0.000454  4.019328  0.001  -0.09006  -0.100343  0.000253  3.983319  0.0
C  C65  1  0.80355377  0.81496948  0.16390087  1  -0.08229  -0.001247  3.753142  -0.001  -0.101667  -0.000351  3.997  0.0  -0.103889  -0.000457  4.01884  -0.001  -0.090009  -0.100038  -0.000253  3.982824  0.0
C  C66  1  0.14733975  0.21829578  0.74125980  1  -0.118047  -0.001709  3.740863  -0.002  -0.136433  -0.000665  3.983804  -0.001  -0.139044  -0.000791  4.006654  -0.001  -0.096744  -0.134408  -0.000672  3.967568  -0.001
C  C67  1  0.85265219  0.78170968  0.25875752  1  -0.118282  0.001721  3.74095  0.002  -0.136711  0.000662  3.98394  0.001  -0.139326  0.000794  4.00679  0.001  -0.096834  -0.134685  0.000673  3.967697  0.001
C  C68  1  0.17379911  0.02984579  0.95566683  1  0.631182  0.000715  3.939798  0.001  0.586151  0.000466  4.240998  0.001  0.62062  0.000404  4.235125  0.001  0.193241  0.563253  0.000419  4.242417  0.0
C  C69  1  0.82619254  0.97014986  0.04434069  1  0.631035  -0.00072  3.939393  -0.001  0.585913  -0.000466  4.240744  -0.001  0.620373  -0.000407  4.23488  -0.001  0.193008  0.563005  -0.000419  4.24218  0.0
C  C70  1  0.65262042  0.41630398  0.16492705  1  0.622433  -0.003489  3.903459  -0.007  0.583309  0.000349  4.208219  -0.002  0.620167  3.1e-05  4.201631  -0.002  0.199535  0.558271  0.000704  4.211521  -0.002
C  C71  1  0.34737498  0.58367829  0.83506285  1  0.622682  0.003486  3.9033  0.007  0.583583  -0.000348  4.208101  0.002  0.620438  -3.6e-05  4.201505  0.002  0.199524  0.558546  -0.000705  4.211396  0.002
C  C72  1  0.47971613  0.53771019  0.12469925  1  -0.071895  -0.001167  3.724469  -0.001  -0.094538  0.000386  3.973211  0.001  -0.096388  3.1e-05  3.994707  0.0  -0.084623  -0.092929  0.000618  3.957952  0.001
C  C73  1  0.52028293  0.46227944  0.87529379  1  -0.071831  0.001113  3.724236  0.001  -0.094466  -0.000387  3.972954  -0.001  -0.096321  -3.1e-05  3.994458  0.0  -0.084528  -0.092849  -0.000618  3.957696  -0.001
C  C74  1  0.57340308  0.45838302  0.07894755  1  -0.041579  0.011286  3.720003  0.012  -0.017795  0.005086  3.944547  0.006  -0.023665  0.00358  3.965075  0.004  -0.012598  -0.014323  0.006313  3.931277  0.007
C  C75  1  0.42662927  0.54162949  0.92105658  1  -0.041514  -0.011262  3.719688  -0.012  -0.017843  -0.005091  3.944443  -0.006  -0.023694  -0.003585  3.964939  -0.004  -0.012562  -0.014374  -0.006317  3.931172  -0.007
C  C76  1  0.59279427  0.42136593  0.95351342  1  -0.083042  -0.003056  3.734008  -0.003  -0.106041  -0.000653  3.984354  -0.001  -0.106793  -0.000641  4.00486  -0.001  -0.088986  -0.105104  -0.000645  3.969683  -0.001
C  C77  1  0.40720313  0.57862508  0.04648600  1  -0.083256  0.003056  3.734018  0.003  -0.106247  0.000657  3.984446  0.001  -0.107005  0.000644  4.00496  0.001  -0.089008  -0.105313  0.000646  3.969776  0.001
N  N78  1  0.60994906  0.11133359  0.23053573  1  -0.267426  0.079213  3.273585  0.097  -0.230189  0.058355  3.558664  0.076  -0.254221  0.046328  3.577161  0.064  -0.315025  -0.215982  0.065947  3.547511  0.083
N  N79  1  0.39005149  0.88867215  0.76946901  1  -0.26757  -0.079196  3.273599  -0.097  -0.230339  -0.058342  3.558702  -0.076  -0.254341  -0.046321  3.57717  -0.064  -0.315124  -0.216112  -0.065936  3.547543  -0.083
N  N80  1  0.38542778  0.88567562  0.24154792  1  -0.248801  -0.003726  3.083812  -0.004  -0.209755  -0.001423  3.349288  -0.002  -0.216928  -0.002057  3.363229  -0.003  -0.289819  -0.205169  -0.001055  3.340859  -0.001
N  N81  1  0.61458402  0.11433786  0.75844910  1  -0.24833  0.003721  3.083434  0.004  -0.209237  0.001424  3.348874  0.002  -0.216405  0.002056  3.362809  0.003  -0.289536  -0.20466  0.001055  3.340445  0.001
N  N82  1  0.86337597  0.22404484  0.36487145  1  -0.376613  0.085684  3.414077  0.104  -0.343424  0.062697  3.718059  0.081  -0.37345  0.052078  3.735647  0.071  -0.36197  -0.325981  0.068138  3.707973  0.085
N  N83  1  0.13661491  0.77596323  0.63513544  1  -0.376678  -0.085687  3.41393  -0.104  -0.34355  -0.062692  3.717907  -0.081  -0.373556  -0.052078  3.735471  -0.071  -0.361995  -0.326076  -0.068138  3.707803  -0.085
N  N84  1  0.00251343  0.40645623  0.28244413  1  -0.263442  0.072688  3.273658  0.089  -0.22879  0.054622  3.568028  0.072  -0.250448  0.044044  3.583424  0.061  -0.314794  -0.216871  0.061241  3.560444  0.077
N  N85  1  0.99749316  0.59355465  0.71756143  1  -0.26345  -0.072716  3.273759  -0.089  -0.228914  -0.05463  3.568234  -0.072  -0.250579  -0.044051  3.583636  -0.061  -0.314862  -0.216963  -0.061248  3.560641  -0.077
N  N86  1  0.27878853  0.60713990  0.39180146  1  -0.241076  -0.005493  3.01527  -0.006  -0.214484  -0.00214  3.282172  -0.003  -0.218563  -0.002455  3.293654  -0.003  -0.301092  -0.212141  -0.00186  3.275453  -0.002
N  N87  1  0.72121415  0.39286880  0.60820077  1  -0.241065  0.005486  3.015253  0.006  -0.214424  0.002142  3.282112  0.003  -0.21851  0.002456  3.293587  0.003  -0.301014  -0.212067  0.001862  3.27539  0.002
O  O88  1  0.24881178  0.13003601  0.05209043  1  -0.609496  -0.000814  1.873559  -0.001  -0.563809  -0.000375  2.084432  -0.001  -0.591261  -0.000192  2.079271  0.0  -0.327554  -0.542582  5e-05  2.085627  0.0
O  O89  1  0.75116353  0.86995806  0.94792221  1  -0.609361  0.000817  1.873122  0.001  -0.563657  0.000373  2.084058  0.001  -0.591099  0.000193  2.078912  0.0  -0.327449  -0.542424  -5.1e-05  2.085246  0.0
O  O90  1  0.14521291  0.89867613  0.93461319  1  -0.660783  0.002747  1.992369  0.002  -0.619367  0.000543  2.25333  0.0  -0.653674  0.000509  2.243184  0.0  -0.350898  -0.593862  0.000404  2.258094  0.0
O  O91  1  0.85480273  0.10132183  0.06538533  1  -0.660749  -0.002739  1.992149  -0.002  -0.61931  -0.00054  2.253134  0.0  -0.653625  -0.000507  2.243023  0.0  -0.350839  -0.593824  -0.000404  2.257905  0.0
O  O92  1  0.71234260  0.32042807  0.10982486  1  -0.582065  0.104677  2.033481  0.133  -0.567062  0.05521  2.322976  0.077  -0.611433  0.039514  2.316837  0.058  -0.333866  -0.536577  0.066255  2.326258  0.089
O  O93  1  0.28764479  0.67954050  0.89015819  1  -0.582202  -0.104657  2.03346  -0.133  -0.567248  -0.055203  2.323014  -0.077  -0.611611  -0.039509  2.316851  -0.058  -0.333865  -0.536741  -0.066248  2.3263  -0.089
O  O94  1  0.65913070  0.47338981  0.28048869  1  -0.623779  0.000265  1.913299  0.002  -0.597264  -0.000788  2.146564  0.0  -0.621175  -0.001266  2.134632  -0.001  -0.333305  -0.579669  -8.3e-05  2.153813  0.001
O  O95  1  0.34088558  0.52660691  0.71950605  1  -0.623844  -0.000267  1.913421  -0.002  -0.597364  0.000786  2.146745  0.0  -0.621276  0.001269  2.13481  0.001  -0.333316  -0.579764  8.2e-05  2.153987  -0.001
