# generated using pymatgen
data_CuH5C5BrN
_symmetry_space_group_name_H-M   'P 1'
_cell_length_a   8.00384378
_cell_length_b   8.88655191
_cell_length_c   9.24465698
_cell_angle_alpha   117.80834244
_cell_angle_beta   90.55890632
_cell_angle_gamma   104.08067969
_symmetry_Int_Tables_number   1
_chemical_formula_structural   CuH5C5BrN
_chemical_formula_sum   'Cu4 H20 C20 Br4 N4'
_cell_volume   558.27686854
_cell_formula_units_Z   4
loop_
 _symmetry_equiv_pos_site_id
 _symmetry_equiv_pos_as_xyz
  1  'x, y, z'
loop_
 _atom_site_type_symbol
 _atom_site_label
 _atom_site_symmetry_multiplicity
 _atom_site_fract_x
 _atom_site_fract_y
 _atom_site_fract_z
 _atom_site_occupancy
 _atom_site_hle17_bader_spin_density
 _atom_site_hle17_ddec_charge
 _atom_site_hle17_ddec_spin_density
 _atom_site_hle17_ddec_sum_bond_order
 _atom_site_hle17_magmom
 _atom_site_hse06_10hf_bader_spin_density
 _atom_site_hse06_10hf_ddec_charge
 _atom_site_hse06_10hf_ddec_spin_density
 _atom_site_hse06_10hf_ddec_sum_bond_order
 _atom_site_hse06_10hf_magmom
 _atom_site_hse06_bader_spin_density
 _atom_site_hse06_ddec_charge
 _atom_site_hse06_ddec_spin_density
 _atom_site_hse06_ddec_sum_bond_order
 _atom_site_hse06_magmom
 _atom_site_pbe_bader_spin_density
 _atom_site_pbe_cm5_charge
 _atom_site_pbe_ddec_charge
 _atom_site_pbe_ddec_spin_density
 _atom_site_pbe_ddec_sum_bond_order
 _atom_site_pbe_magmom
Cu  Cu0  1  0.17849377  0.60021920  0.67700842  1  0  0.355879  0  1.956148  0  0  0.267083  0  2.418981  0  0  0.276206  0  2.366185  0  0  0.32137  0.263548  0  2.452615  0
Cu  Cu1  1  0.82151878  0.39978932  0.32299247  1  0  0.355901  0  1.956241  0  0  0.267116  0  2.41903  0  0  0.276226  0  2.366255  0  0  0.321425  0.263579  0  2.452671  0
Cu  Cu2  1  0.75879587  0.44313828  0.61526842  1  0  0.383996  0  1.928219  0  0  0.285953  0  2.400391  0  0  0.298014  0  2.344455  0  0  0.342138  0.279854  0  2.436347  0
Cu  Cu3  1  0.24120934  0.55686623  0.38473387  1  0  0.38399  0  1.928309  0  0  0.285957  0  2.400562  0  0  0.298064  0  2.344584  0  0  0.342143  0.279871  0  2.436495  0
H  H4  1  0.29629345  0.33635816  0.63389628  1  0  0.105632  0  0.994945  0  0  0.110085  0  1.068737  0  0  0.115047  0  1.064501  0  0  0.086001  0.106235  0  1.07216  0
H  H5  1  0.70370355  0.66364363  0.36610363  1  0  0.105661  0  0.994918  0  0  0.11009  0  1.068738  0  0  0.115037  0  1.064506  0  0  0.085998  0.106237  0  1.072171  0
H  H6  1  0.39328072  0.09468691  0.64269111  1  0  0.095396  0  0.957006  0  0  0.105211  0  1.020187  0  0  0.108007  0  1.019467  0  0  0.097039  0.103067  0  1.020978  0
H  H7  1  0.60672270  0.90532022  0.35731124  1  0  0.0954  0  0.957048  0  0  0.105217  0  1.020216  0  0  0.108021  0  1.019479  0  0  0.097083  0.103075  0  1.021002  0
H  H8  1  0.41373511  0.07926189  0.90261062  1  0  0.09438  0  0.954658  0  0  0.105243  0  1.015568  0  0  0.108078  0  1.01484  0  0  0.094914  0.103031  0  1.016415  0
H  H9  1  0.58626941  0.92073993  0.09738506  1  0  0.094409  0  0.95463  0  0  0.105264  0  1.015537  0  0  0.108099  0  1.014812  0  0  0.094927  0.103064  0  1.016372  0
H  H10  1  0.34248824  0.31068241  0.16020384  1  0  0.10222  0  0.988978  0  0  0.10658  0  1.065496  0  0  0.111962  0  1.060372  0  0  0.086972  0.102428  0  1.069565  0
H  H11  1  0.65751450  0.68931281  0.83979216  1  0  0.102197  0  0.988941  0  0  0.106566  0  1.065464  0  0  0.11195  0  1.060336  0  0  0.086958  0.102408  0  1.069536  0
H  H12  1  0.18126634  0.83174759  0.43758615  1  0  0.113178  0  0.999985  0  0  0.129594  0  1.070633  0  0  0.13374  0  1.066895  0  0  0.07759  0.126369  0  1.073502  0
H  H13  1  0.81872206  0.16825022  0.56241948  1  0  0.11313  0  0.999934  0  0  0.129542  0  1.070609  0  0  0.133672  0  1.066881  0  0  0.077578  0.12632  0  1.073477  0
H  H14  1  0.02917202  0.86646522  0.32285636  1  0  0.128583  0  0.947506  0  0  0.152009  0  1.003604  0  0  0.153305  0  1.005306  0  0  0.094232  0.15099  0  1.002535  0
H  H15  1  0.97082141  0.13353256  0.67714174  1  0  0.128575  0  0.94753  0  0  0.152027  0  1.003615  0  0  0.153323  0  1.005317  0  0  0.094249  0.151005  0  1.002548  0
H  H16  1  0.25099971  0.98474850  0.36041829  1  0  0.130029  0  0.959718  0  0  0.150188  0  1.020935  0  0  0.152541  0  1.021084  0  0  0.088017  0.148364  0  1.020954  0
H  H17  1  0.74899461  0.01524801  0.63958358  1  0  0.129971  0  0.959738  0  0  0.150217  0  1.020873  0  0  0.152572  0  1.021015  0  0  0.088024  0.148391  0  1.020893  0
H  H18  1  0.13859925  0.86699200  0.90982133  1  0  0.116299  0  0.998054  0  0  0.132218  0  1.068755  0  0  0.136477  0  1.065017  0  0  0.078049  0.128985  0  1.071557  0
H  H19  1  0.86141668  0.13301531  0.09018772  1  0  0.116307  0  0.99802  0  0  0.132243  0  1.068722  0  0  0.136505  0  1.064983  0  0  0.078068  0.129013  0  1.071521  0
H  H20  1  0.23513005  0.99897442  0.12221467  1  0  0.128614  0  0.954395  0  0  0.149429  0  1.014868  0  0  0.151429  0  1.01548  0  0  0.090297  0.147878  0  1.014498  0
H  H21  1  0.76487768  0.00102095  0.87779227  1  0  0.128611  0  0.95449  0  0  0.14942  0  1.014944  0  0  0.151415  0  1.015557  0  0  0.09031  0.147869  0  1.014572  0
H  H22  1  0.01163183  0.88594027  0.07146476  1  0  0.128592  0  0.949704  0  0  0.152202  0  1.005443  0  0  0.153343  0  1.007516  0  0  0.095194  0.151271  0  1.004151  0
H  H23  1  0.98837569  0.11406824  0.92854040  1  0  0.128615  0  0.949691  0  0  0.152201  0  1.00544  0  0  0.153342  0  1.007515  0  0  0.095203  0.151271  0  1.004143  0
C  C24  1  0.19382070  0.71123812  0.17850249  1  0  0.236032  0  3.645647  0  0  0.235185  0  3.896508  0  0  0.245095  0  3.908466  0  0  0.126928  0.228132  0  3.888891  0
C  C25  1  0.80616845  0.28875304  0.82149480  1  0  0.235926  0  3.645568  0  0  0.235106  0  3.896346  0  0  0.245016  0  3.908296  0  0  0.126873  0.228059  0  3.888722  0
C  C26  1  0.18095712  0.71960023  0.02825051  1  0  0.23537  0  3.638797  0  0  0.236098  0  3.890323  0  0  0.245801  0  3.90222  0  0  0.126138  0.229173  0  3.882867  0
C  C27  1  0.81903864  0.28039234  0.97175073  1  0  0.235545  0  3.638736  0  0  0.236183  0  3.890293  0  0  0.245893  0  3.902166  0  0  0.126125  0.229258  0  3.882831  0
C  C28  1  0.25826462  0.45686135  0.89022607  1  0  0.154396  0  3.765732  0  0  0.153317  0  4.004704  0  0  0.155216  0  4.02818  0  0  0.099711  0.151889  0  3.989388  0
C  C29  1  0.74173311  0.54313385  0.10977310  1  0  0.154401  0  3.765727  0  0  0.153389  0  4.00458  0  0  0.155283  0  4.028053  0  0  0.099734  0.151961  0  3.989263  0
C  C30  1  0.30255697  0.32684329  0.74709523  1  0  -0.136664  0  3.712029  0  0  -0.155988  0  3.965143  0  0  -0.159024  0  3.982592  0  0  -0.09364  -0.154189  0  3.954257  0
C  C31  1  0.69744308  0.67315589  0.25290464  1  0  -0.136646  0  3.711935  0  0  -0.155986  0  3.965032  0  0  -0.159005  0  3.982509  0  0  -0.093648  -0.154187  0  3.954145  0
C  C32  1  0.35699889  0.19345057  0.75270685  1  0  -0.041587  0  3.731498  0  0  -0.060653  0  3.988588  0  0  -0.061381  0  4.008377  0  0  -0.087282  -0.060413  0  3.975892  0
C  C33  1  0.64300061  0.80655125  0.24729419  1  0  -0.04167  0  3.731572  0  0  -0.060734  0  3.988664  0  0  -0.061459  0  4.008447  0  0  -0.087322  -0.060497  0  3.975978  0
C  C34  1  0.36972013  0.18535101  0.90107716  1  0  -0.04575  0  3.737815  0  0  -0.065257  0  3.994362  0  0  -0.066614  0  4.01525  0  0  -0.088863  -0.064602  0  3.980879  0
C  C35  1  0.63028653  0.81464955  0.09892340  1  0  -0.045782  0  3.738036  0  0  -0.065271  0  3.994564  0  0  -0.066633  0  4.015461  0  0  -0.088902  -0.064625  0  3.98108  0
C  C36  1  0.32892307  0.31197611  0.04311019  1  0  -0.136625  0  3.718804  0  0  -0.153475  0  3.967973  0  0  -0.157204  0  3.98723  0  0  -0.0923  -0.15106  0  3.95562  0
C  C37  1  0.67107071  0.68802301  0.95688958  1  0  -0.136527  0  3.718896  0  0  -0.153411  0  3.968104  0  0  -0.15714  0  3.98736  0  0  -0.092257  -0.15099  0  3.955754  0
C  C38  1  0.27252492  0.44931499  0.04039778  1  0  0.152615  0  3.770852  0  0  0.151745  0  4.005849  0  0  0.153408  0  4.030203  0  0  0.099487  0.150413  0  3.989892  0
C  C39  1  0.72746780  0.55068015  0.95960023  1  0  0.152564  0  3.770875  0  0  0.151628  0  4.005871  0  0  0.153294  0  4.030217  0  0  0.099476  0.150298  0  3.989914  0
C  C40  1  0.16225929  0.85595112  0.33349761  1  0  -0.368241  0  3.687585  0  0  -0.446895  0  3.916607  0  0  -0.452618  0  3.922021  0  0  -0.246962  -0.442543  0  3.913224  0
C  C41  1  0.83773271  0.14404142  0.66650465  1  0  -0.368113  0  3.687548  0  0  -0.446886  0  3.916504  0  0  -0.452603  0  3.921956  0  0  -0.246968  -0.442535  0  3.91312  0
C  C42  1  0.13931593  0.87567229  0.03196012  1  0  -0.367715  0  3.685423  0  0  -0.446297  0  3.914342  0  0  -0.451964  0  3.920113  0  0  -0.247212  -0.442028  0  3.910694  0
C  C43  1  0.86068982  0.12432962  0.96804427  1  0  -0.367788  0  3.685686  0  0  -0.446337  0  3.914579  0  0  -0.452001  0  3.920342  0  0  -0.247215  -0.442072  0  3.91093  0
Br  Br44  1  0.93703682  0.70492074  0.60900056  1  0  -0.447554  0  1.519034  0  0  -0.367035  0  1.917348  0  0  -0.386677  0  1.877593  0  0  -0.201633  -0.353531  0  1.943618  0
Br  Br45  1  0.06296965  0.29508381  0.39100392  1  0  -0.447527  0  1.519016  0  0  -0.366971  0  1.917269  0  0  -0.386637  0  1.877552  0  0  -0.201623  -0.353468  0  1.943537  0
Br  Br46  1  0.45634036  0.74923673  0.62457143  1  0  -0.47769  0  1.325933  0  0  -0.406985  0  1.702727  0  0  -0.428789  0  1.66849  0  0  -0.242299  -0.391409  0  1.725012  0
Br  Br47  1  0.54365966  0.25078988  0.37540593  1  0  -0.47769  0  1.325863  0  0  -0.406978  0  1.702599  0  0  -0.428773  0  1.668375  0  0  -0.242329  -0.391404  0  1.724898  0
N  N48  1  0.23443100  0.57629497  0.18365345  1  0  -0.323001  0  3.324483  0  0  -0.26062  0  3.618368  0  0  -0.267925  0  3.621331  0  0  -0.35546  -0.256438  0  3.616268  0
N  N49  1  0.76556171  0.42370019  0.81634564  1  0  -0.323024  0  3.324624  0  0  -0.260524  0  3.618322  0  0  -0.267819  0  3.621267  0  0  -0.355422  -0.256344  0  3.616222  0
N  N50  1  0.20633469  0.59188216  0.88524981  1  0  -0.316365  0  3.284582  0  0  -0.258983  0  3.579317  0  0  -0.265542  0  3.582328  0  0  -0.348439  -0.255466  0  3.577355  0
N  N51  1  0.79366500  0.40811570  0.11475056  1  0  -0.316454  0  3.284717  0  0  -0.259021  0  3.57937  0  0  -0.265577  0  3.582379  0  0  -0.348474  -0.255504  0  3.577405  0
