# generated using pymatgen
data_ZnH24C28N4O5
_symmetry_space_group_name_H-M   'P 1'
_cell_length_a   11.95963770
_cell_length_b   16.24511659
_cell_length_c   25.97208935
_cell_angle_alpha   75.71088939
_cell_angle_beta   86.40179518
_cell_angle_gamma   76.05509631
_symmetry_Int_Tables_number   1
_chemical_formula_structural   ZnH24C28N4O5
_chemical_formula_sum   'Zn6 H144 C168 N24 O30'
_cell_volume   4745.75148937
_cell_formula_units_Z   6
loop_
 _symmetry_equiv_pos_site_id
 _symmetry_equiv_pos_as_xyz
  1  'x, y, z'
loop_
 _atom_site_type_symbol
 _atom_site_label
 _atom_site_symmetry_multiplicity
 _atom_site_fract_x
 _atom_site_fract_y
 _atom_site_fract_z
 _atom_site_occupancy
 _atom_site_pbe_bader_charge
 _atom_site_pbe_bader_spin_density
 _atom_site_pbe_cm5_charge
 _atom_site_pbe_ddec_charge
 _atom_site_pbe_ddec_spin_density
 _atom_site_pbe_ddec_sum_bond_order
 _atom_site_pbe_magmom
Zn  Zn0  1  0.21535415  0.13315205  0.64872423  1  1.248044  0  0.689455  0.762192  0  2.3816  0
Zn  Zn1  1  0.78464763  0.86685127  0.35127857  1  1.248047  0  0.689475  0.762195  0  2.381595  0
Zn  Zn2  1  0.39034050  0.60464874  0.68292577  1  1.244201  0  0.686128  0.747056  0  2.444553  0
Zn  Zn3  1  0.60965964  0.39534829  0.31706952  1  1.244361  0  0.68616  0.747104  0  2.444631  0
Zn  Zn4  1  0.75352434  0.26070213  0.99641076  1  1.257767  0  0.683492  0.759485  0  2.340242  0
Zn  Zn5  1  0.24647946  0.73929992  0.00358870  1  1.257775  0  0.683488  0.759434  0  2.340339  0
H  H6  1  0.32087655  0.08750093  0.75603895  1  0.109404  0  0.112873  0.083136  0  1.015101  0
H  H7  1  0.67911246  0.91250002  0.24396609  1  0.109268  0  0.112912  0.083221  0  1.015092  0
H  H8  1  0.44249393  0.96009926  0.81562591  1  0.055148  0  0.100839  0.111103  0  1.053584  0
H  H9  1  0.55749964  0.03990033  0.18437767  1  0.055246  0  0.100825  0.111077  0  1.053714  0
H  H10  1  0.50396495  0.83792091  0.68135667  1  0.094446  0  0.108233  0.120825  0  1.037553  0
H  H11  1  0.49604256  0.16209211  0.31864068  1  0.094414  0  0.108186  0.120714  0  1.037471  0
H  H12  1  0.38369390  0.97284576  0.62805751  1  0.144587  0  0.120859  0.102613  0  0.999656  0
H  H13  1  0.61631326  0.02716851  0.37194198  1  0.144698  0  0.120965  0.102714  0  0.999734  0
H  H14  1  0.52789793  0.70556033  0.75136387  1  0.072692  0  0.108589  0.090855  0  0.986557  0
H  H15  1  0.47209571  0.29444516  0.24863576  1  0.072596  0  0.10861  0.090842  0  0.986577  0
H  H16  1  0.64651184  0.75368118  0.73032769  1  0.043866  0  0.114051  0.095345  0  0.965129  0
H  H17  1  0.35348877  0.24632029  0.26967194  1  0.043892  0  0.114055  0.095301  0  0.965175  0
H  H18  1  0.45916816  0.83736109  0.85663709  1  0.066598  0  0.114871  0.097357  0  1.005364  0
H  H19  1  0.54083837  0.16264020  0.14336510  1  0.066683  0  0.114865  0.097273  0  1.005405  0
H  H20  1  0.61031275  0.79876343  0.86218007  1  0.0341  0  0.105237  0.081391  0  0.962887  0
H  H21  1  0.38969429  0.20123597  0.13781891  1  0.033959  0  0.105224  0.081366  0  0.962887  0
H  H22  1  0.51025264  0.68904628  0.91251972  1  0.070169  0  0.116145  0.112826  0  0.979439  0
H  H23  1  0.48975369  0.31095569  0.08748083  1  0.070154  0  0.116113  0.112758  0  0.979486  0
H  H24  1  0.42836725  0.69572249  0.85679582  1  0.074393  0  0.103884  0.088373  0  1.019055  0
H  H25  1  0.57163098  0.30428157  0.14320620  1  0.074661  0  0.103891  0.088367  0  1.019073  0
H  H26  1  0.74489638  0.68514386  0.81551147  1  0.044375  0  0.106056  0.079727  0  0.959147  0
H  H27  1  0.25510468  0.31484985  0.18448737  1  0.044272  0  0.106043  0.079708  0  0.959153  0
H  H28  1  0.70509411  0.60667590  0.78759405  1  0.061978  0  0.120519  0.104931  0  0.963846  0
H  H29  1  0.29489558  0.39332258  0.21240441  1  0.062673  0  0.120574  0.104961  0  0.963875  0
H  H30  1  0.79820082  0.50868169  0.84615515  1  0.07969  0  0.104998  0.110764  0  1.038719  0
H  H31  1  0.20179496  0.49131599  0.15384480  1  0.07963  0  0.105003  0.110785  0  1.03877  0
H  H32  1  0.84029864  0.36186324  0.90412173  1  0.129724  0  0.113827  0.07852  0  1.054948  0
H  H33  1  0.15969475  0.63813705  0.09587983  1  0.129602  0  0.113835  0.078551  0  1.054936  0
H  H34  1  0.52625946  0.40464466  0.98173198  1  0.114224  0  0.119562  0.094412  0  0.992933  0
H  H35  1  0.47373691  0.59536008  0.01827038  1  0.114259  0  0.119582  0.094428  0  0.993001  0
H  H36  1  0.46915849  0.55812616  0.92877327  1  0.14463  0  0.108952  0.131385  0  1.054435  0
H  H37  1  0.53083906  0.44187730  0.07122693  1  0.144708  0  0.108863  0.131252  0  1.054473  0
H  H38  1  0.36138105  0.23669633  0.67680325  1  0.075877  0  0.115131  0.080791  0  0.991382  0
H  H39  1  0.63861263  0.76330593  0.32319647  1  0.075798  0  0.115114  0.080739  0  0.991321  0
H  H40  1  0.45427959  0.35401651  0.63440597  1  0.146482  0  0.107185  0.131972  0  1.067823  0
H  H41  1  0.54571902  0.64598307  0.36559284  1  0.146574  0  0.107186  0.131964  0  1.067815  0
H  H42  1  0.32047997  0.34420046  0.48395837  1  0.076401  0  0.100196  0.106294  0  1.070017  0
H  H43  1  0.67951022  0.65579927  0.51604182  1  0.076464  0  0.100194  0.106292  0  1.069969  0
H  H44  1  0.23431780  0.22719675  0.53425173  1  0.095731  0  0.1135  0.083736  0  1.031964  0
H  H45  1  0.76567204  0.77280426  0.46574983  1  0.09596  0  0.1135  0.083739  0  1.031901  0
H  H46  1  0.53765642  0.40643218  0.45842085  1  0.05682  0  0.10438  0.08144  0  0.992756  0
H  H47  1  0.46234570  0.59355763  0.54157776  1  0.056617  0  0.104358  0.081465  0  0.992705  0
H  H48  1  0.38586304  0.44013786  0.45123466  1  0.061509  0  0.115192  0.099469  0  0.984656  0
H  H49  1  0.61413615  0.55985656  0.54876297  1  0.061876  0  0.115211  0.099551  0  0.984626  0
H  H50  1  0.51648922  0.44779030  0.59594485  1  0.09745  0  0.119465  0.121331  0  1.004342  0
H  H51  1  0.48351742  0.55220137  0.40405335  1  0.097376  0  0.119499  0.121325  0  1.004402  0
H  H52  1  0.61983782  0.41124788  0.54893405  1  0.039004  0  0.100385  0.07444  0  0.966617  0
H  H53  1  0.38016610  0.58874455  0.45106104  1  0.039076  0  0.100375  0.074437  0  0.966605  0
H  H54  1  0.25178205  0.79451103  0.64604755  1  0.0842  0  0.117707  0.097796  0  1.002132  0
H  H55  1  0.74823409  0.20547961  0.35395862  1  0.084696  0  0.117675  0.097685  0  1.002242  0
H  H56  1  0.15124224  0.91117718  0.68831306  1  0.110696  0  0.104385  0.117592  0  1.061536  0
H  H57  1  0.84877413  0.08880956  0.31169407  1  0.110358  0  0.104375  0.117595  0  1.061453  0
H  H58  1  0.23961411  0.72509310  0.84077474  1  0.077791  0  0.103976  0.119446  0  1.071658  0
H  H59  1  0.76040040  0.27489433  0.15923195  1  0.07809  0  0.103988  0.119364  0  1.071651  0
H  H60  1  0.33366374  0.61770519  0.79098643  1  0.115822  0  0.114971  0.091061  0  1.015647  0
H  H61  1  0.66635516  0.38228151  0.20901985  1  0.115748  0  0.114845  0.090803  0  1.016212  0
H  H62  1  0.20515365  0.82127032  0.87067741  1  0.111183  0  0.115807  0.107494  0  1.008747  0
H  H63  1  0.79484560  0.17872386  0.12933142  1  0.111568  0  0.115856  0.107625  0  1.008653  0
H  H64  1  0.23402121  0.92618540  0.84719166  1  0.046144  0  0.097922  0.068676  0  1.006996  0
H  H65  1  0.76598463  0.07380615  0.15281275  1  0.046017  0  0.09792  0.068678  0  1.006997  0
H  H66  1  0.13800343  0.02471006  0.76107913  1  0.076503  0  0.103751  0.086989  0  1.013245  0
H  H67  1  0.86200837  0.97527501  0.23891951  1  0.076429  0  0.103712  0.087004  0  1.013343  0
H  H68  1  0.04495517  0.98286560  0.72937826  1  0.068957  0  0.117314  0.107005  0  0.983345  0
H  H69  1  0.95504894  0.01711691  0.27062636  1  0.068857  0  0.117314  0.107017  0  0.983342  0
H  H70  1  0.90373166  0.98745387  0.80088189  1  0.043762  0  0.100238  0.071416  0  0.966302  0
H  H71  1  0.09627264  0.01254943  0.19911929  1  0.043739  0  0.100245  0.071441  0  0.96624  0
H  H72  1  0.94411418  0.08986161  0.77973014  1  0.075152  0  0.120212  0.10741  0  0.968944  0
H  H73  1  0.05590519  0.91013562  0.22026766  1  0.074927  0  0.120163  0.107398  0  0.968871  0
H  H74  1  0.09891520  0.92401807  0.92005322  1  0.097819  0  0.111909  0.098808  0  1.040143  0
H  H75  1  0.90108622  0.07598655  0.07994940  1  0.098043  0  0.111902  0.098774  0  1.040191  0
H  H76  1  0.00354200  0.88340568  0.88805682  1  0.044314  0  0.103567  0.08158  0  0.961876  0
H  H77  1  0.99645877  0.11659827  0.11194784  1  0.044697  0  0.103537  0.081567  0  0.961874  0
H  H78  1  0.82767506  0.15485077  0.82328222  1  0.070008  0  0.108862  0.119683  0  1.018868  0
H  H79  1  0.17233440  0.84515512  0.17671343  1  0.070151  0  0.108901  0.119745  0  1.018915  0
H  H80  1  0.74298597  0.25712433  0.87751385  1  0.107723  0  0.11493  0.080749  0  1.019015  0
H  H81  1  0.25701324  0.74287918  0.12248205  1  0.107782  0  0.114945  0.080726  0  1.019031  0
H  H82  1  0.97665707  0.13115976  0.99915868  1  0.09041  0  0.118077  0.086626  0  0.992666  0
H  H83  1  0.02333463  0.86884057  0.00084215  1  0.090446  0  0.118088  0.086606  0  0.992732  0
H  H84  1  0.07244366  0.02064016  0.95155157  1  0.089069  0  0.107254  0.119961  0  1.035547  0
H  H85  1  0.92755436  0.97936462  0.04844727  1  0.089052  0  0.107273  0.119964  0  1.035636  0
H  H86  1  0.26451158  0.46985413  0.68833807  1  0.099168  0  0.117467  0.087166  0  0.999401  0
H  H87  1  0.73548671  0.53014355  0.31165949  1  0.099071  0  0.117472  0.087176  0  0.999382  0
H  H88  1  0.13292552  0.43253951  0.63482312  1  0.114357  0  0.10717  0.129258  0  1.063225  0
H  H89  1  0.86707420  0.56745293  0.36517556  1  0.11451  0  0.107231  0.129335  0  1.063173  0
H  H90  1  0.15423377  0.67011055  0.51540636  1  0.067636  0  0.105498  0.113615  0  1.039749  0
H  H91  1  0.84577108  0.32987541  0.48458811  1  0.067724  0  0.105456  0.113479  0  1.039768  0
H  H92  1  0.28835785  0.69437816  0.57478195  1  0.134678  0  0.116271  0.094865  0  1.019096  0
H  H93  1  0.71164304  0.30561309  0.42521071  1  0.134459  0  0.116307  0.094859  0  1.01895  0
H  H94  1  0.92529811  0.62661562  0.49332181  1  0.059679  0  0.102632  0.078054  0  1.005217  0
H  H95  1  0.07469139  0.37337436  0.50668138  1  0.059566  0  0.102611  0.078035  0  1.005157  0
H  H96  1  0.06659592  0.63436190  0.47113426  1  0.068388  0  0.119873  0.1069  0  0.975261  0
H  H97  1  0.93339082  0.36563208  0.52886611  1  0.068209  0  0.119927  0.106908  0  0.975273  0
H  H98  1  0.03239933  0.41371524  0.59113871  1  0.146421  0  0.118266  0.124173  0  1.028554  0
H  H99  1  0.96758267  0.58628075  0.40886342  1  0.146114  0  0.11827  0.124267  0  1.028456  0
H  H100  1  0.90482904  0.49246720  0.56605322  1  0.033727  0  0.102787  0.078875  0  0.968531  0
H  H101  1  0.09515830  0.50753069  0.43394501  1  0.033895  0  0.102773  0.07887  0  0.968534  0
H  H102  1  0.01773202  0.42298992  0.71453640  1  0.091537  0  0.103249  0.104406  0  1.011328  0
H  H103  1  0.98228127  0.57702034  0.28546312  1  0.091453  0  0.103177  0.104148  0  1.011303  0
H  H104  1  0.99691131  0.47938117  0.79720711  1  0.062183  0  0.104249  0.116924  0  0.998713  0
H  H105  1  0.00310106  0.52062328  0.20279252  1  0.062375  0  0.104253  0.116978  0  0.998595  0
H  H106  1  0.11397681  0.21670080  0.89086333  1  0.095708  0  0.103108  0.11821  0  1.005878  0
H  H107  1  0.88600171  0.78330177  0.10913677  1  0.096168  0  0.103145  0.11828  0  1.005874  0
H  H108  1  0.14009816  0.16160706  0.80742656  1  0.099158  0  0.098973  0.09825  0  1.022972  0
H  H109  1  0.85988824  0.83839732  0.19257152  1  0.099155  0  0.098966  0.098239  0  1.023179  0
H  H110  1  0.23204023  0.42094780  0.85897769  1  0.094197  0  0.105146  0.122002  0  1.011897  0
H  H111  1  0.76794715  0.57905916  0.14102037  1  0.094268  0  0.105077  0.121909  0  1.011866  0
H  H112  1  0.29971123  0.54221032  0.88096252  1  0.078925  0  0.102963  0.101942  0  1.020712  0
H  H113  1  0.70028600  0.45779122  0.11903720  1  0.07891  0  0.102931  0.101846  0  1.02081  0
H  H114  1  0.98219709  0.61545733  0.96280782  1  0.096554  0  0.105578  0.113376  0  0.997425  0
H  H115  1  0.01780041  0.38454937  0.03719229  1  0.096675  0  0.105619  0.113453  0  0.997318  0
H  H116  1  0.91480381  0.49144031  0.94298167  1  0.070672  0  0.104797  0.123109  0  1.009286  0
H  H117  1  0.08518719  0.50857178  0.05701514  1  0.06984  0  0.104774  0.123095  0  1.009328  0
H  H118  1  0.21366448  0.94765906  0.51122532  1  0.092826  0  0.106915  0.109568  0  0.993217  0
H  H119  1  0.78633083  0.05235871  0.48877362  1  0.092812  0  0.106896  0.109514  0  0.993317  0
H  H120  1  0.11780422  0.83909227  0.48955892  1  0.070072  0  0.108245  0.12299  0  0.982406  0
H  H121  1  0.88220300  0.16091872  0.51044298  1  0.070118  0  0.108249  0.122965  0  0.982465  0
H  H122  1  0.87433660  0.87276478  0.61644102  1  0.067176  0  0.100707  0.114852  0  1.016601  0
H  H123  1  0.12567215  0.12723453  0.38356063  1  0.067076  0  0.10075  0.114815  0  1.016549  0
H  H124  1  0.96616960  0.98457356  0.63524928  1  0.105384  0  0.101153  0.101308  0  1.005977  0
H  H125  1  0.03383211  0.01542386  0.36475669  1  0.105797  0  0.101176  0.101312  0  1.005893  0
H  H126  1  0.93251550  0.63954530  0.60673929  1  0.085271  0  0.103378  0.120185  0  1.016713  0
H  H127  1  0.06748695  0.36045862  0.39326494  1  0.085721  0  0.103394  0.120201  0  1.016742  0
H  H128  1  0.74585194  0.60123164  0.64357526  1  0.088782  0  0.104073  0.112463  0  1.000065  0
H  H129  1  0.25415185  0.39877354  0.35642912  1  0.08875  0  0.104061  0.11252  0  1.000207  0
H  H130  1  0.55708303  0.85336408  0.55933993  1  0.128717  0  0.110382  0.119748  0  0.980749  0
H  H131  1  0.44292276  0.14663991  0.44065764  1  0.128725  0  0.110357  0.119689  0  0.980755  0
H  H132  1  0.74232691  0.89243761  0.52239072  1  0.150685  0  0.110463  0.141476  0  1.017493  0
H  H133  1  0.25768213  0.10756367  0.47760947  1  0.150903  0  0.110479  0.141484  0  1.017547  0
H  H134  1  0.45954015  0.42460059  0.84103299  1  0.077139  0  0.100471  0.102081  0  1.017133  0
H  H135  1  0.54046314  0.57540026  0.15896280  1  0.076863  0  0.100524  0.102174  0  1.01703  0
H  H136  1  0.50881010  0.28888721  0.91619977  1  0.123111  0  0.10831  0.137031  0  1.017566  0
H  H137  1  0.49118375  0.71111446  0.08379695  1  0.122955  0  0.108334  0.137101  0  1.017477  0
H  H138  1  0.58494119  0.13059252  0.80223591  1  0.074785  0  0.103679  0.116598  0  0.995969  0
H  H139  1  0.41504128  0.86940479  0.19776408  1  0.074685  0  0.103624  0.116529  0  0.996026  0
H  H140  1  0.53964274  0.26620196  0.72774400  1  0.085113  0  0.104203  0.10768  0  1.00598  0
H  H141  1  0.46033977  0.73379214  0.27225492  1  0.085  0  0.104169  0.107718  0  1.005853  0
H  H142  1  0.69133869  0.97939941  0.95331666  1  0.102055  0  0.106317  0.124345  0  0.985014  0
H  H143  1  0.30866840  0.02059367  0.04667516  1  0.101978  0  0.106386  0.124485  0  0.984947  0
H  H144  1  0.60378162  0.84842834  0.98123936  1  0.097017  0  0.105961  0.110992  0  0.992587  0
H  H145  1  0.39622396  0.15156414  0.01875183  1  0.096994  0  0.105959  0.110943  0  0.992709  0
H  H146  1  0.28476374  0.00355602  0.90837794  1  0.054426  0  0.099756  0.101379  0  1.019213  0
H  H147  1  0.71523673  0.99644289  0.09162053  1  0.054431  0  0.099781  0.10147  0  1.019183  0
H  H148  1  0.37172396  0.13292935  0.87868166  1  0.074938  0  0.102804  0.118524  0  1.013383  0
H  H149  1  0.62827856  0.86706818  0.12131888  1  0.074914  0  0.102791  0.118499  0  1.01332  0
C  C150  1  0.36417255  0.03041080  0.74140241  1  0.460691  0  0.031208  0.093549  0  4.014665  0
C  C151  1  0.63582368  0.96959134  0.25860033  1  0.461038  0  0.03109  0.093341  0  4.01494  0
C  C152  1  0.43085468  0.95796306  0.77479751  1  0.000355  0  -0.110652  -0.259152  0  3.99263  0
C  C153  1  0.56914167  0.04204170  0.22520330  1  -0.000267  0  -0.110614  -0.259088  0  3.992799  0
C  C154  1  0.48166649  0.88306765  0.75524001  1  0.408903  0  0.117743  0.227902  0  4.064115  0
C  C155  1  0.51833776  0.11693885  0.24476263  1  0.409158  0  0.117716  0.227964  0  4.064126  0
C  C156  1  0.46746174  0.89122620  0.70024216  1  0.004327  0  -0.104672  -0.249557  0  3.969904  0
C  C157  1  0.53254792  0.10877894  0.29975821  1  0.004385  0  -0.104602  -0.249252  0  3.969923  0
C  C158  1  0.39948656  0.96666224  0.66993954  1  0.415027  0  0.042791  0.109638  0  3.970298  0
C  C159  1  0.60051999  0.03334816  0.33006015  1  0.41517  0  0.042623  0.10931  0  3.970682  0
C  C160  1  0.59359914  0.73274475  0.76507741  1  0.314689  0  -0.051729  -0.075623  0  3.912886  0
C  C161  1  0.40639841  0.26725873  0.23492202  1  0.314456  0  -0.051777  -0.075614  0  3.913014  0
C  C162  1  0.53266626  0.79037162  0.84519864  1  0.350529  0  -0.051379  -0.068559  0  3.907766  0
C  C163  1  0.46733706  0.20962910  0.15480257  1  0.350639  0  -0.051358  -0.06839  0  3.907669  0
C  C164  1  0.51286767  0.69960701  0.86904780  1  0.304221  0  -0.058043  -0.084939  0  3.885324  0
C  C165  1  0.48713481  0.30039375  0.13095305  1  0.303971  0  -0.057982  -0.084821  0  3.885278  0
C  C166  1  0.67099997  0.66182794  0.80587574  1  0.342686  0  -0.047406  -0.071366  0  3.927065  0
C  C167  1  0.32899527  0.33817173  0.19412278  1  0.342274  0  -0.047449  -0.071348  0  3.927176  0
C  C168  1  0.62954144  0.54929966  0.88231903  1  0.396744  0  0.12214  0.232858  0  4.057996  0
C  C169  1  0.37045767  0.45070114  0.11768306  1  0.396907  0  0.122086  0.232907  0  4.058177  0
C  C170  1  0.73353763  0.48958402  0.87492467  1  -0.071488  0  -0.107543  -0.251863  0  3.994361  0
C  C171  1  0.26645762  0.51041561  0.12507539  1  -0.071601  0  -0.107508  -0.251932  0  3.99452  0
C  C172  1  0.75761372  0.40647076  0.90726850  1  0.484579  0  0.033404  0.090821  0  4.010053  0
C  C173  1  0.24238402  0.59353200  0.09273411  1  0.484639  0  0.03335  0.090772  0  4.010163  0
C  C174  1  0.58373385  0.43171240  0.95154789  1  0.502035  0  0.044614  0.116174  0  3.964996  0
C  C175  1  0.41626540  0.56829097  0.04845497  1  0.50163  0  0.044604  0.116093  0  3.965057  0
C  C176  1  0.55286040  0.51711122  0.92203070  1  -0.064108  0  -0.104201  -0.258387  0  3.939017  0
C  C177  1  0.44713684  0.48289028  0.07797096  1  -0.063869  0  -0.10409  -0.258203  0  3.939023  0
C  C178  1  0.35468805  0.26263711  0.63383364  1  0.466387  0  0.038194  0.105415  0  3.991452  0
C  C179  1  0.64531225  0.73736241  0.36616667  1  0.466431  0  0.038221  0.105481  0  3.991244  0
C  C180  1  0.40777993  0.32880125  0.60937034  1  -0.054564  0  -0.105329  -0.254229  0  3.957725  0
C  C181  1  0.59222144  0.67119439  0.39062820  1  -0.054728  0  -0.105274  -0.254158  0  3.957584  0
C  C182  1  0.39764975  0.36334456  0.55354263  1  0.419617  0  0.121074  0.236558  0  4.019127  0
C  C183  1  0.60235210  0.63665238  0.44645571  1  0.419456  0  0.120956  0.236493  0  4.019095  0
C  C184  1  0.33221443  0.32470880  0.52673697  1  -0.024209  0  -0.105985  -0.247236  0  3.960057  0
C  C185  1  0.66778254  0.67528758  0.47326198  1  -0.024237  0  -0.105905  -0.247081  0  3.960204  0
C  C186  1  0.28267633  0.25827437  0.55473596  1  0.515534  0  0.042913  0.112684  0  3.978961  0
C  C187  1  0.71731861  0.74172333  0.44526400  1  0.51542  0  0.04286  0.112604  0  3.979092  0
C  C188  1  0.45943794  0.45056684  0.46969370  1  0.331379  0  -0.054154  -0.070928  0  3.904909  0
C  C189  1  0.54056648  0.54942683  0.53030350  1  0.330798  0  -0.054219  -0.071048  0  3.904906  0
C  C190  1  0.53483554  0.45478819  0.55343733  1  0.308774  0  -0.055124  -0.083098  0  3.901495  0
C  C191  1  0.46516888  0.54520547  0.44656026  1  0.30816  0  -0.055206  -0.083078  0  3.901702  0
C  C192  1  0.24442208  0.78173394  0.68918340  1  0.450096  0  0.042364  0.110789  0  3.971427  0
C  C193  1  0.75558804  0.21825421  0.31082447  1  0.44881  0  0.042351  0.110676  0  3.971438  0
C  C194  1  0.18809308  0.84714826  0.71342098  1  -0.02802  0  -0.107483  -0.253882  0  3.967963  0
C  C195  1  0.81191619  0.15283992  0.28658614  1  -0.027304  0  -0.107564  -0.253836  0  3.967752  0
C  C196  1  0.18496581  0.83098024  0.76954259  1  0.472955  0  0.11808  0.236312  0  4.042004  0
C  C197  1  0.81504399  0.16900598  0.23046479  1  0.475315  0  0.118199  0.236525  0  4.04155  0
C  C198  1  0.23900081  0.74530914  0.79763523  1  -0.014712  0  -0.110107  -0.256094  0  3.978932  0
C  C199  1  0.76100802  0.25467450  0.20237295  1  -0.016414  0  -0.110209  -0.256194  0  3.978805  0
C  C200  1  0.29226772  0.68406983  0.77008134  1  0.458903  0  0.033284  0.093214  0  4.00167  0
C  C201  1  0.70774606  0.31592028  0.22992190  1  0.459131  0  0.0335  0.093517  0  4.002006  0
C  C202  1  0.16750907  0.88839756  0.84954222  1  0.304678  0  -0.059758  -0.079621  0  3.921383  0
C  C203  1  0.83249269  0.11159662  0.15046422  1  0.304603  0  -0.059771  -0.079744  0  3.921305  0
C  C204  1  0.07658930  0.98208690  0.76820458  1  0.323655  0  -0.056444  -0.084091  0  3.89353  0
C  C205  1  0.92341712  0.01789947  0.23179903  1  0.323557  0  -0.056352  -0.084076  0  3.893473  0
C  C206  1  0.97444999  0.02097835  0.80017403  1  0.296024  0  -0.051113  -0.074006  0  3.917797  0
C  C207  1  0.02555977  0.97902030  0.19982730  1  0.296183  0  -0.051112  -0.074001  0  3.917453  0
C  C208  1  0.06606126  0.92540780  0.88152449  1  0.284107  0  -0.058593  -0.087119  0  3.929058  0
C  C209  1  0.93394274  0.07459351  0.11847892  1  0.283645  0  -0.058552  -0.086921  0  3.928811  0
C  C210  1  0.95866095  0.07487377  0.88206632  1  0.430735  0  0.120265  0.230308  0  4.050957  0
C  C211  1  0.04134551  0.92513086  0.11793114  1  0.430444  0  0.120263  0.230466  0  4.051023  0
C  C212  1  0.86552453  0.14583518  0.86184168  1  0.019046  0  -0.100712  -0.241522  0  3.970666  0
C  C213  1  0.13448276  0.85416947  0.13815383  1  0.019224  0  -0.100748  -0.241706  0  3.970893  0
C  C214  1  0.81713046  0.20408694  0.89238536  1  0.460344  0  0.045272  0.115991  0  3.983169  0
C  C215  1  0.18287297  0.79591648  0.10761122  1  0.460102  0  0.045252  0.116066  0  3.983262  0
C  C216  1  0.94554619  0.13301311  0.96019876  1  0.406608  0  0.039632  0.104544  0  4.005566  0
C  C217  1  0.05444996  0.86699240  0.03979810  1  0.406391  0  0.039549  0.104443  0  4.005355  0
C  C218  1  0.99877094  0.07082746  0.93317863  1  0.024691  0  -0.105164  -0.258146  0  3.983078  0
C  C219  1  0.00123149  0.92917657  0.06682058  1  0.025014  0  -0.105149  -0.258156  0  3.983243  0
C  C220  1  0.23814080  0.51221449  0.64941849  1  0.444903  0  0.039182  0.109884  0  3.990083  0
C  C221  1  0.76185970  0.48778123  0.35057737  1  0.44543  0  0.039176  0.109916  0  3.989661  0
C  C222  1  0.16323774  0.49196356  0.61895444  1  0.010438  0  -0.107194  -0.257406  0  3.967259  0
C  C223  1  0.83675769  0.50803540  0.38104648  1  0.010307  0  -0.107202  -0.257484  0  3.9671  0
C  C224  1  0.13015996  0.54710705  0.56808199  1  0.441932  0  0.121304  0.230146  0  4.053542  0
C  C225  1  0.86983152  0.45288489  0.43191816  1  0.442329  0  0.121279  0.23015  0  4.053919  0
C  C226  1  0.17717520  0.62200555  0.55265291  1  -0.014994  0  -0.108932  -0.257598  0  4.001919  0
C  C227  1  0.82282250  0.37798509  0.44734147  1  -0.014872  0  -0.10878  -0.257339  0  4.002427  0
C  C228  1  0.25157394  0.63705049  0.58591850  1  0.423511  0  0.034471  0.089196  0  4.001538  0
C  C229  1  0.74842062  0.36294859  0.41407781  1  0.423573  0  0.034359  0.089095  0  4.001924  0
C  C230  1  0.01228473  0.58833641  0.48654144  1  0.305351  0  -0.054391  -0.077546  0  3.914483  0
C  C231  1  0.98770423  0.41165553  0.51346108  1  0.305356  0  -0.054412  -0.077505  0  3.914095  0
C  C232  1  0.99333456  0.46118524  0.55558093  1  0.285233  0  -0.057678  -0.092682  0  3.900849  0
C  C233  1  0.00665470  0.53880868  0.44441976  1  0.285312  0  -0.057708  -0.092808  0  3.900915  0
C  C234  1  0.09719411  0.25740146  0.70570381  1  1.570528  0  0.193652  0.56281  0  4.255261  0
C  C235  1  0.90280581  0.74260253  0.29429971  1  1.570047  0  0.193722  0.562995  0  4.255234  0
C  C236  1  0.08092814  0.28916309  0.75594050  1  -0.056261  0  -0.030521  -0.05909  0  3.991452  0
C  C237  1  0.91906985  0.71084493  0.24405825  1  -0.054299  0  -0.030548  -0.059158  0  3.991296  0
C  C238  1  0.04000333  0.37856270  0.75330236  1  -0.017361  0  -0.084373  -0.067909  0  3.99241  0
C  C239  1  0.95999947  0.62144915  0.24669376  1  -0.022201  0  -0.084319  -0.067501  0  3.992302  0
C  C240  1  0.02754218  0.40979784  0.79911827  1  -0.006589  0  -0.104711  -0.210056  0  4.014947  0
C  C241  1  0.97245780  0.59021205  0.20088130  1  -0.001525  0  -0.104838  -0.210409  0  4.015309  0
C  C242  1  0.05464728  0.35045012  0.84828840  1  0.397783  0  0.084635  0.260784  0  4.048294  0
C  C243  1  0.94533962  0.64955550  0.15171217  1  0.397364  0  0.084717  0.260804  0  4.048606  0
C  C244  1  0.09487303  0.26113897  0.85187739  1  -0.063362  0  -0.105588  -0.203233  0  4.006385  0
C  C245  1  0.90511248  0.73886868  0.14812023  1  -0.063668  0  -0.105584  -0.203144  0  4.006302  0
C  C246  1  0.10839737  0.23103615  0.80560010  1  -0.027742  0  -0.089034  -0.076648  0  4.003937  0
C  C247  1  0.89158780  0.76897275  0.19440043  1  -0.029741  0  -0.089053  -0.076747  0  4.004096  0
C  C248  1  0.06967585  0.44982531  0.90026501  1  0.372395  0  0.084636  0.25933  0  4.048296  0
C  C249  1  0.93031556  0.55018221  0.09973284  1  0.371993  0  0.084709  0.25932  0  4.048023  0
C  C250  1  0.17728923  0.46410818  0.88131306  1  -0.054706  0  -0.105127  -0.210219  0  4.001532  0
C  C251  1  0.82270272  0.53589737  0.11868584  1  -0.054121  0  -0.105024  -0.209989  0  4.001221  0
C  C252  1  0.21427764  0.53206072  0.89324791  1  0.034141  0  -0.083829  -0.068091  0  3.989664  0
C  C253  1  0.78571520  0.46794156  0.10675144  1  0.033725  0  -0.083783  -0.068055  0  3.989581  0
C  C254  1  0.14473478  0.58670527  0.92286804  1  -0.027677  0  -0.033741  -0.064207  0  4.002531  0
C  C255  1  0.85526096  0.41329561  0.07713336  1  -0.026378  0  -0.033745  -0.064124  0  4.00269  0
C  C256  1  0.03552958  0.57309619  0.93964773  1  -0.00836  0  -0.083838  -0.072147  0  3.994292  0
C  C257  1  0.96446123  0.42690742  0.06035226  1  -0.009053  0  -0.083963  -0.072409  0  3.99443  0
C  C258  1  0.99776070  0.50464095  0.92867690  1  -0.053628  0  -0.105322  -0.206903  0  4.003129  0
C  C259  1  0.00223240  0.49536655  0.07132052  1  -0.05253  0  -0.105308  -0.20683  0  4.002959  0
C  C260  1  0.19130949  0.65296446  0.94013921  1  1.544693  0  0.188848  0.551325  0  4.237154  0
C  C261  1  0.80869744  0.34703226  0.05986441  1  1.543939  0  0.188831  0.551374  0  4.237081  0
C  C262  1  0.15535288  0.03610937  0.58821565  1  1.545387  0  0.193725  0.555615  0  4.236246  0
C  C263  1  0.84464567  0.96389653  0.41179071  1  1.545551  0  0.193636  0.555699  0  4.23652  0
C  C264  1  0.09620656  0.97289156  0.57479494  1  -0.074244  0  -0.032601  -0.069583  0  4.005088  0
C  C265  1  0.90379542  0.02712024  0.42520430  1  -0.074079  0  -0.032667  -0.069893  0  4.005552  0
C  C266  1  0.13881140  0.93131934  0.53376898  1  0.033759  0  -0.075778  -0.057912  0  3.981976  0
C  C267  1  0.86118521  0.06869061  0.46623106  1  0.033795  0  -0.075692  -0.057688  0  3.981747  0
C  C268  1  0.08684409  0.87036150  0.52203827  1  -0.069967  0  -0.099789  -0.201603  0  3.996276  0
C  C269  1  0.91315777  0.12964767  0.47796328  1  -0.069966  0  -0.099717  -0.20151  0  3.99621  0
C  C270  1  0.99210440  0.84890330  0.55218941  1  0.436601  0  0.089299  0.274161  0  4.038229  0
C  C271  1  0.00789497  0.15110269  0.44781152  1  0.436239  0  0.089264  0.274073  0  4.038494  0
C  C272  1  0.94807923  0.88962898  0.59319142  1  0.013961  0  -0.1137  -0.229024  0  4.020911  0
C  C273  1  0.05192521  0.11037686  0.40681209  1  0.013744  0  -0.113762  -0.228927  0  4.020688  0
C  C274  1  0.99994048  0.95173234  0.60374959  1  -0.064594  0  -0.084912  -0.066224  0  4.013594  0
C  C275  1  0.00006499  0.04827280  0.39625514  1  -0.064792  0  -0.084908  -0.066179  0  4.01356  0
C  C276  1  0.84616888  0.76806315  0.56354079  1  0.405886  0  0.082527  0.251827  0  4.045759  0
C  C277  1  0.15383811  0.23193950  0.43645810  1  0.4056  0  0.082584  0.251983  0  4.045477  0
C  C278  1  0.84968104  0.68582147  0.59713696  1  -0.053594  0  -0.106004  -0.207623  0  4.008922  0
C  C279  1  0.15032459  0.31418308  0.40286477  1  -0.054364  0  -0.106075  -0.207777  0  4.009075  0
C  C280  1  0.74661312  0.66494444  0.61745540  1  -0.053094  0  -0.091983  -0.094324  0  4.014616  0
C  C281  1  0.25339281  0.33506208  0.38254449  1  -0.052477  0  -0.09191  -0.094298  0  4.014626  0
C  C282  1  0.64117156  0.72543461  0.60383987  1  0.008044  0  -0.030829  -0.061913  0  4.014048  0
C  C283  1  0.35883765  0.27456607  0.39615771  1  0.007808  0  -0.030844  -0.061873  0  4.013744  0
C  C284  1  0.63997938  0.80788090  0.57040312  1  -0.136262  0  -0.079558  -0.072053  0  3.967877  0
C  C285  1  0.36002598  0.19211851  0.42959707  1  -0.136081  0  -0.079544  -0.071968  0  3.967717  0
C  C286  1  0.74230384  0.83006948  0.55038737  1  -0.02295  0  -0.094584  -0.195944  0  3.971302  0
C  C287  1  0.25770128  0.16993385  0.44961148  1  -0.023597  0  -0.09463  -0.19609  0  3.971589  0
C  C288  1  0.52997017  0.70080116  0.62284036  1  1.560053  0  0.189107  0.547523  0  4.269435  0
C  C289  1  0.47002719  0.29920300  0.37715743  1  1.560008  0  0.189237  0.547692  0  4.269133  0
C  C290  1  0.47052537  0.43256024  0.73462982  1  1.538325  0  0.19487  0.561876  0  4.240346  0
C  C291  1  0.52947369  0.56743157  0.26536859  1  1.536307  0  0.195015  0.56202  0  4.240593  0
C  C292  1  0.49607451  0.35306945  0.78003072  1  0.041918  0  -0.025016  -0.047627  0  3.983902  0
C  C293  1  0.50392043  0.64692824  0.21996963  1  0.042124  0  -0.025056  -0.047674  0  3.983876  0
C  C294  1  0.48645988  0.35995532  0.83295627  1  -0.060594  0  -0.083492  -0.069225  0  3.977418  0
C  C295  1  0.51354010  0.64004229  0.16704240  1  -0.060602  0  -0.083611  -0.069376  0  3.977461  0
C  C296  1  0.51299184  0.28555190  0.87465945  1  -0.076524  0  -0.099789  -0.20483  0  3.974269  0
C  C297  1  0.48700753  0.71444186  0.12533866  1  -0.076549  0  -0.099829  -0.204928  0  3.974305  0
C  C298  1  0.54871720  0.20401064  0.86270373  1  0.439587  0  0.080712  0.249758  0  4.057899  0
C  C299  1  0.45128260  0.79598766  0.13729331  1  0.43973  0  0.0807  0.249672  0  4.057904  0
C  C300  1  0.55685233  0.19529911  0.81026287  1  -0.048009  0  -0.106401  -0.212523  0  4.02837  0
C  C301  1  0.44313502  0.80469876  0.18973652  1  -0.047834  0  -0.106233  -0.212265  0  4.028296  0
C  C302  1  0.53111760  0.27023760  0.76915055  1  -0.037906  0  -0.086673  -0.077303  0  3.996297  0
C  C303  1  0.46887190  0.72976159  0.23084550  1  -0.037659  0  -0.086627  -0.077355  0  3.996398  0
C  C304  1  0.53674445  0.06249076  0.91446512  1  0.379324  0  0.089162  0.271355  0  4.054854  0
C  C305  1  0.46326010  0.93750550  0.08553170  1  0.379625  0  0.089173  0.271231  0  4.054966  0
C  C306  1  0.60319142  0.98271882  0.94292554  1  0.042544  0  -0.10413  -0.206478  0  4.008934  0
C  C307  1  0.39680938  0.01727891  0.05706694  1  0.042406  0  -0.104306  -0.206727  0  4.008844  0
C  C308  1  0.55458083  0.91095368  0.95841568  1  -0.083397  0  -0.081725  -0.06897  0  4.004069  0
C  C309  1  0.44542924  0.08904387  0.04157618  1  -0.083085  0  -0.081621  -0.068808  0  4.003969  0
C  C310  1  0.43950282  0.91763153  0.94623488  1  0.030712  0  -0.032792  -0.06872  0  4.014693  0
C  C311  1  0.56050539  0.08236665  0.05375924  1  0.030159  0  -0.032797  -0.068645  0  4.014468  0
C  C312  1  0.37464491  0.99785144  0.91719474  1  -0.038481  0  -0.090379  -0.084015  0  4.013227  0
C  C313  1  0.62535658  0.00214682  0.08280303  1  -0.038261  0  -0.09046  -0.084275  0  4.013255  0
C  C314  1  0.42255853  0.07032677  0.90071239  1  -0.061314  0  -0.110371  -0.22102  0  4.006379  0
C  C315  1  0.57744145  0.92967089  0.09928436  1  -0.061496  0  -0.110345  -0.220875  0  4.006305  0
C  C316  1  0.38810991  0.84057634  0.96667052  1  1.55098  0  0.192136  0.557266  0  4.231698  0
C  C317  1  0.61188846  0.15942720  0.03332541  1  1.551144  0  0.192257  0.557445  0  4.231557  0
N  N318  1  0.34535323  0.03548742  0.68979759  1  -1.269773  0  -0.355391  -0.27954  0  3.577602  0
N  N319  1  0.65464969  0.96451784  0.31020373  1  -1.269816  0  -0.355269  -0.279378  0  3.577846  0
N  N320  1  0.53996471  0.80730699  0.78728739  1  -1.187351  0  -0.283649  -0.082144  0  3.617254  0
N  N321  1  0.46003452  0.19269644  0.21271276  1  -1.18747  0  -0.283591  -0.082211  0  3.617241  0
N  N322  1  0.60531821  0.63327017  0.85331711  1  -1.17411  0  -0.281646  -0.072571  0  3.619253  0
N  N323  1  0.39467872  0.36672942  0.14668291  1  -1.174108  0  -0.281675  -0.072673  0  3.61926  0
N  N324  1  0.68522214  0.37634227  0.94531456  1  -1.278109  0  -0.356254  -0.275706  0  3.608915  0
N  N325  1  0.31477391  0.62366054  0.05468732  1  -1.278008  0  -0.356256  -0.275664  0  3.608936  0
N  N326  1  0.29256622  0.22639514  0.60771716  1  -1.280669  0  -0.356423  -0.270835  0  3.636038  0
N  N327  1  0.70743323  0.77360442  0.39228163  1  -1.280612  0  -0.35641  -0.270853  0  3.636011  0
N  N328  1  0.44685297  0.43037986  0.52751696  1  -1.180961  0  -0.282557  -0.08756  0  3.578918  0
N  N329  1  0.55314705  0.56961455  0.47248026  1  -1.180892  0  -0.282479  -0.087753  0  3.578996  0
N  N330  1  0.29741294  0.70084941  0.71647619  1  -1.300865  0  -0.357639  -0.277105  0  3.606157  0
N  N331  1  0.70259398  0.29913817  0.28353108  1  -1.300742  0  -0.357683  -0.277105  0  3.606147  0
N  N332  1  0.13222391  0.89335290  0.79593072  1  -1.188275  0  -0.288602  -0.089806  0  3.609822  0
N  N333  1  0.86778030  0.10663540  0.20407575  1  -1.189123  0  -0.288661  -0.089918  0  3.609747  0
N  N334  1  0.00930673  0.01428306  0.85411402  1  -1.189568  0  -0.287169  -0.088207  0  3.61261  0
N  N335  1  0.99070250  0.98571756  0.14588626  1  -1.189498  0  -0.287156  -0.0884  0  3.612539  0
N  N336  1  0.85422149  0.19877429  0.94129556  1  -1.268447  0  -0.348119  -0.271289  0  3.554532  0
N  N337  1  0.14577809  0.80122788  0.05870246  1  -1.268375  0  -0.348033  -0.271089  0  3.55422  0
N  N338  1  0.28353565  0.58309407  0.63392971  1  -1.280357  0  -0.359835  -0.271352  0  3.625463  0
N  N339  1  0.71645946  0.41690299  0.36606919  1  -1.280793  0  -0.359813  -0.271267  0  3.625278  0
N  N340  1  0.05778825  0.52854739  0.53628683  1  -1.190833  0  -0.283208  -0.078701  0  3.624529  0
N  N341  1  0.94220191  0.47144326  0.46371431  1  -1.191328  0  -0.283277  -0.078869  0  3.624654  0
O  O342  1  0.14566765  0.17473702  0.71216287  1  -1.189112  0  -0.341574  -0.574411  0  2.35701  0
O  O343  1  0.85433167  0.82527223  0.28783720  1  -1.188504  0  -0.341648  -0.574525  0  2.356788  0
O  O344  1  0.06706997  0.30937031  0.66199651  1  -1.189706  0  -0.33264  -0.562119  0  2.154953  0
O  O345  1  0.93293269  0.69063898  0.33799807  1  -1.189936  0  -0.332631  -0.562138  0  2.15548  0
O  O346  1  0.03413702  0.37703926  0.89543445  1  -1.10253  0  -0.153386  -0.217078  0  2.571938  0
O  O347  1  0.96584844  0.62297163  0.10456346  1  -1.102739  0  -0.153374  -0.217034  0  2.571671  0
O  O348  1  0.12558017  0.70041715  0.96859851  1  -1.173991  0  -0.345127  -0.558221  0  2.220888  0
O  O349  1  0.87442093  0.29958557  0.03140246  1  -1.173995  0  -0.345115  -0.558184  0  2.220834  0
O  O350  1  0.29414876  0.65858341  0.92871634  1  -1.19305  0  -0.326053  -0.573462  0  2.197109  0
O  O351  1  0.70585758  0.34140935  0.07129134  1  -1.193015  0  -0.326028  -0.573497  0  2.19695  0
O  O352  1  0.11080039  0.07041112  0.62754071  1  -1.172783  0  -0.345754  -0.563235  0  2.289738  0
O  O353  1  0.88919805  0.92959216  0.37246719  1  -1.17246  0  -0.345843  -0.563376  0  2.290004  0
O  O354  1  0.24448742  0.05208732  0.56375341  1  -1.18817  0  -0.325958  -0.561273  0  2.140289  0
O  O355  1  0.75550609  0.94792782  0.43624942  1  -1.188378  0  -0.325786  -0.561124  0  2.140223  0
O  O356  1  0.94905040  0.78449139  0.54011841  1  -1.105623  0  -0.155857  -0.225594  0  2.571216  0
O  O357  1  0.05095950  0.21550982  0.45988408  1  -1.105061  0  -0.155927  -0.225662  0  2.570962  0
O  O358  1  0.54083125  0.62901316  0.65984364  1  -1.166234  0  -0.343801  -0.555807  0  2.316112  0
O  O359  1  0.45917000  0.37098903  0.34015163  1  -1.166397  0  -0.343902  -0.555944  0  2.315937  0
O  O360  1  0.43609635  0.74738559  0.60296207  1  -1.182381  0  -0.33165  -0.56349  0  2.120317  0
O  O361  1  0.56390416  0.25262236  0.39703700  1  -1.182311  0  -0.33168  -0.563555  0  2.120207  0
O  O362  1  0.41985203  0.50524472  0.74726169  1  -1.181472  0  -0.344531  -0.565896  0  2.294444  0
O  O363  1  0.58015070  0.49474902  0.25273401  1  -1.179236  0  -0.344663  -0.566015  0  2.294438  0
O  O364  1  0.49631701  0.42569929  0.68812076  1  -1.176685  0  -0.327773  -0.561747  0  2.158869  0
O  O365  1  0.50368265  0.57429646  0.31187474  1  -1.176874  0  -0.327793  -0.561773  0  2.159223  0
O  O366  1  0.58802491  0.13189345  0.90425924  1  -1.10589  0  -0.150663  -0.215434  0  2.590399  0
O  O367  1  0.41197454  0.86810612  0.09573955  1  -1.106007  0  -0.150693  -0.21536  0  2.590472  0
O  O368  1  0.27787782  0.85284482  0.96031068  1  -1.179929  0  -0.336659  -0.560743  0  2.306777  0
O  O369  1  0.72212368  0.14715340  0.03968864  1  -1.179918  0  -0.336681  -0.560831  0  2.306592  0
O  O370  1  0.44963409  0.76777270  0.98974005  1  -1.189404  0  -0.328625  -0.56254  0  2.141348  0
O  O371  1  0.55036233  0.23222571  0.01025515  1  -1.189355  0  -0.328685  -0.562585  0  2.141412  0
