# generated using pymatgen
data_AgH21C24(NO)4
_symmetry_space_group_name_H-M   'P 1'
_cell_length_a   11.36661642
_cell_length_b   11.70918240
_cell_length_c   20.38226853
_cell_angle_alpha   91.65712817
_cell_angle_beta   90.00045185
_cell_angle_gamma   89.99940477
_symmetry_Int_Tables_number   1
_chemical_formula_structural   AgH21C24(NO)4
_chemical_formula_sum   'Ag4 H84 C96 N16 O16'
_cell_volume   2711.61873182
_cell_formula_units_Z   4
loop_
 _symmetry_equiv_pos_site_id
 _symmetry_equiv_pos_as_xyz
  1  'x, y, z'
loop_
 _atom_site_type_symbol
 _atom_site_label
 _atom_site_symmetry_multiplicity
 _atom_site_fract_x
 _atom_site_fract_y
 _atom_site_fract_z
 _atom_site_occupancy
 _atom_site_pbe_bader_charge
 _atom_site_pbe_bader_spin_density
 _atom_site_pbe_cm5_charge
 _atom_site_pbe_ddec_charge
 _atom_site_pbe_ddec_spin_density
 _atom_site_pbe_ddec_sum_bond_order
 _atom_site_pbe_magmom
Ag  Ag0  1  0.72523659  0.36218389  0.34981829  1  0.597391  0  0.484913  0.323937  0  1.940541  0
Ag  Ag1  1  0.22522477  0.63779937  0.15018135  1  0.597486  0  0.485016  0.32396  0  1.940934  0
Ag  Ag2  1  0.27477425  0.63780528  0.65017303  1  0.597464  0  0.485  0.323951  0  1.940781  0
Ag  Ag3  1  0.77477640  0.36219500  0.84981345  1  0.597361  0  0.484999  0.323983  0  1.940751  0
H  H4  1  0.49835157  0.39343613  0.43556316  1  0.143424  0  0.115216  0.091119  0  1.023898  0
H  H5  1  0.99836822  0.60657685  0.06443651  1  0.143781  0  0.115164  0.091099  0  1.023924  0
H  H6  1  0.50163816  0.60656339  0.56443317  1  0.143547  0  0.115222  0.091112  0  1.023954  0
H  H7  1  0.00163119  0.39343634  0.93555996  1  0.143643  0  0.115193  0.091053  0  1.023945  0
H  H8  1  0.31881688  0.71234198  0.40246188  1  0.074981  0  0.110674  0.108122  0  0.999722  0
H  H9  1  0.81882859  0.28769101  0.09755292  1  0.074963  0  0.110703  0.108094  0  1.00002  0
H  H10  1  0.68118516  0.28765996  0.59752711  1  0.075098  0  0.110681  0.108127  0  0.999666  0
H  H11  1  0.18117874  0.71233013  0.90245787  1  0.075078  0  0.110724  0.108177  0  0.999774  0
H  H12  1  0.48993915  0.76805193  0.33437368  1  0.119205  0  0.10522  0.108493  0  1.04289  0
H  H13  1  0.98993569  0.23196399  0.16564169  1  0.11877  0  0.105203  0.10844  0  1.042814  0
H  H14  1  0.51007961  0.23194593  0.66562509  1  0.119232  0  0.105214  0.108471  0  1.04281  0
H  H15  1  0.01006724  0.76806232  0.83437161  1  0.119058  0  0.105205  0.108516  0  1.04283  0
H  H16  1  0.65846749  0.63349434  0.32019027  1  0.088544  0  0.112121  0.078541  0  1.01666  0
H  H17  1  0.15848184  0.36651368  0.17981866  1  0.08827  0  0.112117  0.078592  0  1.016517  0
H  H18  1  0.34154863  0.36650623  0.67981638  1  0.088669  0  0.112103  0.078526  0  1.016634  0
H  H19  1  0.84152548  0.63350910  0.82018870  1  0.088343  0  0.112166  0.078633  0  1.016653  0
H  H20  1  0.31090900  0.41098617  0.47682492  1  0.12224  0  0.111832  0.117656  0  1.000122  0
H  H21  1  0.81089535  0.58903059  0.02318477  1  0.122179  0  0.111838  0.117614  0  1.000021  0
H  H22  1  0.68910536  0.58901683  0.52317489  1  0.122218  0  0.111856  0.117708  0  1.000031  0
H  H23  1  0.18909526  0.41097412  0.97681505  1  0.122227  0  0.111832  0.117599  0  1.000159  0
H  H24  1  0.14292508  0.71259302  0.46975979  1  0.035455  0  0.099181  0.07857  0  0.976199  0
H  H25  1  0.64293496  0.28741657  0.03023339  1  0.035785  0  0.099105  0.078472  0  0.976266  0
H  H26  1  0.85706904  0.28739548  0.53024133  1  0.035463  0  0.099174  0.078558  0  0.976153  0
H  H27  1  0.35706972  0.71258207  0.96976146  1  0.035651  0  0.099153  0.078632  0  0.976146  0
H  H28  1  0.28695315  0.72864125  0.50453240  1  0.106205  0  0.115737  0.113223  0  0.996697  0
H  H29  1  0.78696271  0.27137269  0.99546066  1  0.10655  0  0.115708  0.113183  0  0.996624  0
H  H30  1  0.71304625  0.27137014  0.49545964  1  0.1067  0  0.115739  0.113207  0  0.99669  0
H  H31  1  0.21303758  0.72861903  0.00452970  1  0.106632  0  0.115713  0.113239  0  0.996617  0
H  H32  1  0.88989069  0.34433483  0.71209719  1  0.127494  0  0.120083  0.103534  0  0.986593  0
H  H33  1  0.38990174  0.65570035  0.78789899  1  0.126881  0  0.11999  0.103539  0  0.986667  0
H  H34  1  0.11010783  0.65568184  0.28790276  1  0.127336  0  0.120077  0.103604  0  0.986492  0
H  H35  1  0.61011703  0.34430683  0.21209595  1  0.127177  0  0.120014  0.103508  0  0.986645  0
H  H36  1  0.82351238  0.66681465  0.61963007  1  0.086861  0  0.115331  0.119327  0  0.994453  0
H  H37  1  0.32352638  0.33321069  0.88035247  1  0.086535  0  0.115339  0.119355  0  0.9945  0
H  H38  1  0.17650198  0.33319758  0.38036100  1  0.086535  0  0.115394  0.119384  0  0.994753  0
H  H39  1  0.67647214  0.66680346  0.11964990  1  0.086937  0  0.115362  0.119326  0  0.994678  0
H  H40  1  0.65957744  0.69807856  0.69770437  1  0.183962  0  0.108893  0.125147  0  1.047896  0
H  H41  1  0.15957836  0.30196912  0.80228848  1  0.184583  0  0.108931  0.124949  0  1.047931  0
H  H42  1  0.34043077  0.30193710  0.30228771  1  0.18433  0  0.10889  0.12511  0  1.0479  0
H  H43  1  0.84041577  0.69805531  0.19771498  1  0.184347  0  0.108952  0.125126  0  1.047951  0
H  H44  1  0.61491468  0.54748557  0.77938844  1  0.087762  0  0.110777  0.078921  0  1.021716  0
H  H45  1  0.11491197  0.45256946  0.72060822  1  0.087443  0  0.110774  0.078935  0  1.021854  0
H  H46  1  0.38508912  0.45253523  0.22060418  1  0.087592  0  0.110779  0.078993  0  1.021755  0
H  H47  1  0.88510239  0.54744630  0.27938877  1  0.087319  0  0.110749  0.078945  0  1.021668  0
H  H48  1  0.99752520  0.38141400  0.61658838  1  0.092751  0  0.106865  0.107373  0  1.015297  0
H  H49  1  0.49753886  0.61860218  0.88340856  1  0.092406  0  0.106934  0.107435  0  1.015093  0
H  H50  1  0.00248125  0.61858659  0.38341925  1  0.092857  0  0.106867  0.107365  0  1.015418  0
H  H51  1  0.50247814  0.38139563  0.11658775  1  0.092464  0  0.10695  0.107494  0  1.015031  0
H  H52  1  0.99814470  0.70104503  0.62727142  1  0.073907  0  0.108407  0.092209  0  1.029085  0
H  H53  1  0.49814488  0.29897715  0.87272705  1  0.074014  0  0.108381  0.092171  0  1.028993  0
H  H54  1  0.00187319  0.29894695  0.37273268  1  0.074097  0  0.108399  0.09224  0  1.028991  0
H  H55  1  0.50183693  0.70102848  0.12727621  1  0.07424  0  0.108369  0.092177  0  1.029114  0
H  H56  1  0.97687835  0.69281137  0.54055829  1  0.087417  0  0.103801  0.097675  0  0.983212  0
H  H57  1  0.47688406  0.30720414  0.95943757  1  0.087616  0  0.103849  0.097769  0  0.983191  0
H  H58  1  0.02312898  0.30718658  0.45944538  1  0.087353  0  0.103782  0.09761  0  0.983258  0
H  H59  1  0.52311447  0.69279640  0.04056809  1  0.087746  0  0.103849  0.097735  0  0.983233  0
H  H60  1  0.92288451  0.90897304  0.61347725  1  0.029024  0  0.10035  0.100937  0  0.997624  0
H  H61  1  0.42286246  0.09107646  0.88652609  1  0.028718  0  0.100308  0.100811  0  0.997558  0
H  H62  1  0.07712809  0.09101891  0.38652538  1  0.028857  0  0.100355  0.100896  0  0.997486  0
H  H63  1  0.57709648  0.90897606  0.11347276  1  0.028927  0  0.100343  0.100904  0  0.997604  0
H  H64  1  0.84603364  0.96337348  0.72403192  1  0.058391  0  0.099474  0.098928  0  1.028894  0
H  H65  1  0.34599829  0.03665475  0.77598019  1  0.0579  0  0.099512  0.09916  0  1.0286  0
H  H66  1  0.15398073  0.03661933  0.27597121  1  0.058134  0  0.099487  0.098986  0  1.0289  0
H  H67  1  0.65394041  0.96338602  0.22402933  1  0.058818  0  0.099495  0.098836  0  1.028849  0
H  H68  1  0.98275567  0.97651311  0.81971282  1  0.109148  0  0.104281  0.104871  0  0.994117  0
H  H69  1  0.48270240  0.02345305  0.68029629  1  0.109069  0  0.104214  0.104878  0  0.994154  0
H  H70  1  0.01726046  0.02346692  0.18029165  1  0.109079  0  0.104216  0.104832  0  0.994234  0
H  H71  1  0.51722311  0.97651245  0.31970803  1  0.109436  0  0.10424  0.104784  0  0.994328  0
H  H72  1  0.19298782  0.92714772  0.80515623  1  0.04108  0  0.101781  0.098665  0  0.995042  0
H  H73  1  0.69294950  0.07278180  0.69483946  1  0.040015  0  0.101828  0.098692  0  0.995112  0
H  H74  1  0.80702127  0.07281002  0.19484408  1  0.040517  0  0.101733  0.098581  0  0.995039  0
H  H75  1  0.30699448  0.92711179  0.30515625  1  0.040666  0  0.101816  0.098759  0  0.995073  0
H  H76  1  0.27003139  0.86762110  0.69490749  1  0.086653  0  0.095553  0.102049  0  1.047559  0
H  H77  1  0.77000807  0.13236044  0.80507877  1  0.0865  0  0.09556  0.101995  0  1.04755  0
H  H78  1  0.72997241  0.13235198  0.30509102  1  0.085936  0  0.095522  0.101932  0  1.047592  0
H  H79  1  0.22995526  0.86758164  0.19490616  1  0.086516  0  0.095528  0.101944  0  1.047487  0
H  H80  1  0.23695116  0.87658606  0.57248692  1  0.075066  0  0.114266  0.114592  0  0.97654  0
H  H81  1  0.73694549  0.12342401  0.92750048  1  0.075296  0  0.114247  0.11465  0  0.976533  0
H  H82  1  0.76305793  0.12341521  0.42751188  1  0.075299  0  0.114309  0.114648  0  0.976509  0
H  H83  1  0.26303456  0.87656080  0.07248589  1  0.074926  0  0.114253  0.114569  0  0.976556  0
H  H84  1  0.08965732  0.87797223  0.54106074  1  0.030545  0  0.099082  0.077152  0  0.973732  0
H  H85  1  0.58965651  0.12205228  0.95893451  1  0.030615  0  0.099098  0.077144  0  0.973828  0
H  H86  1  0.91034473  0.12202737  0.45893952  1  0.030904  0  0.099116  0.077171  0  0.973769  0
H  H87  1  0.41032531  0.87794724  0.04106231  1  0.030558  0  0.099131  0.077216  0  0.973905  0
C  C88  1  0.14242536  0.48274870  0.54477661  1  0.887561  0  0.133946  0.306322  0  4.058733  0
C  C89  1  0.64242207  0.51726784  0.95523203  1  0.887663  0  0.134114  0.306573  0  4.058402  0
C  C90  1  0.85759692  0.51725362  0.45523299  1  0.887521  0  0.13408  0.306422  0  4.058817  0
C  C91  1  0.35757910  0.48273173  0.04476725  1  0.887686  0  0.134163  0.306607  0  4.05834  0
C  C92  1  0.49398028  0.47806059  0.41446741  1  0.489386  0  0.051836  0.047881  0  3.891021  0
C  C93  1  0.99398581  0.52194311  0.08553656  1  0.488673  0  0.051925  0.047812  0  3.890628  0
C  C94  1  0.50602705  0.52193987  0.58553384  1  0.489391  0  0.051913  0.048008  0  3.890672  0
C  C95  1  0.00600920  0.47806503  0.91446428  1  0.49056  0  0.051824  0.047893  0  3.890697  0
C  C96  1  0.39605991  0.54898009  0.42776913  1  0.051314  0  -0.006876  0.06082  0  4.025759  0
C  C97  1  0.89605281  0.45101953  0.07223780  1  0.050899  0  -0.006902  0.060747  0  4.025888  0
C  C98  1  0.60395181  0.45102375  0.57222969  1  0.051337  0  -0.006816  0.060947  0  4.025668  0
C  C99  1  0.10393956  0.54898100  0.92776688  1  0.050184  0  -0.006867  0.06078  0  4.025803  0
C  C100  1  0.39427848  0.65554176  0.39750440  1  -0.031492  0  -0.061445  -0.067503  0  3.899757  0
C  C101  1  0.89427469  0.34447418  0.10250663  1  -0.031682  0  -0.06152  -0.067374  0  3.900222  0
C  C102  1  0.60573148  0.34446377  0.60249347  1  -0.031499  0  -0.061497  -0.067638  0  3.899676  0
C  C103  1  0.10572119  0.65553923  0.89750163  1  -0.031498  0  -0.061506  -0.067525  0  3.900009  0
C  C104  1  0.48912861  0.68668749  0.35884883  1  -0.111757  0  -0.07993  -0.111919  0  3.969223  0
C  C105  1  0.98912218  0.31332746  0.14116014  1  -0.110653  0  -0.079882  -0.111944  0  3.969097  0
C  C106  1  0.51088223  0.31331293  0.64114996  1  -0.111832  0  -0.079896  -0.111834  0  3.969051  0
C  C107  1  0.01087107  0.68669279  0.85884868  1  -0.111754  0  -0.079886  -0.111959  0  3.969282  0
C  C108  1  0.58294491  0.61123394  0.35022651  1  0.506956  0  0.048173  0.098039  0  3.934968  0
C  C109  1  0.08294980  0.38877143  0.14978304  1  0.507269  0  0.048167  0.097969  0  3.934544  0
C  C110  1  0.41706682  0.38876575  0.64977914  1  0.507339  0  0.048221  0.098157  0  3.934839  0
C  C111  1  0.91705137  0.61124704  0.85022183  1  0.507809  0  0.048045  0.097808  0  3.935055  0
C  C112  1  0.30638381  0.50331815  0.47017227  1  -0.043751  0  -0.068217  -0.125516  0  3.941884  0
C  C113  1  0.80638091  0.49669347  0.02983489  1  -0.044759  0  -0.068183  -0.125284  0  3.941772  0
C  C114  1  0.69362527  0.49668308  0.52982457  1  -0.043914  0  -0.06829  -0.12568  0  3.941909  0
C  C115  1  0.19362114  0.50330615  0.97016684  1  -0.044974  0  -0.068159  -0.125225  0  3.94176  0
C  C116  1  0.22055436  0.55708585  0.50552858  1  -0.048038  0  -0.024622  -0.028171  0  3.931387  0
C  C117  1  0.72055857  0.44292719  0.99447153  1  -0.046646  0  -0.024714  -0.02849  0  3.931478  0
C  C118  1  0.77945824  0.44291375  0.49447217  1  -0.048069  0  -0.024673  -0.028127  0  3.931258  0
C  C119  1  0.27945140  0.55707062  0.00552478  1  -0.046719  0  -0.024817  -0.028606  0  3.931843  0
C  C120  1  0.20245686  0.68431991  0.50946978  1  0.229031  0  -0.069988  -0.116503  0  3.936702  0
C  C121  1  0.70246500  0.31569407  0.99052536  1  0.228431  0  -0.069827  -0.116171  0  3.936287  0
C  C122  1  0.79755134  0.31568650  0.49052956  1  0.228607  0  -0.070034  -0.116413  0  3.936683  0
C  C123  1  0.29753705  0.68429595  0.00946548  1  0.2284  0  -0.069758  -0.116273  0  3.936195  0
C  C124  1  0.84042169  0.42361224  0.70698075  1  0.444417  0  0.049388  0.036228  0  3.894922  0
C  C125  1  0.34043101  0.57642344  0.79301571  1  0.444798  0  0.049407  0.035977  0  3.894738  0
C  C126  1  0.15958211  0.57640105  0.29302162  1  0.444712  0  0.049333  0.035936  0  3.894649  0
C  C127  1  0.65958512  0.42358376  0.20698021  1  0.445921  0  0.049312  0.035817  0  3.895112  0
C  C128  1  0.87409587  0.50273696  0.65963161  1  0.00023  0  -0.008568  0.061396  0  4.029567  0
C  C129  1  0.37410581  0.49729068  0.84036442  1  -0.000343  0  -0.008434  0.062064  0  4.029033  0
C  C130  1  0.12592026  0.49727124  0.34037266  1  0.000391  0  -0.00851  0.061803  0  4.029204  0
C  C131  1  0.62590943  0.50271230  0.15963440  1  -0.001482  0  -0.008446  0.062224  0  4.029069  0
C  C132  1  0.80680264  0.60374620  0.65666771  1  -0.083468  0  -0.061133  -0.070972  0  3.888356  0
C  C133  1  0.30680665  0.39628631  0.84332416  1  -0.08137  0  -0.061106  -0.071358  0  3.888405  0
C  C134  1  0.19321173  0.39626277  0.34333167  1  -0.082713  0  -0.061184  -0.071208  0  3.888843  0
C  C135  1  0.69319627  0.60372694  0.15667575  1  -0.081653  0  -0.061175  -0.071407  0  3.888785  0
C  C136  1  0.71318660  0.62097563  0.69982268  1  0.024195  0  -0.082004  -0.120374  0  3.958849  0
C  C137  1  0.21318403  0.37907154  0.80017188  1  0.022198  0  -0.082119  -0.119957  0  3.959221  0
C  C138  1  0.28681896  0.37904102  0.30017629  1  0.023486  0  -0.082059  -0.120326  0  3.959152  0
C  C139  1  0.78681185  0.62095024  0.19982714  1  0.022688  0  -0.082004  -0.120097  0  3.959171  0
C  C140  1  0.68790015  0.53738382  0.74498136  1  0.419065  0  0.044015  0.084411  0  3.946702  0
C  C141  1  0.18789694  0.46265936  0.75501452  1  0.420019  0  0.043921  0.084309  0  3.947329  0
C  C142  1  0.31210541  0.46263538  0.25501665  1  0.419346  0  0.04396  0.084374  0  3.946862  0
C  C143  1  0.81210774  0.53735038  0.24498045  1  0.419769  0  0.043982  0.084298  0  3.946989  0
C  C144  1  0.97373489  0.47208881  0.61819559  1  -0.030808  0  -0.074513  -0.140667  0  3.951755  0
C  C145  1  0.47374157  0.52793701  0.88180183  1  -0.030981  0  -0.074714  -0.140924  0  3.95198  0
C  C146  1  0.02628475  0.52791690  0.38181209  1  -0.03193  0  -0.074628  -0.140803  0  3.951935  0
C  C147  1  0.52626752  0.47207111  0.11819802  1  -0.030701  0  -0.074725  -0.141145  0  3.95184  0
C  C148  1  0.04582930  0.53985730  0.58312900  1  -0.029519  0  -0.021921  -0.019385  0  3.93427  0
C  C149  1  0.54582431  0.46015832  0.91686990  1  -0.02947  0  -0.021875  -0.01952  0  3.934507  0
C  C150  1  0.95419386  0.46013982  0.41687614  1  -0.02906  0  -0.021965  -0.019548  0  3.934439  0
C  C151  1  0.45417334  0.53984300  0.08313136  1  -0.029699  0  -0.021842  -0.019372  0  3.934358  0
C  C152  1  0.03575173  0.66719536  0.58118006  1  0.227039  0  -0.074872  -0.122476  0  3.938398  0
C  C153  1  0.53575604  0.33281949  0.91881779  1  0.227016  0  -0.074874  -0.122365  0  3.938293  0
C  C154  1  0.96426351  0.33279914  0.41882161  1  0.226856  0  -0.074848  -0.122275  0  3.938211  0
C  C155  1  0.46424249  0.66718014  0.08118492  1  0.226729  0  -0.074839  -0.122361  0  3.938469  0
C  C156  1  0.10152523  0.88497663  0.64664758  1  -0.062086  0  -0.019312  0.086357  0  3.989808  0
C  C157  1  0.60150629  0.11503070  0.85334853  1  -0.062199  0  -0.019195  0.08652  0  3.990053  0
C  C158  1  0.89848473  0.11501953  0.35335166  1  -0.062677  0  -0.019311  0.086301  0  3.990084  0
C  C159  1  0.39845968  0.88495684  0.14664670  1  -0.061868  0  -0.019365  0.086351  0  3.990202  0
C  C160  1  0.98249884  0.91269518  0.65555729  1  -0.094671  0  -0.095977  -0.143141  0  3.998439  0
C  C161  1  0.48248063  0.08732552  0.84444503  1  -0.094194  0  -0.096052  -0.143127  0  3.998676  0
C  C162  1  0.01750849  0.08729843  0.34444291  1  -0.094054  0  -0.096026  -0.143191  0  3.998686  0
C  C163  1  0.51747655  0.91269118  0.15555638  1  -0.095134  0  -0.095948  -0.143113  0  3.998783  0
C  C164  1  0.93911680  0.94392900  0.71762014  1  0.000362  0  -0.095012  -0.082667  0  4.017382  0
C  C165  1  0.43908662  0.05607768  0.78238577  1  0.000243  0  -0.0952  -0.083075  0  4.0174  0
C  C166  1  0.06089404  0.05605778  0.28237999  1  0.000982  0  -0.095045  -0.082762  0  4.01755  0
C  C167  1  0.56085736  0.94392974  0.21762193  1  -0.000189  0  -0.094947  -0.08244  0  4.017068  0
C  C168  1  0.01514474  0.94966235  0.77135979  1  -0.067475  0  -0.090767  -0.077563  0  4.011645  0
C  C169  1  0.51510274  0.05031265  0.72864296  1  -0.069382  0  -0.090594  -0.077507  0  4.011511  0
C  C170  1  0.98486787  0.05031673  0.22864025  1  -0.069454  0  -0.090596  -0.077449  0  4.01154  0
C  C171  1  0.48483597  0.94965543  0.27136237  1  -0.067154  0  -0.090641  -0.077324  0  4.011483  0
C  C172  1  0.13393479  0.92222619  0.76297727  1  0.051161  0  -0.091545  -0.076658  0  4.019694  0
C  C173  1  0.63390230  0.07773211  0.73701846  1  0.05403  0  -0.091731  -0.076809  0  4.019375  0
C  C174  1  0.86607429  0.07774432  0.23702072  1  0.05279  0  -0.091645  -0.076599  0  4.019325  0
C  C175  1  0.36605048  0.92220422  0.26297917  1  0.051143  0  -0.091661  -0.076893  0  4.019629  0
C  C176  1  0.17710129  0.88955608  0.70112114  1  -0.125796  0  -0.097004  -0.148363  0  3.982082  0
C  C177  1  0.67707460  0.11042825  0.79887358  1  -0.125039  0  -0.096815  -0.148046  0  3.981878  0
C  C178  1  0.82291043  0.11042385  0.29887842  1  -0.124352  0  -0.096863  -0.148141  0  3.981964  0
C  C179  1  0.32288786  0.88952681  0.20112082  1  -0.125139  0  -0.097039  -0.148361  0  3.982068  0
C  C180  1  0.14697034  0.84564039  0.58037296  1  0.307475  0  -0.065754  -0.118311  0  3.902139  0
C  C181  1  0.64696335  0.15437834  0.91961807  1  0.307328  0  -0.065778  -0.118426  0  3.902502  0
C  C182  1  0.85303963  0.15435319  0.41962576  1  0.306849  0  -0.065824  -0.118225  0  3.902295  0
C  C183  1  0.35301406  0.84562535  0.08037291  1  0.307299  0  -0.065786  -0.118371  0  3.902426  0
N  N184  1  0.50562337  0.20453874  0.36602828  1  0.805769  0  0.08341  0.710167  0  4.437267  0
N  N185  1  0.00560965  0.79545435  0.13396805  1  0.806005  0  0.083366  0.709966  0  4.437045  0
N  N186  1  0.49438483  0.79547102  0.63396766  1  0.806134  0  0.0833  0.709908  0  4.437288  0
N  N187  1  0.99438360  0.20453504  0.86603456  1  0.806068  0  0.083435  0.710147  0  4.437357  0
N  N188  1  0.58493920  0.50768906  0.37703777  1  -1.217353  0  -0.328332  -0.215633  0  3.53693  0
N  N189  1  0.08495933  0.49232306  0.12296843  1  -1.217245  0  -0.328361  -0.215506  0  3.536697  0
N  N190  1  0.41506636  0.49231147  0.62296740  1  -1.217853  0  -0.328432  -0.21584  0  3.536589  0
N  N191  1  0.91504623  0.50769874  0.87703206  1  -1.218198  0  -0.328286  -0.215455  0  3.536789  0
N  N192  1  0.75114467  0.44037425  0.74911616  1  -1.201076  0  -0.344233  -0.225717  0  3.587779  0
N  N193  1  0.25114829  0.55966830  0.75087998  1  -1.201468  0  -0.344123  -0.22573  0  3.587586  0
N  N194  1  0.24886001  0.55964833  0.25088041  1  -1.201306  0  -0.344131  -0.225668  0  3.587464  0
N  N195  1  0.74886431  0.44033972  0.24911398  1  -1.201761  0  -0.344181  -0.225608  0  3.587735  0
N  N196  1  0.15300354  0.71882046  0.57384789  1  -0.991047  0  -0.343714  -0.068802  0  3.520182  0
N  N197  1  0.65300674  0.28119398  0.92614508  1  -0.991039  0  -0.343697  -0.06896  0  3.520334  0
N  N198  1  0.84700466  0.28117825  0.42615089  1  -0.990838  0  -0.343599  -0.069047  0  3.520428  0
N  N199  1  0.34698563  0.71880039  0.07385022  1  -0.990862  0  -0.343776  -0.069009  0  3.520057  0
O  O200  1  0.54811212  0.24450810  0.31270435  1  -0.574977  0  -0.230504  -0.487183  0  1.988976  0
O  O201  1  0.04810661  0.75548283  0.18729067  1  -0.575183  0  -0.23044  -0.487119  0  1.989033  0
O  O202  1  0.45189608  0.75549398  0.68729201  1  -0.575074  0  -0.230453  -0.487173  0  1.989005  0
O  O203  1  0.95188048  0.24452201  0.81271651  1  -0.575131  0  -0.230488  -0.487206  0  1.988991  0
O  O204  1  0.56802399  0.20879196  0.41783711  1  -0.570259  0  -0.226594  -0.490665  0  1.952176  0
O  O205  1  0.06800607  0.79120818  0.08215858  1  -0.570174  0  -0.2266  -0.490558  0  1.951926  0
O  O206  1  0.43198509  0.79121780  0.58215883  1  -0.570207  0  -0.2266  -0.490577  0  1.952071  0
O  O207  1  0.93199598  0.20877187  0.91784736  1  -0.570298  0  -0.226642  -0.490644  0  1.952086  0
O  O208  1  0.40351669  0.16367390  0.36616502  1  -0.528743  0  -0.208229  -0.451404  0  1.894937  0
O  O209  1  0.90349757  0.83631440  0.13383447  1  -0.528884  0  -0.208245  -0.45139  0  1.894895  0
O  O210  1  0.59648976  0.83634531  0.63383397  1  -0.529057  0  -0.208157  -0.451251  0  1.895016  0
O  O211  1  0.09649480  0.16367313  0.86616027  1  -0.528752  0  -0.208245  -0.451414  0  1.895203  0
O  O212  1  0.15443741  0.37721244  0.54419315  1  -1.089262  0  -0.283651  -0.423131  0  2.124874  0
O  O213  1  0.65440925  0.62280759  0.95582589  1  -1.089298  0  -0.283701  -0.423203  0  2.124816  0
O  O214  1  0.84561127  0.62279177  0.45582580  1  -1.088899  0  -0.283593  -0.423099  0  2.125238  0
O  O215  1  0.34559016  0.37719037  0.04417877  1  -1.089361  0  -0.283739  -0.423238  0  2.124666  0
