# generated using pymatgen
data_CdH36C32I2(N3O)4
_symmetry_space_group_name_H-M   'P 1'
_cell_length_a   9.86193297
_cell_length_b   16.44037347
_cell_length_c   17.29916809
_cell_angle_alpha   100.60677821
_cell_angle_beta   106.56420089
_cell_angle_gamma   90.03447094
_symmetry_Int_Tables_number   1
_chemical_formula_structural   CdH36C32I2(N3O)4
_chemical_formula_sum   'Cd2 H72 C64 I4 N24 O8'
_cell_volume   2638.25326125
_cell_formula_units_Z   2
loop_
 _symmetry_equiv_pos_site_id
 _symmetry_equiv_pos_as_xyz
  1  'x, y, z'
loop_
 _atom_site_type_symbol
 _atom_site_label
 _atom_site_symmetry_multiplicity
 _atom_site_fract_x
 _atom_site_fract_y
 _atom_site_fract_z
 _atom_site_occupancy
 _atom_site_pbe_bader_charge
 _atom_site_pbe_bader_spin_density
 _atom_site_pbe_cm5_charge
 _atom_site_pbe_ddec_charge
 _atom_site_pbe_ddec_spin_density
 _atom_site_pbe_ddec_sum_bond_order
 _atom_site_pbe_magmom
Cd  Cd0  1  0.00007947  0.50002460  0.99996614  1  1.102688  0  0.685405  0.653907  0  2.250109  0
Cd  Cd1  1  0.99994737  0.00000761  0.99998309  1  1.103188  0  0.684425  0.652844  0  2.251025  0
H  H2  1  0.26872016  0.89700510  0.22275300  1  0.441739  0  0.279771  0.240983  0  1.042589  0
H  H3  1  0.60434176  0.94205840  0.25346377  1  0.459607  0  0.308164  0.262332  0  0.981301  0
H  H4  1  0.41914592  0.05916067  0.38210464  1  0.051396  0  0.115127  0.098512  0  0.974314  0
H  H5  1  0.37249621  0.99866254  0.28307476  1  0.072795  0  0.087773  0.066973  0  1.06427  0
H  H6  1  0.51554900  0.91457325  0.42633641  1  0.041041  0  0.108439  0.086654  0  1.004427  0
H  H7  1  0.53002852  0.89189741  0.32680465  1  0.058406  0  0.112569  0.090054  0  0.984416  0
H  H8  1  0.12800634  0.00356585  0.43537506  1  0.133863  0  0.118727  0.116161  0  0.986343  0
H  H9  1  0.28625106  0.06677829  0.45991899  1  0.0479  0  0.107764  0.08209  0  0.981039  0
H  H10  1  0.76041923  0.09779014  0.49133362  1  0.108364  0  0.118496  0.111099  0  0.985987  0
H  H11  1  0.58897582  0.06921518  0.49478357  1  0.034891  0  0.099129  0.063234  0  1.031734  0
H  H12  1  0.90067992  0.63050732  0.14675781  1  0.085531  0  0.087625  0.064836  0  1.069403  0
H  H13  1  0.98711028  0.76176305  0.24842709  1  0.144404  0  0.110733  0.141365  0  1.019436  0
H  H14  1  0.29606810  0.79336152  0.12094407  1  0.082215  0  0.091789  0.11323  0  1.03997  0
H  H15  1  0.19922468  0.66020992  0.02604755  1  0.098088  0  0.091268  0.069513  0  1.05515  0
H  H16  1  0.08427569  0.02632458  0.18891856  1  0.116376  0  0.101302  0.069763  0  1.039303  0
H  H17  1  0.97471224  0.02922783  0.30244087  1  0.134976  0  0.113886  0.141102  0  1.035569  0
H  H18  1  0.61104528  0.89121202  0.12259405  1  0.064044  0  0.096148  0.118442  0  1.026833  0
H  H19  1  0.73366678  0.89700497  0.01650713  1  0.078672  0  0.109802  0.084945  0  0.99894  0
H  H20  1  0.04582793  0.60308693  0.77707316  1  0.447918  0  0.280191  0.241485  0  1.041178  0
H  H21  1  0.35091637  0.55792226  0.74681006  1  0.452357  0  0.308151  0.262601  0  0.981698  0
H  H22  1  0.03666047  0.44090561  0.61780320  1  0.039287  0  0.115065  0.098404  0  0.97471  0
H  H23  1  0.08892418  0.50131330  0.71689885  1  0.069658  0  0.087432  0.066605  0  1.064503  0
H  H24  1  0.08928991  0.58567673  0.57387237  1  0.053539  0  0.108466  0.084313  0  1.006824  0
H  H25  1  0.20320050  0.60815721  0.67346820  1  0.04103  0  0.112582  0.089906  0  0.984228  0
H  H26  1  0.69225500  0.49636073  0.56441886  1  0.125132  0  0.11903  0.116964  0  0.985582  0
H  H27  1  0.82592256  0.43311261  0.54006879  1  0.018868  0  0.107526  0.082463  0  0.980495  0
H  H28  1  0.26889257  0.40238555  0.50893680  1  0.125135  0  0.118758  0.112049  0  0.986646  0
H  H29  1  0.09400835  0.43101716  0.50526480  1  0.003101  0  0.098886  0.063806  0  1.03191  0
H  H30  1  0.75376576  0.86923217  0.85324047  1  0.108428  0  0.08748  0.064452  0  1.069244  0
H  H31  1  0.73858581  0.73806008  0.75150563  1  0.167861  0  0.110359  0.14114  0  1.018558  0
H  H32  1  0.17524516  0.70694355  0.87886625  1  0.086221  0  0.091603  0.112665  0  1.040259  0
H  H33  1  0.17316015  0.83992189  0.97389413  1  0.103245  0  0.091843  0.070123  0  1.054796  0
H  H34  1  0.89538960  0.47394152  0.81100966  1  0.108649  0  0.101915  0.070463  0  1.038301  0
H  H35  1  0.67213219  0.47108926  0.69761661  1  0.142673  0  0.113794  0.141198  0  1.034982  0
H  H36  1  0.48890346  0.60883123  0.87770939  1  0.076116  0  0.096089  0.118062  0  1.026813  0
H  H37  1  0.71779512  0.60314179  0.98363281  1  0.07456  0  0.109856  0.085015  0  0.99953  0
H  H38  1  0.73128973  0.10300085  0.77724618  1  0.441436  0  0.27977  0.240949  0  1.042599  0
H  H39  1  0.39566240  0.05793762  0.74653505  1  0.459556  0  0.308146  0.262278  0  0.981381  0
H  H40  1  0.58086752  0.94084029  0.61789760  1  0.051337  0  0.115157  0.098532  0  0.974888  0
H  H41  1  0.62751768  0.00133718  0.71692781  1  0.07279  0  0.087763  0.066896  0  1.064728  0
H  H42  1  0.48446446  0.08542831  0.57366802  1  0.041241  0  0.108465  0.086627  0  1.004572  0
H  H43  1  0.46997974  0.10809919  0.67319833  1  0.058596  0  0.112527  0.09004  0  0.984358  0
H  H44  1  0.87200907  0.99643448  0.56462804  1  0.133639  0  0.11872  0.116046  0  0.987034  0
H  H45  1  0.71376277  0.93322081  0.54008345  1  0.04795  0  0.107761  0.082013  0  0.981564  0
H  H46  1  0.23959971  0.90220650  0.50866523  1  0.108489  0  0.118437  0.110898  0  0.986051  0
H  H47  1  0.41103957  0.93078765  0.50521869  1  0.034768  0  0.099184  0.063347  0  1.031418  0
H  H48  1  0.09932607  0.36949846  0.85326074  1  0.085662  0  0.087627  0.064879  0  1.069457  0
H  H49  1  0.01290826  0.23825151  0.75158264  1  0.144387  0  0.110685  0.141308  0  1.019498  0
H  H50  1  0.70392563  0.20664017  0.87904489  1  0.08225  0  0.091789  0.113258  0  1.040041  0
H  H51  1  0.80076163  0.33979601  0.97395345  1  0.097991  0  0.09128  0.069487  0  1.055124  0
H  H52  1  0.91572965  0.97366718  0.81107150  1  0.116825  0  0.101338  0.069732  0  1.039449  0
H  H53  1  0.02530164  0.97076452  0.69755250  1  0.134957  0  0.113839  0.140992  0  1.035606  0
H  H54  1  0.38894872  0.10879643  0.87740325  1  0.06416  0  0.096146  0.118427  0  1.02685  0
H  H55  1  0.26632534  0.10299665  0.98348973  1  0.078926  0  0.109831  0.08498  0  0.998941  0
H  H56  1  0.95415824  0.39691406  0.22292403  1  0.447768  0  0.280133  0.241395  0  1.041256  0
H  H57  1  0.64907812  0.44207069  0.25318514  1  0.452096  0  0.308179  0.26265  0  0.981532  0
H  H58  1  0.96333210  0.55909036  0.38220201  1  0.039095  0  0.115059  0.09843  0  0.974729  0
H  H59  1  0.91106535  0.49868704  0.28310376  1  0.069742  0  0.087458  0.066599  0  1.06461  0
H  H60  1  0.91071494  0.41431493  0.42612882  1  0.053467  0  0.108409  0.084273  0  1.006792  0
H  H61  1  0.79680212  0.39183568  0.32653300  1  0.040871  0  0.112557  0.089904  0  0.984296  0
H  H62  1  0.30774018  0.50363713  0.43558280  1  0.125139  0  0.119033  0.116957  0  0.985516  0
H  H63  1  0.17407338  0.56688401  0.45993245  1  0.018919  0  0.107536  0.082469  0  0.980401  0
H  H64  1  0.73109468  0.59760554  0.49105733  1  0.125141  0  0.118784  0.112056  0  0.98671  0
H  H65  1  0.90598902  0.56898194  0.49473601  1  0.003405  0  0.098894  0.063832  0  1.031765  0
H  H66  1  0.24621940  0.13077009  0.14675373  1  0.10864  0  0.087478  0.064442  0  1.069258  0
H  H67  1  0.26140422  0.26194653  0.24848858  1  0.167978  0  0.110335  0.141144  0  1.018506  0
H  H68  1  0.82473507  0.29305742  0.12113347  1  0.085997  0  0.091644  0.112683  0  1.040171  0
H  H69  1  0.82682406  0.16008034  0.02610439  1  0.103  0  0.091817  0.070082  0  1.054803  0
H  H70  1  0.10459517  0.52605011  0.18899473  1  0.108566  0  0.101941  0.070506  0  1.038223  0
H  H71  1  0.32786166  0.52889984  0.30239237  1  0.142705  0  0.113761  0.141176  0  1.034934  0
H  H72  1  0.51109863  0.39117216  0.12229972  1  0.076444  0  0.096112  0.118136  0  1.026827  0
H  H73  1  0.28221002  0.39685664  0.01637463  1  0.074347  0  0.109865  0.085013  0  0.999562  0
C  C74  1  0.39377999  0.99495866  0.34846228  1  0.281095  0  -0.065027  -0.086911  0  3.904211  0
C  C75  1  0.52571748  0.94388616  0.37587773  1  0.314658  0  -0.059292  -0.081724  0  3.914407  0
C  C76  1  0.24243467  0.00231462  0.44349797  1  0.263826  0  -0.057926  -0.07465  0  3.883589  0
C  C77  1  0.68925071  0.04503911  0.48717927  1  0.301166  0  -0.061479  -0.077668  0  3.912377  0
C  C78  1  0.18597663  0.89449008  0.32148940  1  1.81156  0  0.325116  0.566098  0  4.189796  0
C  C79  1  0.98853276  0.66865243  0.14301266  1  0.500177  0  0.02799  0.092794  0  4.002958  0
C  C80  1  0.03636690  0.74149428  0.19998949  1  -0.031828  0  -0.099529  -0.234532  0  3.925735  0
C  C81  1  0.15109976  0.78840434  0.19406168  1  0.346435  0  0.11794  0.306796  0  4.008836  0
C  C82  1  0.20885932  0.75854337  0.12924007  1  -0.028859  0  -0.102233  -0.236896  0  3.950203  0
C  C83  1  0.15407906  0.68500880  0.07577225  1  0.501764  0  0.03151  0.105926  0  3.984859  0
C  C84  1  0.75248841  0.00216261  0.36105789  1  1.827256  0  0.332411  0.574879  0  4.18526  0
C  C85  1  0.97889562  0.99741179  0.17692563  1  0.426146  0  0.033601  0.10285  0  3.999867  0
C  C86  1  0.91919396  0.99862578  0.24030956  1  0.065675  0  -0.096209  -0.231477  0  3.92769  0
C  C87  1  0.78260558  0.96118732  0.22183072  1  0.340958  0  0.124477  0.314435  0  4.011776  0
C  C88  1  0.71692699  0.92121244  0.14014381  1  0.001325  0  -0.098921  -0.240507  0  3.951494  0
C  C89  1  0.78466749  0.92422753  0.08082217  1  0.553331  0  0.039354  0.109149  0  3.989215  0
C  C90  1  0.04499138  0.50507932  0.65151014  1  0.300845  0  -0.065108  -0.08742  0  3.905355  0
C  C91  1  0.14976575  0.55624795  0.62427551  1  0.31394  0  -0.059295  -0.079714  0  3.913915  0
C  C92  1  0.79862303  0.49758928  0.55636944  1  0.293918  0  -0.058468  -0.076744  0  3.885849  0
C  C93  1  0.20200323  0.45514804  0.51297190  1  0.316095  0  -0.061722  -0.079438  0  3.913431  0
C  C94  1  0.86432748  0.60556419  0.67831678  1  1.822204  0  0.324058  0.56375  0  4.195063  0
C  C95  1  0.84541967  0.83120081  0.85696146  1  0.397925  0  0.028675  0.09507  0  4.002946  0
C  C96  1  0.83630391  0.75841302  0.79991982  1  0.006793  0  -0.099288  -0.235948  0  3.925951  0
C  C97  1  0.95702714  0.71165869  0.80578485  1  0.345775  0  0.118556  0.308466  0  4.007525  0
C  C98  1  0.07966303  0.74160134  0.87060016  1  0.028216  0  -0.102841  -0.237012  0  3.948372  0
C  C99  1  0.07829979  0.81507818  0.92412775  1  0.435922  0  0.031295  0.104985  0  3.9837  0
C  C100  1  0.39128847  0.49802416  0.63915110  1  1.825326  0  0.333009  0.576639  0  4.184081  0
C  C101  1  0.80207829  0.50285464  0.82306977  1  0.438213  0  0.032916  0.10164  0  4.000788  0
C  C102  1  0.67891234  0.50166801  0.75975916  1  0.055009  0  -0.096762  -0.232461  0  3.928768  0
C  C103  1  0.56088995  0.53901323  0.77833541  1  0.323328  0  0.124172  0.314197  0  4.010641  0
C  C104  1  0.57711567  0.57892141  0.86004528  1  0.077259  0  -0.09937  -0.239508  0  3.950807  0
C  C105  1  0.70427802  0.57594953  0.91929292  1  0.463266  0  0.03936  0.10783  0  3.991911  0
C  C106  1  0.60623598  0.00504107  0.65153920  1  0.280629  0  -0.065114  -0.092093  0  3.902567  0
C  C107  1  0.47429698  0.05611355  0.62412541  1  0.31429  0  -0.059193  -0.081779  0  3.91523  0
C  C108  1  0.75758099  0.99768510  0.55650425  1  0.263807  0  -0.057938  -0.079271  0  3.881924  0
C  C109  1  0.31076705  0.95496122  0.51282406  1  0.300671  0  -0.06151  -0.077355  0  3.910971  0
C  C110  1  0.81403138  0.10551214  0.67851071  1  1.81164  0  0.325196  0.561427  0  4.190116  0
C  C111  1  0.01146418  0.33135529  0.85699702  1  0.500266  0  0.027931  0.092566  0  4.002941  0
C  C112  1  0.96363696  0.25851410  0.80001554  1  -0.032003  0  -0.099465  -0.2344  0  3.925623  0
C  C113  1  0.84890320  0.21160285  0.80593705  1  0.346938  0  0.117941  0.306971  0  4.00863  0
C  C114  1  0.79113448  0.24146322  0.87075685  1  -0.028908  0  -0.102231  -0.236917  0  3.949878  0
C  C115  1  0.84590655  0.31499899  0.92422928  1  0.502192  0  0.031459  0.10594  0  3.98458  0
C  C116  1  0.24751992  0.99783594  0.63893584  1  1.827614  0  0.332506  0.574979  0  4.185138  0
C  C117  1  0.02110426  0.00258430  0.82306575  1  0.425124  0  0.033478  0.102751  0  4.000012  0
C  C118  1  0.08081443  0.00137029  0.75968293  1  0.066266  0  -0.096246  -0.231471  0  3.927797  0
C  C119  1  0.21739653  0.03881680  0.77816474  1  0.340824  0  0.124502  0.314354  0  4.012137  0
C  C120  1  0.28307510  0.07878918  0.85985456  1  0.001238  0  -0.099  -0.24049  0  3.95129  0
C  C121  1  0.21531684  0.07577594  0.91917661  1  0.553034  0  0.039335  0.109005  0  3.989215  0
C  C122  1  0.95500849  0.49491853  0.34849199  1  0.301223  0  -0.065159  -0.087473  0  3.905591  0
C  C123  1  0.85023806  0.44374496  0.37572477  1  0.314041  0  -0.059239  -0.079715  0  3.913934  0
C  C124  1  0.20137282  0.50240612  0.44362948  1  0.29413  0  -0.058471  -0.076739  0  3.885719  0
C  C125  1  0.79799223  0.54484613  0.48702544  1  0.315743  0  -0.061735  -0.079444  0  3.913382  0
C  C126  1  0.13566326  0.39443556  0.32168063  1  1.82228  0  0.324002  0.563688  0  4.194691  0
C  C127  1  0.15456684  0.16880021  0.14303291  1  0.398065  0  0.028669  0.095111  0  4.002901  0
C  C128  1  0.16368270  0.24158864  0.20007260  1  0.006816  0  -0.099314  -0.236006  0  3.92608  0
C  C129  1  0.04296185  0.28834166  0.19421510  1  0.345705  0  0.118579  0.30853  0  4.007442  0
C  C130  1  0.92031919  0.25840151  0.12939751  1  -0.021346  0  -0.102872  -0.237005  0  3.947973  0
C  C131  1  0.92168743  0.18492217  0.07587255  1  0.485546  0  0.031237  0.104946  0  3.983668  0
C  C132  1  0.60870547  0.50196748  0.36085082  1  1.825699  0  0.332715  0.576224  0  4.184714  0
C  C133  1  0.19791508  0.49713820  0.17693805  1  0.438651  0  0.03281  0.10149  0  4.00081  0
C  C134  1  0.32107835  0.49832422  0.24024698  1  0.054582  0  -0.096768  -0.232499  0  3.928619  0
C  C135  1  0.43910787  0.46098022  0.22167374  1  0.323502  0  0.124249  0.314275  0  4.010401  0
C  C136  1  0.42288149  0.42107391  0.13996234  1  0.076015  0  -0.099343  -0.239563  0  3.95099  0
C  C137  1  0.29573143  0.42404576  0.08071853  1  0.463999  0  0.039215  0.107672  0  3.992215  0
I  I138  1  0.21504251  0.53034494  0.89424437  1  -0.641675  0  -0.287297  -0.554406  0  1.097093  0
I  I139  1  0.32073537  0.96997169  0.10578726  1  -0.642522  0  -0.287382  -0.554401  0  1.097179  0
I  I140  1  0.78498346  0.46965846  0.10576218  1  -0.641896  0  -0.287596  -0.554728  0  1.096254  0
I  I141  1  0.67927444  0.03002923  0.89421981  1  -0.642375  0  -0.287217  -0.554161  0  1.097668  0
N  N142  1  0.26676055  0.96603704  0.36495110  1  -1.136324  0  -0.295868  -0.176522  0  3.58555  0
N  N143  1  0.65818259  0.99426066  0.40501645  1  -1.1688  0  -0.294035  -0.168996  0  3.618919  0
N  N144  1  0.21142786  0.86167454  0.24692162  1  -1.255768  0  -0.408003  -0.413127  0  3.567994  0
N  N145  1  0.04548941  0.63920134  0.08190911  1  -1.247798  0  -0.342779  -0.264895  0  3.496418  0
N  N146  1  0.70786141  0.96220031  0.27863241  1  -1.266298  0  -0.402534  -0.407808  0  3.550112  0
N  N147  1  0.91350079  0.96261756  0.09822232  1  -1.252914  0  -0.355342  -0.254076  0  3.569864  0
N  N148  1  0.90149035  0.53396073  0.63493174  1  -1.138082  0  -0.294783  -0.174185  0  3.586448  0
N  N149  1  0.25304914  0.50592547  0.59515616  1  -1.165896  0  -0.293117  -0.16675  0  3.616405  0
N  N150  1  0.96442804  0.63841587  0.75289666  1  -1.262433  0  -0.407458  -0.412087  0  3.567585  0
N  N151  1  0.96348580  0.86070066  0.91808583  1  -1.230748  0  -0.343369  -0.265638  0  3.497175  0
N  N152  1  0.42922782  0.53792701  0.72159407  1  -1.250822  0  -0.402602  -0.408703  0  3.549057  0
N  N153  1  0.81559640  0.53763897  0.90177941  1  -1.245865  0  -0.354835  -0.252498  0  3.571299  0
N  N154  1  0.73325194  0.03396639  0.63505255  1  -1.135931  0  -0.295887  -0.161046  0  3.567865  0
N  N155  1  0.34183186  0.00573845  0.59498450  1  -1.168409  0  -0.294148  -0.169001  0  3.618707  0
N  N156  1  0.78858001  0.13833202  0.75307878  1  -1.255699  0  -0.408035  -0.413613  0  3.569711  0
N  N157  1  0.95450356  0.36080764  0.91809885  1  -1.248441  0  -0.342699  -0.264842  0  3.496484  0
N  N158  1  0.29214798  0.03779759  0.72136443  1  -1.266667  0  -0.402585  -0.407839  0  3.550503  0
N  N159  1  0.08648832  0.03737976  0.90177005  1  -1.252571  0  -0.355097  -0.253668  0  3.569942  0
N  N160  1  0.09850579  0.46604026  0.36506696  1  -1.138441  0  -0.294756  -0.174027  0  3.586326  0
N  N161  1  0.74694670  0.49406433  0.40484431  1  -1.165656  0  -0.292962  -0.16656  0  3.616221  0
N  N162  1  0.03555421  0.36158450  0.24710184  1  -1.262198  0  -0.407406  -0.41212  0  3.567666  0
N  N163  1  0.03650017  0.13930038  0.08190589  1  -1.230842  0  -0.34333  -0.265648  0  3.497127  0
N  N164  1  0.57077030  0.46206525  0.27840787  1  -1.251068  0  -0.402649  -0.408627  0  3.548912  0
N  N165  1  0.18440737  0.46236320  0.09822704  1  -1.245476  0  -0.354754  -0.252393  0  3.571195  0
O  O166  1  0.09861943  0.86282373  0.34772964  1  -1.152095  0  -0.306494  -0.511378  0  2.091612  0
O  O167  1  0.86707821  0.04226656  0.39286725  1  -1.157582  0  -0.300025  -0.505126  0  2.110702  0
O  O168  1  0.75084116  0.63726251  0.65201401  1  -1.158402  0  -0.306833  -0.511747  0  2.0937  0
O  O169  1  0.47395952  0.45790815  0.60732234  1  -1.145655  0  -0.300548  -0.506966  0  2.110471  0
O  O170  1  0.90138821  0.13717787  0.65227110  1  -1.152219  0  -0.306515  -0.511717  0  2.093745  0
O  O171  1  0.13292165  0.95773820  0.60712603  1  -1.15755  0  -0.299955  -0.505034  0  2.11062  0
O  O172  1  0.24914958  0.36273415  0.34798203  1  -1.158516  0  -0.306781  -0.511683  0  2.09354  0
O  O173  1  0.52604036  0.54208470  0.39268353  1  -1.1456  0  -0.300353  -0.506774  0  2.110951  0
