# generated using pymatgen
data_Cu2Si2H42C28S2I2O3
_symmetry_space_group_name_H-M   'P 1'
_cell_length_a   16.54263265
_cell_length_b   16.54734747
_cell_length_c   18.73955784
_cell_angle_alpha   116.19883869
_cell_angle_beta   116.18509758
_cell_angle_gamma   89.98913197
_symmetry_Int_Tables_number   1
_chemical_formula_structural   Cu2Si2H42C28S2I2O3
_chemical_formula_sum   'Cu8 Si8 H168 C112 S8 I8 O12'
_cell_volume   4007.87569609
_cell_formula_units_Z   4
loop_
 _symmetry_equiv_pos_site_id
 _symmetry_equiv_pos_as_xyz
  1  'x, y, z'
loop_
 _atom_site_type_symbol
 _atom_site_label
 _atom_site_symmetry_multiplicity
 _atom_site_fract_x
 _atom_site_fract_y
 _atom_site_fract_z
 _atom_site_occupancy
 _atom_site_pbe_bader_charge
 _atom_site_pbe_bader_spin_density
 _atom_site_pbe_cm5_charge
 _atom_site_pbe_ddec_charge
 _atom_site_pbe_ddec_spin_density
 _atom_site_pbe_ddec_sum_bond_order
 _atom_site_pbe_magmom
Cu  Cu0  1  0.28438076  0.86007595  0.55995429  1  0.32192  0  0.185497  0.070202  0  2.880727  0
Cu  Cu1  1  0.27552177  0.70009723  0.55997599  1  0.315431  0  0.185388  0.069888  0  2.880258  0
Cu  Cu2  1  0.70012971  0.28436103  0.56002928  1  0.31547  0  0.185646  0.069905  0  2.881661  0
Cu  Cu3  1  0.86006953  0.27554057  0.56000480  1  0.322553  0  0.185623  0.070557  0  2.879948  0
Cu  Cu4  1  0.71561345  0.13992780  0.44004581  1  0.321867  0  0.185458  0.070135  0  2.880742  0
Cu  Cu5  1  0.72447743  0.29990749  0.44002767  1  0.315369  0  0.185367  0.069915  0  2.88021  0
Cu  Cu6  1  0.29986930  0.71563897  0.43997143  1  0.315378  0  0.185658  0.069914  0  2.881683  0
Cu  Cu7  1  0.13992868  0.72445471  0.43999512  1  0.322598  0  0.18559  0.070521  0  2.879957  0
Si  Si8  1  0.40254849  0.31928917  0.89318620  1  3.075018  0  0.409384  1.536103  0  4.035432  0
Si  Si9  1  0.49072872  0.57408403  0.89332909  1  3.073447  0  0.409119  1.536741  0  4.033156  0
Si  Si10  1  0.57395788  0.40256820  0.89320917  1  3.07411  0  0.409257  1.53638  0  4.034291  0
Si  Si11  1  0.31932539  0.49078975  0.89331074  1  3.078814  0  0.409879  1.538789  0  4.030193  0
Si  Si12  1  0.59745139  0.68071285  0.10681261  1  3.074807  0  0.409438  1.536142  0  4.035342  0
Si  Si13  1  0.50926939  0.42591514  0.10666726  1  3.073314  0  0.409143  1.536732  0  4.03304  0
Si  Si14  1  0.42603978  0.59743064  0.10678813  1  3.074122  0  0.409274  1.536407  0  4.034151  0
Si  Si15  1  0.68067414  0.50921379  0.10668841  1  3.078827  0  0.409902  1.538858  0  4.03004  0
H  H16  1  0.29911071  0.00492841  0.75030676  1  0.090823  0  0.090186  0.10923  0  1.013167  0
H  H17  1  0.45101746  0.74551909  0.75030035  1  0.082305  0  0.090168  0.109249  0  1.013313  0
H  H18  1  0.74564665  0.29926954  0.75042877  1  0.097245  0  0.090188  0.109205  0  1.012783  0
H  H19  1  0.00490013  0.45106632  0.75044984  1  0.091556  0  0.090271  0.109492  0  1.013054  0
H  H20  1  0.70088766  0.99507329  0.24969194  1  0.090765  0  0.090197  0.109241  0  1.013167  0
H  H21  1  0.54898002  0.25447823  0.24969608  1  0.082348  0  0.090151  0.109215  0  1.013341  0
H  H22  1  0.25434915  0.70073049  0.24956876  1  0.0968  0  0.09018  0.109173  0  1.01281  0
H  H23  1  0.99509797  0.54893015  0.24954652  1  0.091522  0  0.090293  0.109561  0  1.013095  0
H  H24  1  0.41111663  0.98676834  0.77257470  1  0.073269  0  0.090178  0.096792  0  1.010245  0
H  H25  1  0.36123064  0.78588803  0.77253665  1  0.082345  0  0.0902  0.096951  0  1.010091  0
H  H26  1  0.78604030  0.41120331  0.77261930  1  0.054903  0  0.090041  0.096617  0  1.009495  0
H  H27  1  0.98682698  0.36133633  0.77268432  1  0.066685  0  0.090172  0.096766  0  1.010176  0
H  H28  1  0.58888175  0.01323335  0.22742400  1  0.073208  0  0.090148  0.096765  0  1.010217  0
H  H29  1  0.63877058  0.21411415  0.22746140  1  0.082353  0  0.0902  0.096919  0  1.010167  0
H  H30  1  0.21395702  0.58879569  0.22737834  1  0.054746  0  0.090047  0.096658  0  1.009492  0
H  H31  1  0.01317451  0.63866112  0.22731400  1  0.066405  0  0.090156  0.096743  0  1.010178  0
H  H32  1  0.47197866  0.15874180  0.83957760  1  0.049372  0  0.093714  0.083522  0  1.001378  0
H  H33  1  0.36748756  0.68095075  0.83963715  1  0.044117  0  0.0937  0.083073  0  1.001534  0
H  H34  1  0.68108969  0.47217844  0.83971520  1  0.046185  0  0.093522  0.082913  0  1.002066  0
H  H35  1  0.15888560  0.36756051  0.83971901  1  0.037594  0  0.093684  0.083435  0  1.001757  0
H  H36  1  0.52802204  0.84126004  0.16042408  1  0.049376  0  0.093694  0.083534  0  1.00142  0
H  H37  1  0.63251598  0.31905158  0.16036388  1  0.043906  0  0.093714  0.083099  0  1.001473  0
H  H38  1  0.31891074  0.52782273  0.16028622  1  0.046191  0  0.093539  0.082921  0  1.002063  0
H  H39  1  0.84111536  0.63244151  0.16028086  1  0.037607  0  0.093686  0.083424  0  1.001719  0
H  H40  1  0.42594293  0.13721157  0.89996071  1  0.036377  0  0.095246  0.088959  0  0.966438  0
H  H41  1  0.47382414  0.76292379  0.89994392  1  0.034287  0  0.095093  0.088444  0  0.966809  0
H  H42  1  0.76294153  0.42607206  0.90005028  1  0.0425  0  0.094909  0.088014  0  0.967104  0
H  H43  1  0.13721308  0.47388351  0.90005501  1  0.035247  0  0.095168  0.088726  0  0.96694  0
H  H44  1  0.57405475  0.86278911  0.10003867  1  0.036342  0  0.095268  0.089032  0  0.966552  0
H  H45  1  0.52617734  0.23707772  0.10005440  1  0.034216  0  0.095099  0.088468  0  0.966817  0
H  H46  1  0.23706049  0.57392859  0.09995065  1  0.042508  0  0.09488  0.087973  0  0.967192  0
H  H47  1  0.86278769  0.52611648  0.09994191  1  0.035162  0  0.095158  0.088729  0  0.967005  0
H  H48  1  0.28114748  0.18129117  0.82603003  1  0.041397  0  0.098138  0.149431  0  1.020056  0
H  H49  1  0.54478566  0.64497626  0.82603358  1  0.04083  0  0.098236  0.149326  0  1.020179  0
H  H50  1  0.64490576  0.28132518  0.82596173  1  0.036306  0  0.098374  0.149914  0  1.020184  0
H  H51  1  0.18109428  0.54476517  0.82602234  1  0.059266  0  0.098224  0.149603  0  1.020085  0
H  H52  1  0.71885268  0.81871068  0.17397113  1  0.041487  0  0.09814  0.149438  0  1.020045  0
H  H53  1  0.45521778  0.35502641  0.17396598  1  0.040796  0  0.098218  0.149277  0  1.020263  0
H  H54  1  0.35509770  0.71867764  0.17404407  1  0.036214  0  0.098358  0.14994  0  1.020084  0
H  H55  1  0.81890559  0.45523179  0.17397231  1  0.059277  0  0.098251  0.149604  0  1.020016  0
H  H56  1  0.31040810  0.18222930  0.74692764  1  0.046569  0  0.096759  0.142218  0  1.033794  0
H  H57  1  0.43651146  0.56485182  0.74707602  1  0.061717  0  0.096883  0.142207  0  1.03396  0
H  H58  1  0.56489884  0.31070447  0.74697371  1  0.056374  0  0.096823  0.142717  0  1.033802  0
H  H59  1  0.18227365  0.43647369  0.74705795  1  0.052545  0  0.096776  0.142066  0  1.034105  0
H  H60  1  0.68958948  0.81777038  0.25307026  1  0.046632  0  0.096781  0.142278  0  1.033755  0
H  H61  1  0.56348887  0.43514783  0.25292185  1  0.061709  0  0.096879  0.142194  0  1.033865  0
H  H62  1  0.43510256  0.68929248  0.25302521  1  0.056372  0  0.096808  0.142692  0  1.033831  0
H  H63  1  0.81772836  0.56352325  0.25293882  1  0.052333  0  0.09678  0.142032  0  1.034158  0
H  H64  1  0.52243389  0.01883890  0.76137416  1  0.036338  0  0.091653  0.095352  0  1.068568  0
H  H65  1  0.23877098  0.74258610  0.76119642  1  0.040992  0  0.091523  0.094767  0  1.070154  0
H  H66  1  0.74268246  0.52249094  0.76148403  1  0.0404  0  0.091667  0.095389  0  1.069551  0
H  H67  1  0.01880219  0.23891041  0.76134976  1  0.064624  0  0.09161  0.094754  0  1.069841  0
H  H68  1  0.47756619  0.98115974  0.23862761  1  0.036395  0  0.091658  0.095392  0  1.068568  0
H  H69  1  0.76122881  0.25741897  0.23880091  1  0.041051  0  0.091503  0.094763  0  1.070141  0
H  H70  1  0.25731229  0.47751010  0.23851660  1  0.040366  0  0.091638  0.095311  0  1.069582  0
H  H71  1  0.98119646  0.76108656  0.23864920  1  0.064598  0  0.09163  0.09481  0  1.069787  0
H  H72  1  0.66759366  0.11057772  0.65822818  1  0.049085  0  0.081641  0.082653  0  1.072706  0
H  H73  1  0.99061136  0.54767927  0.65819180  1  0.050256  0  0.081616  0.083164  0  1.072589  0
H  H74  1  0.54769913  0.66746840  0.65810911  1  0.062408  0  0.081549  0.08303  0  1.072357  0
H  H75  1  0.11047862  0.99057714  0.65814359  1  0.045039  0  0.081675  0.083004  0  1.072903  0
H  H76  1  0.33240684  0.88941620  0.34176848  1  0.04908  0  0.081629  0.082619  0  1.072701  0
H  H77  1  0.00938880  0.45232663  0.34180936  1  0.050184  0  0.081631  0.083196  0  1.072708  0
H  H78  1  0.45230383  0.33253193  0.34188307  1  0.062215  0  0.081555  0.083073  0  1.072248  0
H  H79  1  0.88952246  0.00942013  0.34186192  1  0.045018  0  0.081702  0.083001  0  1.072964  0
H  H80  1  0.52224530  0.12573753  0.55323249  1  0.066261  0  0.094546  0.09556  0  1.026262  0
H  H81  1  0.03097742  0.42757242  0.55315113  1  0.09034  0  0.094614  0.095865  0  1.025271  0
H  H82  1  0.42764269  0.52208144  0.55307759  1  0.060553  0  0.094833  0.096252  0  1.025756  0
H  H83  1  0.12561185  0.03090354  0.55311782  1  0.057941  0  0.094603  0.095442  0  1.025998  0
H  H84  1  0.47775485  0.87425386  0.44676450  1  0.065956  0  0.094552  0.095555  0  1.026286  0
H  H85  1  0.96901804  0.57242693  0.44684883  1  0.090366  0  0.094656  0.095883  0  1.025353  0
H  H86  1  0.57236177  0.47791871  0.44691262  1  0.06056  0  0.094872  0.096223  0  1.025828  0
H  H87  1  0.87438079  0.96909177  0.44688487  1  0.057682  0  0.094608  0.095428  0  1.025865  0
H  H88  1  0.36402202  0.12298437  0.49489227  1  0.030875  0  0.092344  0.134249  0  0.998952  0
H  H89  1  0.13095599  0.37201241  0.49482872  1  0.038633  0  0.092321  0.134071  0  0.999102  0
H  H90  1  0.37213924  0.36394942  0.49487921  1  0.052893  0  0.092284  0.134209  0  0.999554  0
H  H91  1  0.12298178  0.13065450  0.49480304  1  0.038784  0  0.092478  0.134475  0  0.998728  0
H  H92  1  0.63597850  0.87701596  0.50510855  1  0.030805  0  0.092346  0.134284  0  0.998986  0
H  H93  1  0.86904876  0.62798667  0.50518527  1  0.038788  0  0.092262  0.134081  0  0.999059  0
H  H94  1  0.62785923  0.63605463  0.50512097  1  0.053004  0  0.092235  0.13415  0  0.999588  0
H  H95  1  0.87701724  0.86933739  0.50519767  1  0.038871  0  0.092476  0.134476  0  0.998786  0
H  H96  1  0.31826566  0.14171024  0.56971859  1  0.048478  0  0.08851  0.126104  0  1.004491  0
H  H97  1  0.25151491  0.42820013  0.56966345  1  0.027453  0  0.088072  0.125268  0  1.004925  0
H  H98  1  0.42833444  0.31828746  0.56978060  1  0.021761  0  0.088379  0.125899  0  1.004246  0
H  H99  1  0.14165089  0.25124673  0.56953335  1  0.019356  0  0.088458  0.125798  0  1.004623  0
H  H100  1  0.68173493  0.85828604  0.43027954  1  0.048421  0  0.088502  0.126141  0  1.004442  0
H  H101  1  0.74848913  0.57179609  0.43034914  1  0.030772  0  0.088105  0.125348  0  1.004922  0
H  H102  1  0.57165966  0.68171292  0.43021386  1  0.021619  0  0.088399  0.125939  0  1.004302  0
H  H103  1  0.85834749  0.74874551  0.43046535  1  0.019185  0  0.088443  0.125797  0  1.004606  0
H  H104  1  0.29750821  0.02822066  0.48204436  1  0.033375  0  0.074014  0.116065  0  1.059575  0
H  H105  1  0.18454798  0.45395954  0.48195706  1  0.061522  0  0.073926  0.115457  0  1.060232  0
H  H106  1  0.45409134  0.29744282  0.48204189  1  0.058576  0  0.073696  0.11549  0  1.060665  0
H  H107  1  0.02817708  0.18432216  0.48188848  1  0.032445  0  0.074391  0.116294  0  1.059626  0
H  H108  1  0.70249506  0.97177424  0.51795641  1  0.033514  0  0.074031  0.116114  0  1.059552  0
H  H109  1  0.81545639  0.54603280  0.51805102  1  0.061314  0  0.07396  0.115543  0  1.060264  0
H  H110  1  0.54590241  0.70255639  0.51795291  1  0.05909  0  0.073706  0.115503  0  1.060729  0
H  H111  1  0.97182005  0.81566722  0.51810829  1  0.032521  0  0.074386  0.116311  0  1.059649  0
H  H112  1  0.66470395  0.08271219  0.89349313  1  -0.005823  0  0.084588  0.116196  0  1.002985  0
H  H113  1  0.22868446  0.81083360  0.89349292  1  0.024065  0  0.084547  0.116071  0  1.003207  0
H  H114  1  0.81076421  0.66477735  0.89357949  1  0.01295  0  0.084815  0.11661  0  1.003206  0
H  H115  1  0.08266610  0.22865271  0.89350746  1  -0.015548  0  0.084604  0.116269  0  1.002463  0
H  H116  1  0.33529336  0.91728142  0.10650451  1  -0.005966  0  0.084631  0.116258  0  1.003147  0
H  H117  1  0.77132199  0.18916568  0.10650687  1  0.024195  0  0.084531  0.116049  0  1.003223  0
H  H118  1  0.18923613  0.33522146  0.10642046  1  0.012843  0  0.084806  0.116617  0  1.00317  0
H  H119  1  0.91733628  0.77135097  0.10649521  1  -0.015627  0  0.084601  0.116285  0  1.002497  0
H  H120  1  0.75496554  0.02403400  0.89667954  1  0.018109  0  0.083629  0.112558  0  1.011287  0
H  H121  1  0.14158574  0.87266534  0.89667258  1  0.02482  0  0.083735  0.112706  0  1.011084  0
H  H122  1  0.87258323  0.75503568  0.89675771  1  -0.001583  0  0.083881  0.113077  0  1.010614  0
H  H123  1  0.02393153  0.14158769  0.89662248  1  0.007667  0  0.083751  0.112861  0  1.010916  0
H  H124  1  0.24503399  0.97596229  0.10331753  1  0.018067  0  0.08362  0.112533  0  1.011324  0
H  H125  1  0.85842526  0.12733997  0.10333171  1  0.025106  0  0.083722  0.112697  0  1.011177  0
H  H126  1  0.12741809  0.24496076  0.10324182  1  -0.001604  0  0.083896  0.113057  0  1.01059  0
H  H127  1  0.97606963  0.85841819  0.10338242  1  0.007725  0  0.083744  0.112878  0  1.010839  0
H  H128  1  0.63810480  0.96228554  0.81395054  1  0.039808  0  0.080508  0.114054  0  1.0275  0
H  H129  1  0.17581564  0.85179491  0.81400015  1  0.009494  0  0.080436  0.114595  0  1.025881  0
H  H130  1  0.85179600  0.63817535  0.81412828  1  0.015136  0  0.080598  0.114435  0  1.026603  0
H  H131  1  0.96219467  0.17589384  0.81399558  1  0.026866  0  0.080259  0.11405  0  1.02671  0
H  H132  1  0.36189500  0.03771007  0.18604680  1  0.039944  0  0.080537  0.1141  0  1.027426  0
H  H133  1  0.82419439  0.14820922  0.18600663  1  0.009109  0  0.080414  0.114605  0  1.025845  0
H  H134  1  0.14820496  0.36182396  0.18587159  1  0.01516  0  0.08059  0.114436  0  1.026555  0
H  H135  1  0.03780738  0.82411052  0.18600951  1  0.026836  0  0.080232  0.114004  0  1.026781  0
H  H136  1  0.78593698  0.16669136  0.79918734  1  0.002749  0  0.079941  0.111488  0  1.036345  0
H  H137  1  0.01328728  0.63255087  0.79921860  1  0.014463  0  0.079888  0.111124  0  1.036772  0
H  H138  1  0.63238326  0.78580434  0.79921138  1  0.015868  0  0.079732  0.111063  0  1.036489  0
H  H139  1  0.16648884  0.01304514  0.79907036  1  0.020191  0  0.079806  0.111144  0  1.036365  0
H  H140  1  0.21406043  0.83330595  0.20081178  1  0.002261  0  0.079932  0.111492  0  1.036292  0
H  H141  1  0.98671277  0.36745302  0.20077691  1  0.014432  0  0.079902  0.111184  0  1.036717  0
H  H142  1  0.36761948  0.21419512  0.20079094  1  0.015875  0  0.079761  0.111135  0  1.036519  0
H  H143  1  0.83351001  0.98695705  0.20093364  1  0.02012  0  0.079813  0.111137  0  1.036277  0
H  H144  1  0.83989129  0.13807820  0.88753352  1  0.031717  0  0.083565  0.114481  0  1.009209  0
H  H145  1  0.04765393  0.74952438  0.88758581  1  -0.007612  0  0.083596  0.114401  0  1.008304  0
H  H146  1  0.74935142  0.83978630  0.88757428  1  -0.014203  0  0.083479  0.114447  0  1.009479  0
H  H147  1  0.13778580  0.04747604  0.88738213  1  0.004305  0  0.08356  0.114258  0  1.009164  0
H  H148  1  0.16010594  0.86192030  0.11246473  1  0.031998  0  0.08356  0.114479  0  1.00907  0
H  H149  1  0.95235049  0.25048048  0.11241542  1  -0.00751  0  0.083599  0.114444  0  1.008173  0
H  H150  1  0.25064955  0.16021351  0.11242767  1  -0.014199  0  0.083479  0.114495  0  1.009416  0
H  H151  1  0.86221376  0.95252716  0.11262118  1  0.004557  0  0.083549  0.114216  0  1.009185  0
H  H152  1  0.75373714  0.20272102  0.88560975  1  0.009091  0  0.084681  0.117484  0  1.008547  0
H  H153  1  0.13188559  0.68299882  0.88561333  1  0.016606  0  0.084494  0.117083  0  1.008554  0
H  H154  1  0.68283587  0.75361589  0.88561123  1  0.014698  0  0.084287  0.116781  0  1.00809  0
H  H155  1  0.20258453  0.13160306  0.88554964  1  0.02084  0  0.084464  0.117272  0  1.00874  0
H  H156  1  0.24625893  0.79727563  0.11438805  1  0.009055  0  0.084639  0.117424  0  1.008592  0
H  H157  1  0.86811686  0.31700437  0.11438457  1  0.016605  0  0.084496  0.117157  0  1.008537  0
H  H158  1  0.31716482  0.24638139  0.11438837  1  0.014682  0  0.084305  0.116817  0  1.008125  0
H  H159  1  0.79741350  0.86839796  0.11445148  1  0.020822  0  0.08444  0.117266  0  1.008732  0
H  H160  1  0.67665026  0.91055125  0.68492943  1  0.022343  0  0.082299  0.118453  0  1.015092  0
H  H161  1  0.00824095  0.77444606  0.68488876  1  -0.000338  0  0.082525  0.11868  0  1.01433  0
H  H162  1  0.77457125  0.67649755  0.68501630  1  0.02185  0  0.08238  0.11837  0  1.014415  0
H  H163  1  0.91036591  0.00849193  0.68483010  1  0.052974  0  0.082337  0.118166  0  1.015149  0
H  H164  1  0.32335007  0.08944570  0.31506844  1  0.022364  0  0.08228  0.118448  0  1.015155  0
H  H165  1  0.99176516  0.22556654  0.31511553  1  -0.000754  0  0.08254  0.118807  0  1.014287  0
H  H166  1  0.22543389  0.32350611  0.31498633  1  0.021909  0  0.082387  0.118376  0  1.014402  0
H  H167  1  0.08963197  0.99150857  0.31517431  1  0.05295  0  0.082384  0.118263  0  1.015144  0
H  H168  1  0.79483922  0.96602676  0.77094051  1  0.015671  0  0.082464  0.111748  0  1.013348  0
H  H169  1  0.97603985  0.80498459  0.77091679  1  0.016318  0  0.08224  0.111421  0  1.013976  0
H  H170  1  0.80503718  0.79470610  0.77099260  1  0.020818  0  0.082313  0.111723  0  1.013506  0
H  H171  1  0.96570921  0.97619517  0.77077547  1  0.008249  0  0.082243  0.111179  0  1.01366  0
H  H172  1  0.20516155  0.03397238  0.22905849  1  0.015747  0  0.082463  0.11174  0  1.013365  0
H  H173  1  0.02396992  0.19502882  0.22909180  1  0.016139  0  0.082261  0.111444  0  1.013994  0
H  H174  1  0.19496592  0.20529639  0.22901147  1  0.02079  0  0.082299  0.111711  0  1.013557  0
H  H175  1  0.03429001  0.02380785  0.22923235  1  0.008283  0  0.082296  0.111274  0  1.013628  0
H  H176  1  0.74142821  0.99274179  0.68100846  1  0.026793  0  0.084597  0.117594  0  1.027525  0
H  H177  1  0.93960858  0.68834364  0.68099502  1  0.009087  0  0.084202  0.11697  0  1.027823  0
H  H178  1  0.68844522  0.74127656  0.68100355  1  0.02422  0  0.084037  0.116846  0  1.027972  0
H  H179  1  0.99246827  0.93969026  0.68084882  1  0.019833  0  0.084431  0.117016  0  1.028053  0
H  H180  1  0.25857141  0.00725821  0.31899008  1  0.026667  0  0.084573  0.117575  0  1.027573  0
H  H181  1  0.06039648  0.31167082  0.31901028  1  0.008811  0  0.084244  0.117032  0  1.027599  0
H  H182  1  0.31155805  0.25872830  0.31899930  1  0.024173  0  0.084055  0.116898  0  1.027951  0
H  H183  1  0.00753050  0.06031057  0.31915787  1  0.01981  0  0.084396  0.117024  0  1.028016  0
C  C184  1  0.36542417  0.03264460  0.75942831  1  -0.156699  0  -0.151855  -0.182369  0  3.883744  0
C  C185  1  0.39383648  0.72689013  0.75941033  1  -0.15426  0  -0.151779  -0.182449  0  3.884155  0
C  C186  1  0.72701049  0.36554885  0.75950453  1  -0.14144  0  -0.151897  -0.182477  0  3.883211  0
C  C187  1  0.03268495  0.39388211  0.75952353  1  -0.151614  0  -0.152337  -0.18301  0  3.885026  0
C  C188  1  0.63457581  0.96735843  0.24057198  1  -0.156666  0  -0.151837  -0.182305  0  3.883733  0
C  C189  1  0.60616189  0.27310651  0.24058421  1  -0.154356  0  -0.151772  -0.182371  0  3.884158  0
C  C190  1  0.27298745  0.63445251  0.24049512  1  -0.140653  0  -0.151892  -0.182477  0  3.88314  0
C  C191  1  0.96731645  0.60611484  0.24047539  1  -0.151254  0  -0.152385  -0.183096  0  3.885032  0
C  C192  1  0.40676269  0.13369504  0.83419106  1  -0.024254  0  -0.157924  -0.068031  0  3.980729  0
C  C193  1  0.42728992  0.70064162  0.83422697  1  -0.018794  0  -0.157837  -0.066988  0  3.979315  0
C  C194  1  0.70071180  0.40696932  0.83430192  1  -0.027869  0  -0.157307  -0.065535  0  3.979462  0
C  C195  1  0.13377146  0.42732997  0.83430213  1  -0.013871  0  -0.15757  -0.067615  0  3.981789  0
C  C196  1  0.59323499  0.86630700  0.16580832  1  -0.024282  0  -0.157973  -0.068244  0  3.98095  0
C  C197  1  0.57271228  0.29936005  0.16577274  1  -0.018543  0  -0.157817  -0.067045  0  3.979497  0
C  C198  1  0.29928871  0.59303236  0.16569890  1  -0.02805  0  -0.157281  -0.065469  0  3.979455  0
C  C199  1  0.86622692  0.57266718  0.16569449  1  -0.013769  0  -0.157492  -0.067514  0  3.981729  0
C  C200  1  0.34037272  0.19622929  0.81791123  1  -0.744857  0  -0.208464  -0.61787  0  3.939401  0
C  C201  1  0.47748993  0.62188966  0.81801226  1  -0.749205  0  -0.208619  -0.617914  0  3.939009  0
C  C202  1  0.62185298  0.34059142  0.81794404  1  -0.744709  0  -0.208694  -0.619708  0  3.940612  0
C  C203  1  0.19621095  0.47751616  0.81801986  1  -0.769813  0  -0.208653  -0.618358  0  3.940706  0
C  C204  1  0.65962398  0.80377242  0.18208857  1  -0.74477  0  -0.208458  -0.61789  0  3.939388  0
C  C205  1  0.52251181  0.37810931  0.18198424  1  -0.749112  0  -0.208622  -0.617805  0  3.938996  0
C  C206  1  0.37814887  0.65940956  0.18205810  1  -0.744629  0  -0.208685  -0.61976  0  3.940489  0
C  C207  1  0.80378768  0.52248250  0.18197494  1  -0.769623  0  -0.208719  -0.618425  0  3.940813  0
C  C208  1  0.44007477  0.05115525  0.65575498  1  -0.146655  0  -0.017769  -0.000188  0  3.955762  0
C  C209  1  0.21555521  0.60466797  0.65560409  1  -0.218609  0  -0.017487  0.000388  0  3.955419  0
C  C210  1  0.60480732  0.44007047  0.65573333  1  -0.190509  0  -0.017286  0.000918  0  3.956117  0
C  C211  1  0.05115152  0.21565130  0.65573236  1  -0.214373  0  -0.017188  0.000398  0  3.954197  0
C  C212  1  0.55992290  0.94884273  0.34424440  1  -0.146677  0  -0.017743  -0.000169  0  3.95578  0
C  C213  1  0.78444638  0.39533235  0.34439779  1  -0.218775  0  -0.017488  0.000399  0  3.95545  0
C  C214  1  0.39519178  0.55993138  0.34426676  1  -0.190656  0  -0.017333  0.000806  0  3.956048  0
C  C215  1  0.94884340  0.78434940  0.34426706  1  -0.214522  0  -0.0172  0.000434  0  3.954124  0
C  C216  1  0.52344763  0.04356464  0.71680250  1  -0.014436  0  -0.106842  -0.187609  0  4.020769  0
C  C217  1  0.19322185  0.67329054  0.71663974  1  -0.011669  0  -0.106994  -0.187754  0  4.021747  0
C  C218  1  0.67339813  0.52343788  0.71682279  1  -0.015585  0  -0.107321  -0.188599  0  4.022817  0
C  C219  1  0.04351402  0.19331758  0.71675335  1  -0.038845  0  -0.10766  -0.188237  0  4.021524  0
C  C220  1  0.47655084  0.95643352  0.28319560  1  -0.014442  0  -0.106858  -0.187656  0  4.020597  0
C  C221  1  0.80678063  0.32670960  0.28336232  1  -0.011497  0  -0.106973  -0.187721  0  4.021639  0
C  C222  1  0.32659957  0.47656516  0.28318075  1  -0.015014  0  -0.107245  -0.18844  0  4.022785  0
C  C223  1  0.95648454  0.80668023  0.28324622  1  -0.038847  0  -0.107682  -0.18827  0  4.021423  0
C  C224  1  0.60727479  0.06528133  0.72037256  1  -0.043009  0  -0.01105  0.057839  0  3.892637  0
C  C225  1  0.11300625  0.65514224  0.72028148  1  -0.056982  0  -0.010951  0.058612  0  3.890862  0
C  C226  1  0.65515321  0.60721521  0.72034546  1  0.020463  0  -0.011059  0.058725  0  3.890871  0
C  C227  1  0.06520613  0.11305951  0.72031841  1  0.015991  0  -0.010713  0.058595  0  3.89192  0
C  C228  1  0.39272004  0.93471431  0.27962539  1  -0.043185  0  -0.011003  0.057861  0  3.892504  0
C  C229  1  0.88699487  0.34485894  0.27971509  1  -0.057117  0  -0.010983  0.058648  0  3.89076  0
C  C230  1  0.34484650  0.39278529  0.27965248  1  0.019903  0  -0.011055  0.058756  0  3.890739  0
C  C231  1  0.93479102  0.88693628  0.27968253  1  0.016429  0  -0.010658  0.058497  0  3.891915  0
C  C232  1  0.60452375  0.09415268  0.65946409  1  -0.005006  0  -0.099587  -0.124497  0  3.985077  0
C  C233  1  0.05487582  0.56537841  0.65938279  1  0.036863  0  -0.100283  -0.126133  0  3.985532  0
C  C234  1  0.56539765  0.60443236  0.65936077  1  -0.110393  0  -0.099732  -0.125371  0  3.985917  0
C  C235  1  0.09406099  0.05488528  0.65939327  1  -0.076013  0  -0.10013  -0.12557  0  3.985256  0
C  C236  1  0.39548103  0.90584710  0.34053888  1  -0.004408  0  -0.099622  -0.124478  0  3.985039  0
C  C237  1  0.94512575  0.43462681  0.34061700  1  0.037231  0  -0.100336  -0.126211  0  3.985495  0
C  C238  1  0.43460426  0.39556898  0.34063451  1  -0.110215  0  -0.099802  -0.125557  0  3.985927  0
C  C239  1  0.90593474  0.94511204  0.34060695  1  -0.075925  0  -0.100067  -0.125401  0  3.985161  0
C  C240  1  0.52181703  0.10266265  0.59938574  1  -0.05431  0  -0.094477  -0.133554  0  3.998156  0
C  C241  1  0.07752210  0.49680372  0.59926702  1  -0.10105  0  -0.094401  -0.134282  0  3.998757  0
C  C242  1  0.49686956  0.52171235  0.59927304  1  -0.032654  0  -0.094758  -0.134542  0  4.000587  0
C  C243  1  0.10257663  0.07752362  0.59930540  1  -0.050138  0  -0.094345  -0.133292  0  3.997938  0
C  C244  1  0.47818562  0.89733310  0.40061511  1  -0.054253  0  -0.094455  -0.133542  0  3.998171  0
C  C245  1  0.92247780  0.50319880  0.40073387  1  -0.105311  0  -0.094407  -0.134259  0  3.99876  0
C  C246  1  0.50312817  0.47828734  0.40071948  1  -0.032597  0  -0.094805  -0.134511  0  4.000579  0
C  C247  1  0.89741519  0.92247138  0.40069233  1  -0.050318  0  -0.094371  -0.133258  0  3.997583  0
C  C248  1  0.43769008  0.08264354  0.59636801  1  -0.017197  0  -0.0143  0.125529  0  3.957375  0
C  C249  1  0.15859853  0.51380393  0.59623097  1  0.034989  0  -0.014242  0.125806  0  3.959656  0
C  C250  1  0.51392730  0.43764676  0.59629508  1  0.027676  0  -0.014187  0.12546  0  3.958645  0
C  C251  1  0.08260431  0.15861392  0.59628752  1  0.06335  0  -0.01446  0.125969  0  3.957803  0
C  C252  1  0.56231035  0.91735308  0.40363133  1  -0.017344  0  -0.014352  0.12552  0  3.95738  0
C  C253  1  0.84140201  0.48619470  0.40377401  1  0.039243  0  -0.014284  0.125749  0  3.959659  0
C  C254  1  0.48607151  0.56235613  0.40370058  1  0.02757  0  -0.014161  0.125577  0  3.95844  0
C  C255  1  0.91739177  0.84138003  0.40371028  1  0.06341  0  -0.014571  0.125764  0  3.957914  0
C  C256  1  0.34991869  0.09462896  0.53237258  1  -0.057738  0  -0.245546  -0.414488  0  3.983856  0
C  C257  1  0.18248586  0.43786711  0.53229411  1  -0.07465  0  -0.245133  -0.412812  0  3.984307  0
C  C258  1  0.43799566  0.34989455  0.53236142  1  -0.073092  0  -0.245274  -0.413791  0  3.984939  0
C  C259  1  0.09459198  0.18226080  0.53223298  1  -0.033005  0  -0.245941  -0.414733  0  3.984367  0
C  C260  1  0.65008290  0.90536865  0.46762930  1  -0.057797  0  -0.245548  -0.414617  0  3.983764  0
C  C261  1  0.81751941  0.56212691  0.46771625  1  -0.077966  0  -0.245098  -0.41297  0  3.984515  0
C  C262  1  0.56199942  0.65011157  0.46763262  1  -0.073516  0  -0.245242  -0.413799  0  3.985012  0
C  C263  1  0.90540427  0.81773146  0.46776361  1  -0.032981  0  -0.245898  -0.414694  0  3.984378  0
C  C264  1  0.69846410  0.05454051  0.78509475  1  0.07179  0  -0.012218  0.239594  0  3.794362  0
C  C265  1  0.08656935  0.73062990  0.78505895  1  0.070046  0  -0.012231  0.240339  0  3.791571  0
C  C266  1  0.73058826  0.69841674  0.78511060  1  0.070538  0  -0.012174  0.239579  0  3.792452  0
C  C267  1  0.05438547  0.08659816  0.78501159  1  0.062841  0  -0.012353  0.23876  0  3.795574  0
C  C268  1  0.30153588  0.94545527  0.21490345  1  0.072098  0  -0.012237  0.239488  0  3.794405  0
C  C269  1  0.91343649  0.26937612  0.21494299  1  0.069682  0  -0.012199  0.24014  0  3.792013  0
C  C270  1  0.26941146  0.30158157  0.21488942  1  0.071037  0  -0.012179  0.23955  0  3.792521  0
C  C271  1  0.94561089  0.91340151  0.21499063  1  0.062909  0  -0.012276  0.239012  0  3.795312  0
C  C272  1  0.68774874  0.02942191  0.85073446  1  -0.067838  0  -0.243347  -0.409911  0  3.916611  0
C  C273  1  0.16290842  0.82135747  0.85074274  1  -0.072294  0  -0.243358  -0.410836  0  3.914693  0
C  C274  1  0.82131974  0.68779353  0.85083029  1  -0.039247  0  -0.244077  -0.411667  0  3.91654  0
C  C275  1  0.02933339  0.16292778  0.85072098  1  -0.029265  0  -0.243439  -0.410433  0  3.915741  0
C  C276  1  0.31224589  0.97056987  0.14925845  1  -0.068108  0  -0.2434  -0.409942  0  3.916745  0
C  C277  1  0.83710017  0.17864313  0.14925917  1  -0.072172  0  -0.243258  -0.410689  0  3.91464  0
C  C278  1  0.17868087  0.31220460  0.14916992  1  -0.03912  0  -0.244047  -0.411602  0  3.916468  0
C  C279  1  0.97066643  0.83707474  0.14928260  1  -0.029329  0  -0.243478  -0.410522  0  3.915776  0
C  C280  1  0.77369914  0.14595680  0.84247056  1  -0.058816  0  -0.242293  -0.41041  0  3.901344  0
C  C281  1  0.06874412  0.69656541  0.84245921  1  -0.033718  0  -0.241954  -0.409631  0  3.899487  0
C  C282  1  0.69643015  0.77360488  0.84246694  1  -0.029735  0  -0.241488  -0.409162  0  3.899488  0
C  C283  1  0.14574768  0.06857849  0.84234367  1  -0.053977  0  -0.241921  -0.409497  0  3.901138  0
C  C284  1  0.22629925  0.85403949  0.15752814  1  -0.058654  0  -0.242242  -0.410326  0  3.901109  0
C  C285  1  0.93125692  0.30344116  0.15754005  1  -0.033925  0  -0.242021  -0.409828  0  3.899546  0
C  C286  1  0.30357375  0.22639643  0.15753584  1  -0.029869  0  -0.241527  -0.409328  0  3.899615  0
C  C287  1  0.85425187  0.93142285  0.15765756  1  -0.05408  0  -0.241919  -0.409502  0  3.900991  0
C  C288  1  0.72970409  0.97634219  0.72693611  1  -0.060359  0  -0.242224  -0.408774  0  3.882792  0
C  C289  1  0.99720580  0.75070036  0.72692908  1  -0.025518  0  -0.241766  -0.408117  0  3.882933  0
C  C290  1  0.75075664  0.72959060  0.72699540  1  -0.065585  0  -0.241392  -0.407543  0  3.882752  0
C  C291  1  0.97610179  0.99734271  0.72681191  1  -0.0822  0  -0.241713  -0.406702  0  3.882555  0
C  C292  1  0.27029828  0.02365644  0.27306240  1  -0.060342  0  -0.242176  -0.408725  0  3.882961  0
C  C293  1  0.00279890  0.24931023  0.27307657  1  -0.024504  0  -0.241852  -0.408272  0  3.882863  0
C  C294  1  0.24924815  0.27041374  0.27300964  1  -0.065849  0  -0.241419  -0.407604  0  3.882908  0
C  C295  1  0.02389609  0.00265644  0.27319250  1  -0.082112  0  -0.241786  -0.406973  0  3.882566  0
S  S296  1  0.33262811  0.01701834  0.64706670  1  0.025875  0  -0.005313  0.098051  0  3.241109  0
S  S297  1  0.31439298  0.63015753  0.64700627  1  0.036762  0  -0.005033  0.098103  0  3.240149  0
S  S298  1  0.63028614  0.33267723  0.64713501  1  0.031273  0  -0.005285  0.097822  0  3.243473  0
S  S299  1  0.01704632  0.31442195  0.64712055  1  0.031679  0  -0.00513  0.098041  0  3.24057  0
S  S300  1  0.66736992  0.98298218  0.35293233  1  0.025953  0  -0.005276  0.09809  0  3.240997  0
S  S301  1  0.68560709  0.36984331  0.35299341  1  0.036806  0  -0.005059  0.098025  0  3.240059  0
S  S302  1  0.36971074  0.66732464  0.35286566  1  0.031372  0  -0.005297  0.097826  0  3.243358  0
S  S303  1  0.98295269  0.68557349  0.35287808  1  0.031632  0  -0.005105  0.098043  0  3.240378  0
I  I304  1  0.20106068  0.82787561  0.38722397  1  -0.383667  0  -0.142408  -0.241968  0  2.026011  0
I  I305  1  0.18592550  0.55946055  0.38721703  1  -0.385901  0  -0.142427  -0.242075  0  2.024999  0
I  I306  1  0.55941548  0.20107154  0.38728583  1  -0.387312  0  -0.142581  -0.242098  0  2.023509  0
I  I307  1  0.82784727  0.18587622  0.38723833  1  -0.383187  0  -0.142379  -0.242062  0  2.026345  0
I  I308  1  0.79893673  0.17212576  0.61277514  1  -0.383658  0  -0.142434  -0.242006  0  2.02612  0
I  I309  1  0.81407591  0.44053555  0.61278398  1  -0.385785  0  -0.142401  -0.24204  0  2.025065  0
I  I310  1  0.44057783  0.79892869  0.61270992  1  -0.38728  0  -0.142613  -0.242138  0  2.02366  0
I  I311  1  0.17214925  0.81412397  0.61276060  1  -0.383157  0  -0.142376  -0.242065  0  2.026378  0
O  O312  1  0.44641567  0.34445458  0.99991082  1  -1.618586  0  -0.29081  -0.856076  0  2.327282  0
O  O313  1  0.55358475  0.65554559  0.00008644  1  -1.618709  0  -0.290905  -0.856124  0  2.327267  0
O  O314  1  0.65547166  0.44645345  0.99993904  1  -1.618474  0  -0.290841  -0.856632  0  2.327697  0
O  O315  1  0.34452680  0.55354740  0.00005905  1  -1.618518  0  -0.290835  -0.856608  0  2.32777  0
O  O316  1  0.48678354  0.33388982  0.87316435  1  -1.614724  0  -0.28697  -0.853758  0  2.348154  0
O  O317  1  0.38651336  0.53942517  0.87332660  1  -1.615249  0  -0.286952  -0.854158  0  2.349844  0
O  O318  1  0.53915674  0.48676036  0.87323756  1  -1.615908  0  -0.286601  -0.85371  0  2.349819  0
O  O319  1  0.33406918  0.38658501  0.87319692  1  -1.612637  0  -0.286938  -0.854202  0  2.350225  0
O  O320  1  0.51321492  0.66610783  0.12683166  1  -1.614622  0  -0.286966  -0.853733  0  2.34811  0
O  O321  1  0.61348627  0.46058074  0.12667402  1  -1.615255  0  -0.286978  -0.854142  0  2.349706  0
O  O322  1  0.46083711  0.51323851  0.12675872  1  -1.615857  0  -0.286633  -0.853722  0  2.349727  0
O  O323  1  0.66593231  0.61341835  0.12680348  1  -1.612704  0  -0.286948  -0.854217  0  2.350333  0
