# generated using pymatgen
data_CuH12C12(NO3)2
_symmetry_space_group_name_H-M   'P 1'
_cell_length_a   10.10949494
_cell_length_b   11.58111785
_cell_length_c   12.46026727
_cell_angle_alpha   90.00013957
_cell_angle_beta   89.99979391
_cell_angle_gamma   96.36565623
_symmetry_Int_Tables_number   1
_chemical_formula_structural   CuH12C12(NO3)2
_chemical_formula_sum   'Cu4 H48 C48 N8 O24'
_cell_volume   1449.84438752
_cell_formula_units_Z   4
loop_
 _symmetry_equiv_pos_site_id
 _symmetry_equiv_pos_as_xyz
  1  'x, y, z'
loop_
 _atom_site_type_symbol
 _atom_site_label
 _atom_site_symmetry_multiplicity
 _atom_site_fract_x
 _atom_site_fract_y
 _atom_site_fract_z
 _atom_site_occupancy
 _atom_site_hle17_ddec_charge
 _atom_site_hle17_ddec_spin_density
 _atom_site_hle17_ddec_sum_bond_order
 _atom_site_hle17_magmom
 _atom_site_hse06_10hf_ddec_charge
 _atom_site_hse06_10hf_ddec_spin_density
 _atom_site_hse06_10hf_ddec_sum_bond_order
 _atom_site_hse06_10hf_magmom
 _atom_site_hse06_ddec_charge
 _atom_site_hse06_ddec_spin_density
 _atom_site_hse06_ddec_sum_bond_order
 _atom_site_hse06_magmom
 _atom_site_pbe_cm5_charge
 _atom_site_pbe_ddec_charge
 _atom_site_pbe_ddec_spin_density
 _atom_site_pbe_ddec_sum_bond_order
 _atom_site_pbe_magmom
Cu  Cu0  1  0.05267015  0.08290109  0.93674316  1  0.853441  0.683819  1.901534  0.493  0.840911  0.802921  2.318267  0.638  0.943495  0.891359  2.233821  0.738  0.687249  0.772931  0.700313  2.381694  0.544
Cu  Cu1  1  0.44733242  0.41710085  0.43674405  1  0.853501  0.683823  1.901421  0.493  0.841016  0.802913  2.318103  0.638  0.943572  0.891367  2.233737  0.738  0.687246  0.773065  0.700335  2.381481  0.544
Cu  Cu2  1  0.94732186  0.91710878  0.06326553  1  0.853721  -0.683849  1.901005  -0.493  0.841156  -0.802924  2.317641  -0.638  0.943678  -0.89139  2.233372  -0.738  0.687262  0.773174  -0.700358  2.380967  -0.544
Cu  Cu3  1  0.55267447  0.58289498  0.56326785  1  0.853662  -0.683854  1.901159  -0.493  0.841157  -0.802942  2.317798  -0.638  0.943621  -0.891387  2.233531  -0.738  0.687222  0.773117  -0.700372  2.38118  -0.544
H  H4  1  0.36750160  0.63969500  0.18736373  1  0.138286  -3.5e-05  0.940833  0.0  0.156438  -1.1e-05  1.001353  0.0  0.158615  -1.5e-05  1.000627  0.0  0.103419  0.154853  -7e-06  1.001892  0.0
H  H5  1  0.13247662  0.86029989  0.68735521  1  0.138402  -2.3e-05  0.940635  0.0  0.156442  -1.1e-05  1.00129  0.0  0.158619  -1.5e-05  1.000566  0.0  0.103446  0.154868  -6e-06  1.001817  0.0
H  H6  1  0.63249523  0.36031396  0.81263212  1  0.138522  3.5e-05  0.940581  0.0  0.156501  1.1e-05  1.001266  0.0  0.158675  1.5e-05  1.000546  0.0  0.10341  0.154924  6e-06  1.001798  0.0
H  H7  1  0.86752042  0.13968906  0.31264065  1  0.138448  3.3e-05  0.940595  0.0  0.156426  1.1e-05  1.00129  0.0  0.158602  1.5e-05  1.000564  0.0  0.10342  0.154854  7e-06  1.001817  0.0
H  H8  1  0.20926136  0.65371251  0.12553465  1  0.137209  -5.1e-05  0.931354  0.0  0.157113  -5.6e-05  0.988903  0.0  0.159645  -2.8e-05  0.987224  0.0  0.106167  0.155354  -7.8e-05  0.990045  0.0
H  H9  1  0.29072835  0.84628475  0.62553365  1  0.13728  -4.3e-05  0.931118  0.0  0.157181  -5.6e-05  0.988643  0.0  0.159714  -2.7e-05  0.986965  0.0  0.10618  0.155423  -7.8e-05  0.989789  0.0
H  H10  1  0.79073215  0.34629386  0.87446281  1  0.137238  5.8e-05  0.931351  0.0  0.157121  5.6e-05  0.988888  0.0  0.159654  2.7e-05  0.987211  0.0  0.106143  0.155363  7.8e-05  0.990031  0.0
H  H11  1  0.70927522  0.15370850  0.37446702  1  0.137271  5.4e-05  0.931199  0.0  0.157157  5.6e-05  0.988726  0.0  0.15969  2.8e-05  0.987049  0.0  0.106152  0.155402  7.8e-05  0.989869  0.0
H  H12  1  0.28014361  0.76320741  0.21205127  1  0.13782  -1.6e-05  0.919376  0.0  0.161038  -1.5e-05  0.972243  0.0  0.163118  -6e-06  0.971414  0.0  0.106831  0.159579  -2.2e-05  0.972819  0.0
H  H13  1  0.21983637  0.73678665  0.71204542  1  0.137885  -1e-05  0.919349  0.0  0.161007  -1.6e-05  0.972315  0.0  0.16309  -6e-06  0.971488  0.0  0.10687  0.159551  -2.2e-05  0.972887  0.0
H  H14  1  0.71984694  0.23679900  0.78794940  1  0.137922  2.2e-05  0.919473  0.0  0.161067  1.5e-05  0.972396  0.0  0.16315  5e-06  0.97157  0.0  0.106864  0.159606  2.2e-05  0.972976  0.0
H  H15  1  0.78016154  0.26320142  0.28794722  1  0.137911  2.1e-05  0.919475  0.0  0.161044  1.5e-05  0.972416  0.0  0.163128  6e-06  0.97159  0.0  0.106861  0.15958  2.2e-05  0.972997  0.0
H  H16  1  0.57133395  0.95139273  0.79563163  1  0.121098  -1.5e-05  0.950357  0.0  0.137453  -8e-06  1.013461  0.0  0.138337  -7e-06  1.014383  0.0  0.095267  0.136825  1e-06  1.012785  0.0
H  H17  1  0.92865991  0.54859331  0.29562212  1  0.121165  -2.8e-05  0.950377  0.0  0.137599  -8e-06  1.013377  0.0  0.138488  -7e-06  1.014293  0.0  0.095309  0.13697  1e-06  1.012703  0.0
H  H18  1  0.42865157  0.04860589  0.20436583  1  0.121249  1.7e-05  0.950321  0.0  0.137597  8e-06  1.013402  0.0  0.138487  7e-06  1.014318  0.0  0.095349  0.136969  -1e-06  1.01273  0.0
H  H19  1  0.07134869  0.45140772  0.70436571  1  0.121226  3.5e-05  0.95023  0.0  0.137564  7e-06  1.01333  0.0  0.138452  7e-06  1.014245  0.0  0.095309  0.136936  -1e-06  1.012657  0.0
H  H20  1  0.45845591  0.04104836  0.85726429  1  0.131578  6.6e-05  0.946935  0.0  0.148579  5.2e-05  1.008379  0.0  0.150417  2.5e-05  1.008137  0.0  0.099056  0.147236  6.5e-05  1.008616  0.0
H  H21  1  0.04154578  0.45894471  0.35725523  1  0.131473  4.8e-05  0.947034  0.0  0.148472  5.3e-05  1.008494  0.0  0.15032  2.5e-05  1.008246  0.0  0.099027  0.147138  6.5e-05  1.008721  0.0
H  H22  1  0.54154029  0.95896321  0.14272514  1  0.131536  -6.3e-05  0.94705  0.0  0.148577  -5.3e-05  1.008434  0.0  0.15042  -2.6e-05  1.008188  0.0  0.099056  0.147242  -6.5e-05  1.008661  0.0
H  H23  1  0.95845818  0.54104419  0.64272698  1  0.131524  -4.6e-05  0.946942  0.0  0.148522  -5.3e-05  1.00838  0.0  0.150367  -2.5e-05  1.008133  0.0  0.099057  0.147189  -6.5e-05  1.008606  0.0
H  H24  1  0.39704069  0.93173960  0.76640376  1  0.121438  3.4e-05  0.953964  0.0  0.141575  3.1e-05  1.014306  0.0  0.14262  1.7e-05  1.014323  0.0  0.098305  0.140851  4.2e-05  1.014196  0.0
H  H25  1  0.10295488  0.56825444  0.26639445  1  0.121456  2.1e-05  0.953859  0.0  0.141608  3.1e-05  1.014201  0.0  0.142646  1.7e-05  1.014224  0.0  0.098307  0.140878  4.2e-05  1.014095  0.0
H  H26  1  0.60294911  0.06826855  0.23358808  1  0.121483  -3.1e-05  0.953982  0.0  0.141638  -3.1e-05  1.014302  0.0  0.142679  -1.8e-05  1.014323  0.0  0.098315  0.140915  -4.2e-05  1.014187  0.0
H  H27  1  0.89705545  0.43174483  0.73359498  1  0.121478  -1.7e-05  0.953916  0.0  0.141652  -3.1e-05  1.014215  0.0  0.142686  -1.8e-05  1.014242  0.0  0.098343  0.140925  -4.2e-05  1.014105  0.0
H  H28  1  0.26787045  0.52790328  0.96896737  1  0.130802  1.1e-05  0.935839  0.0  0.1528  -1e-06  0.991354  0.0  0.154362  3e-06  0.991172  0.0  0.103974  0.15163  -4e-06  0.991558  0.0
H  H29  1  0.23213243  0.97209289  0.46896581  1  0.130817  2.1e-05  0.935936  0.0  0.152809  -1e-06  0.991445  0.0  0.15437  3e-06  0.991266  0.0  0.103994  0.151641  -4e-06  0.991646  0.0
H  H30  1  0.73214579  0.47210291  0.03103570  1  0.130791  -4e-06  0.935901  0.0  0.152784  1e-06  0.991417  0.0  0.154343  -3e-06  0.991239  0.0  0.103967  0.151615  4e-06  0.991616  0.0
H  H31  1  0.76786841  0.02790211  0.53103085  1  0.13081  -9e-06  0.935969  0.0  0.152816  1e-06  0.99147  0.0  0.154375  -3e-06  0.991292  0.0  0.103999  0.151648  4e-06  0.991672  0.0
H  H32  1  0.30104325  0.58653650  0.83734662  1  0.137443  -5.6e-05  0.925701  0.0  0.159134  -3.8e-05  0.982382  0.0  0.161568  -2.1e-05  0.981336  0.0  0.105935  0.157381  -4.8e-05  0.983191  0.0
H  H33  1  0.19895526  0.91345246  0.33734502  1  0.137445  -4.8e-05  0.925606  0.0  0.159134  -3.8e-05  0.982294  0.0  0.161571  -2.1e-05  0.981246  0.0  0.10594  0.157372  -4.8e-05  0.983107  0.0
H  H34  1  0.69896673  0.41346017  0.16265164  1  0.137466  6.8e-05  0.925709  0.0  0.15917  3.8e-05  0.982373  0.0  0.161607  2.1e-05  0.981325  0.0  0.105938  0.157408  4.8e-05  0.983188  0.0
H  H35  1  0.80104606  0.08654602  0.66264682  1  0.137445  5.4e-05  0.925673  0.0  0.159117  3.8e-05  0.982384  0.0  0.16155  2.1e-05  0.98134  0.0  0.105937  0.157371  4.8e-05  0.98318  0.0
H  H36  1  0.42868294  0.52915503  0.90847566  1  0.145758  -6.8e-05  0.923171  0.0  0.165971  -7.2e-05  0.981081  0.0  0.168979  -4.7e-05  0.979388  0.0  0.108468  0.16381  -8.9e-05  0.982367  0.0
H  H37  1  0.07132127  0.97084882  0.40847135  1  0.145823  -6e-05  0.923068  0.0  0.166024  -7.2e-05  0.980988  0.0  0.169034  -4.7e-05  0.979293  0.0  0.108511  0.163865  -8.8e-05  0.982272  0.0
H  H38  1  0.57132988  0.47084075  0.09152340  1  0.145894  8e-05  0.923052  0.0  0.16613  7.2e-05  0.980911  0.0  0.16914  4.7e-05  0.979216  0.0  0.10857  0.163966  8.8e-05  0.982199  0.0
H  H39  1  0.92867832  0.02915141  0.59151968  1  0.145799  6.2e-05  0.923131  0.0  0.166038  7.2e-05  0.981001  0.0  0.169049  4.7e-05  0.979303  0.0  0.1085  0.163877  8.9e-05  0.982292  0.0
H  H40  1  0.17069178  0.06115771  0.71139306  1  0.128646  -9.2e-05  0.964812  0.0  0.144782  -7e-05  1.030727  0.0  0.14706  -7.2e-05  1.029928  0.0  0.096508  0.143123  -5.2e-05  1.031367  0.0
H  H41  1  0.32930171  0.43884293  0.21139756  1  0.128566  -9.9e-05  0.964828  0.0  0.144676  -7e-05  1.030802  0.0  0.146954  -7.2e-05  1.030001  0.0  0.096486  0.143016  -5.2e-05  1.031442  0.0
H  H42  1  0.82931694  0.93884419  0.28861402  1  0.128667  9.5e-05  0.964637  0.0  0.144817  6.9e-05  1.030582  0.0  0.147093  7.2e-05  1.029784  0.0  0.096516  0.143154  5.2e-05  1.031219  0.0
H  H43  1  0.67069120  0.56115911  0.78860632  1  0.12862  9.1e-05  0.964693  0.0  0.14475  6.9e-05  1.030638  0.0  0.147026  7.2e-05  1.029843  0.0  0.096506  0.143089  5.2e-05  1.031276  0.0
H  H44  1  0.33646091  0.11371306  0.66926216  1  0.125686  1.6e-05  0.925821  0.0  0.14866  7e-06  0.978685  0.0  0.151087  -3e-06  0.977412  0.0  0.098603  0.146876  7e-06  0.979709  0.0
H  H45  1  0.16353722  0.38628397  0.16926783  1  0.125678  9e-06  0.925863  0.0  0.148693  6e-06  0.978686  0.0  0.15112  -3e-06  0.97741  0.0  0.098595  0.146905  7e-06  0.979716  0.0
H  H46  1  0.66353599  0.88628198  0.33074172  1  0.125693  -1.6e-05  0.925645  0.0  0.148675  -6e-06  0.978533  0.0  0.1511  3e-06  0.977263  0.0  0.098615  0.146894  -7e-06  0.979552  0.0
H  H47  1  0.83646878  0.61371969  0.83073685  1  0.1257  -1.7e-05  0.925632  0.0  0.148683  -6e-06  0.978506  0.0  0.151112  3e-06  0.977232  0.0  0.098599  0.146892  -7e-06  0.979536  0.0
H  H48  1  0.19952396  0.16544134  0.60428147  1  0.141618  6.2e-05  0.963924  0.0  0.149803  3.6e-05  1.040769  0.0  0.153857  1.3e-05  1.037455  0.0  0.099331  0.14699  7.6e-05  1.043077  0.0
H  H49  1  0.30046985  0.33455819  0.10428662  1  0.14159  4.7e-05  0.963913  0.0  0.149768  3.6e-05  1.040771  0.0  0.15382  1.3e-05  1.037458  0.0  0.099319  0.146953  7.6e-05  1.043083  0.0
H  H50  1  0.80048036  0.83455016  0.39572883  1  0.141739  -5.8e-05  0.963938  0.0  0.149956  -3.6e-05  1.040741  0.0  0.154013  -1.3e-05  1.037425  0.0  0.099388  0.147141  -7.6e-05  1.04305  0.0
H  H51  1  0.69952588  0.66544991  0.89572047  1  0.141643  -6.2e-05  0.963846  0.0  0.149835  -3.6e-05  1.040704  0.0  0.153894  -1.3e-05  1.037386  0.0  0.099317  0.147019  -7.6e-05  1.043012  0.0
C  C52  1  0.21128327  0.89765905  0.98845782  1  0.677785  0.000496  3.895473  0.001  0.642605  0.000192  4.185407  0.0  0.685498  0.000218  4.178061  0.0  0.20937  0.613215  0.000148  4.189956  0.0
C  C53  1  0.28871570  0.60233806  0.48845125  1  0.677857  0.000534  3.895781  0.001  0.642756  0.000193  4.185602  0.0  0.685651  0.000217  4.178243  0.0  0.209422  0.613364  0.000148  4.190152  0.0
C  C54  1  0.78870309  0.10234564  0.01155649  1  0.67801  -0.000511  3.895089  -0.001  0.64284  -0.000192  4.184968  0.0  0.685734  -0.000218  4.177616  0.0  0.20942  0.613451  -0.000144  4.189519  0.0
C  C55  1  0.71129787  0.39765597  0.51156387  1  0.677973  -0.000486  3.895489  -0.001  0.642806  -0.000192  4.185343  0.0  0.685703  -0.000218  4.177984  0.0  0.209411  0.613416  -0.000145  4.189892  0.0
C  C56  1  0.33682999  0.84442858  0.98799451  1  -0.312041  -0.00099  3.750603  -0.001  -0.303258  -0.000443  3.996231  0.0  -0.322141  -0.000272  4.013805  0.0  -0.044792  -0.290323  -0.000504  3.984512  -0.001
C  C57  1  0.16316467  0.65556596  0.48798682  1  -0.311819  -0.001082  3.750132  -0.001  -0.303039  -0.000442  3.995832  0.0  -0.321929  -0.000278  4.013404  0.0  -0.044768  -0.290106  -0.000504  3.98411  -0.001
C  C58  1  0.66315140  0.15558312  0.01199412  1  -0.312136  0.001037  3.750863  0.001  -0.303226  0.000438  3.996428  0.0  -0.32212  0.000277  4.014019  0.0  -0.044773  -0.290304  0.000497  3.984695  0.001
C  C59  1  0.83684806  0.34442199  0.51200181  1  -0.312066  0.000958  3.750766  0.001  -0.303121  0.000438  3.99626  0.0  -0.322018  0.000268  4.013857  0.0  -0.044801  -0.290198  0.000496  3.984526  0.001
C  C60  1  0.37205517  0.76156063  0.05857288  1  0.332556  0.000963  3.68027  0.001  0.309695  0.000652  3.960923  0.001  0.328915  0.00047  3.971277  0.001  0.104999  0.297  0.000745  3.953661  0.001
C  C61  1  0.12793619  0.73843212  0.55856330  1  0.332729  0.001074  3.680291  0.001  0.30971  0.000649  3.961081  0.001  0.328931  0.000481  3.971441  0.001  0.105023  0.297016  0.000746  3.953827  0.001
C  C62  1  0.62793032  0.23844495  0.94142217  1  0.332642  -0.001033  3.681102  -0.001  0.309864  -0.000651  3.961466  -0.001  0.329083  -0.000482  3.971825  -0.001  0.105044  0.297169  -0.000744  3.954208  -0.001
C  C63  1  0.87207244  0.26156195  0.44142373  1  0.33278  -0.000937  3.680772  -0.001  0.309854  -0.000653  3.961299  -0.001  0.329079  -0.000468  3.971657  -0.001  0.105073  0.297167  -0.000745  3.954045  -0.001
C  C64  1  0.30453756  0.70032998  0.15110624  1  -0.374167  -0.000349  3.709448  0.0  -0.453728  -0.000301  3.95064  0.0  -0.457827  -0.000203  3.954769  0.0  -0.229901  -0.450704  -0.000358  3.947529  0.0
C  C65  1  0.19544255  0.79966307  0.65109499  1  -0.374434  -0.00039  3.709163  0.0  -0.453811  -0.0003  3.950536  0.0  -0.457904  -0.000202  3.954646  0.0  -0.229986  -0.450794  -0.000358  3.947428  0.0
C  C66  1  0.69545113  0.29967731  0.84889523  1  -0.374513  0.000326  3.709649  0.0  -0.45389  0.000303  3.950904  0.0  -0.457976  0.000203  3.955001  0.0  -0.229873  -0.450872  0.000359  3.947797  0.0
C  C67  1  0.80455560  0.20032674  0.34889846  1  -0.374486  0.000334  3.709391  0.0  -0.453833  0.000303  3.950734  0.0  -0.457922  0.000202  3.954837  0.0  -0.229919  -0.450818  0.000359  3.947621  0.0
C  C68  1  0.45072667  0.86921244  0.91979840  1  0.270692  -0.001399  3.763034  -0.002  0.264583  -0.000945  4.034716  -0.001  0.276702  -0.000654  4.049998  -0.001  0.114081  0.256466  -0.001078  4.02442  -0.002
C  C69  1  0.04926124  0.63078114  0.41978457  1  0.270528  -0.0014  3.762969  -0.002  0.264383  -0.000947  4.034728  -0.001  0.276524  -0.000647  4.049986  -0.001  0.113993  0.256271  -0.001078  4.024429  -0.002
C  C70  1  0.54925154  0.13079059  0.08019585  1  0.270823  0.001369  3.762528  0.002  0.264401  0.000948  4.034609  0.001  0.276515  0.000643  4.049909  0.001  0.113961  0.256331  0.001078  4.024259  0.002
C  C71  1  0.95074922  0.36921901  0.58019925  1  0.270607  0.00143  3.763039  0.002  0.264318  0.000946  4.034891  0.001  0.276434  0.000652  4.05019  0.001  0.113978  0.256251  0.001078  4.024538  0.002
C  C72  1  0.47145025  0.95322353  0.82935979  1  -0.347965  0.00034  3.691666  0.0  -0.422913  0.000284  3.926618  0.0  -0.4261  0.000178  3.933704  0.0  -0.231081  -0.420426  0.000324  3.921515  0.0
C  C73  1  0.02854300  0.54676285  0.32934744  1  -0.34795  0.000417  3.691734  0.0  -0.423003  0.000284  3.926724  0.0  -0.426199  0.000178  3.933788  0.0  -0.231122  -0.420525  0.000324  3.92163  0.0
C  C74  1  0.52853413  0.04678118  0.17063526  1  -0.348214  -0.000353  3.691661  0.0  -0.423155  -0.000283  3.926761  0.0  -0.426345  -0.000177  3.933831  0.0  -0.231193  -0.420692  -0.000323  3.921649  0.0
C  C75  1  0.97146626  0.45322861  0.67063959  1  -0.348082  -0.000436  3.691477  0.0  -0.423026  -0.000283  3.926524  0.0  -0.426208  -0.000178  3.933597  0.0  -0.231175  -0.42056  -0.000324  3.921411  0.0
C  C76  1  0.39524908  0.39806343  0.66606182  1  0.675323  0.000689  3.89693  0.001  0.638095  0.000618  4.18884  0.001  0.681109  0.000596  4.181515  0.001  0.211738  0.608898  0.00062  4.193189  0.001
C  C77  1  0.10475005  0.10193358  0.16605980  1  0.675006  0.000698  3.89716  0.001  0.637793  0.000617  4.189065  0.001  0.680808  0.000597  4.181752  0.001  0.211679  0.608593  0.000622  4.193414  0.001
C  C78  1  0.60477731  0.60193745  0.33395490  1  0.675158  -0.000687  3.897038  -0.001  0.637874  -0.000616  4.189045  -0.001  0.680872  -0.000595  4.181725  -0.001  0.211574  0.608679  -0.000617  4.193388  -0.001
C  C79  1  0.89522496  0.89806773  0.83395371  1  0.675013  -0.000702  3.897163  -0.001  0.637734  -0.000616  4.189147  -0.001  0.680746  -0.000596  4.181839  -0.001  0.211596  0.608541  -0.000616  4.19349  -0.001
C  C80  1  0.31238131  0.34620552  0.75440991  1  -0.309651  -0.000702  3.739305  -0.001  -0.301892  -0.000252  3.991589  0.0  -0.320696  -7e-05  4.005504  0.0  -0.041495  -0.289263  -0.000345  3.982324  0.0
C  C81  1  0.18762006  0.15378906  0.25441338  1  -0.309609  -0.000656  3.738988  -0.001  -0.301881  -0.000254  3.991376  0.0  -0.320678  -7e-05  4.005281  0.0  -0.041531  -0.289251  -0.000345  3.982106  0.0
C  C82  1  0.68762780  0.65379202  0.24559718  1  -0.30971  0.000623  3.739384  0.0  -0.30197  0.000248  3.991738  0.0  -0.320724  6.4e-05  4.005575  0.0  -0.041478  -0.289338  0.000336  3.98246  0.0
C  C83  1  0.81237273  0.84621211  0.74559130  1  -0.309692  0.00072  3.739011  0.001  -0.301936  0.000246  3.991401  0.0  -0.320733  7e-05  4.0053  0.0  -0.041555  -0.289332  0.000336  3.982165  0.0
C  C84  1  0.28018329  0.40162707  0.84704688  1  0.343629  -1.2e-05  3.665291  0.0  0.316138  0.00011  3.951058  0.0  0.338528  1.1e-05  3.956099  0.0  0.110919  0.301191  0.000186  3.947459  0.001
C  C85  1  0.21982461  0.09836766  0.34704371  1  0.343935  -5.2e-05  3.665001  0.0  0.316195  0.000111  3.950949  0.0  0.338587  1.3e-05  3.955982  0.0  0.110882  0.301261  0.000187  3.947341  0.001
C  C86  1  0.71982743  0.59836786  0.15296101  1  0.343796  0.000102  3.665042  0.0  0.316144  -0.000113  3.950965  0.0  0.338544  -1.2e-05  3.955955  0.0  0.110831  0.301198  -0.000185  3.947356  -0.001
C  C87  1  0.78017558  0.90163692  0.65295776  1  0.343974  -3.2e-05  3.664435  0.0  0.316309  -0.000112  3.950376  0.0  0.338704  -1.6e-05  3.955407  0.0  0.110968  0.301368  -0.000185  3.946784  -0.001
C  C88  1  0.32106442  0.51758588  0.89359089  1  -0.372683  -0.000272  3.710282  0.0  -0.455503  -0.000272  3.954047  0.0  -0.459703  -0.000178  3.957065  0.0  -0.230111  -0.452424  -0.000331  3.951952  0.0
C  C89  1  0.17894284  0.98241095  0.39358870  1  -0.37283  -0.00032  3.710154  0.0  -0.455608  -0.000272  3.95395  0.0  -0.459815  -0.000179  3.956967  0.0  -0.230167  -0.452514  -0.000331  3.95185  0.0
C  C90  1  0.67894630  0.48240904  0.10640978  1  -0.372852  0.000219  3.710077  0.0  -0.455667  0.000272  3.953859  0.0  -0.459879  0.000178  3.956867  0.0  -0.230184  -0.452582  0.000332  3.951769  0.0
C  C91  1  0.82106277  0.01759706  0.60640555  1  -0.372843  0.000282  3.710131  0.0  -0.455634  0.000272  3.95392  0.0  -0.459836  0.000179  3.956931  0.0  -0.230216  -0.452563  0.000332  3.951823  0.0
C  C92  1  0.23722116  0.23411323  0.75923563  1  0.314488  -0.001949  3.724521  -0.002  0.304213  -0.001393  3.998451  -0.002  0.321582  -0.001055  4.010931  -0.001  0.128409  0.292891  -0.001539  3.98978  -0.002
C  C93  1  0.26277734  0.26588226  0.25923753  1  0.314546  -0.001995  3.724348  -0.002  0.304285  -0.001393  3.9983  -0.002  0.321646  -0.001054  4.010795  -0.001  0.128467  0.292964  -0.001538  3.989625  -0.002
C  C94  1  0.76278265  0.76588175  0.24077226  1  0.314503  0.002014  3.724887  0.003  0.304373  0.00139  3.998677  0.002  0.321728  0.001057  4.011158  0.001  0.128574  0.293039  0.001539  3.989995  0.002
C  C95  1  0.73721359  0.73411979  0.74076956  1  0.31449  0.001908  3.72465  0.002  0.304267  0.001392  3.998547  0.002  0.321636  0.001052  4.011027  0.001  0.128552  0.292946  0.001539  3.989865  0.002
C  C96  1  0.23507907  0.13660153  0.68179417  1  -0.367506  0.000226  3.686088  0.0  -0.446718  0.000145  3.930106  0.0  -0.451421  7.8e-05  3.933591  0.0  -0.236148  -0.443168  0.000264  3.927509  0.0
C  C97  1  0.26491529  0.36339729  0.18180109  1  -0.367438  0.000272  3.686174  0.0  -0.446678  0.000144  3.930236  0.0  -0.451378  7.8e-05  3.933723  0.0  -0.236158  -0.443112  0.000262  3.927602  0.0
C  C98  1  0.76492572  0.86339344  0.31821131  1  -0.367697  -0.000234  3.685971  0.0  -0.446999  -0.000144  3.929948  0.0  -0.451702  -7.8e-05  3.933436  0.0  -0.236269  -0.443463  -0.000263  3.927378  0.0
C  C99  1  0.73508119  0.63660906  0.81820279  1  -0.367545  -0.000223  3.685914  0.0  -0.446791  -0.000144  3.929938  0.0  -0.451501  -7.8e-05  3.933427  0.0  -0.236177  -0.443236  -0.000262  3.92734  0.0
N  N100  1  0.54607343  0.80555773  0.94590597  1  -0.194803  -0.001329  2.643082  -0.002  -0.195347  -0.000728  2.922235  -0.001  -0.200843  -0.000327  2.931134  0.0  -0.213513  -0.191979  -0.000921  2.916522  -0.001
N  N101  1  0.95391163  0.69443393  0.44589671  1  -0.194681  -0.001352  2.643137  -0.002  -0.195253  -0.000724  2.922271  -0.001  -0.200755  -0.000338  2.931169  0.0  -0.213476  -0.19188  -0.000922  2.916557  -0.001
N  N102  1  0.45391236  0.19446437  0.05409309  1  -0.194788  0.001374  2.643114  0.002  -0.195251  0.000721  2.922357  0.001  -0.200753  0.000344  2.931262  0.0  -0.213412  -0.191899  0.000923  2.916634  0.001
N  N103  1  0.04608876  0.30555064  0.55409674  1  -0.19474  0.001313  2.643325  0.002  -0.195299  0.000725  2.922555  0.001  -0.200798  0.000331  2.931462  0.0  -0.213471  -0.191938  0.000923  2.916832  0.001
N  N104  1  0.16507532  0.22429787  0.84757252  1  -0.221422  -0.002121  2.835985  -0.001  -0.215899  -0.001194  3.14646  0.0  -0.23131  -0.000924  3.150621  0.0  -0.239251  -0.20622  -0.001476  3.144879  -0.001
N  N105  1  0.33492579  0.27569779  0.34757342  1  -0.221392  -0.002084  2.835857  -0.001  -0.216043  -0.001195  3.146305  0.0  -0.23145  -0.000926  3.150474  0.0  -0.239289  -0.206351  -0.001477  3.144709  -0.001
N  N106  1  0.83492565  0.77569800  0.15243377  1  -0.221353  0.002051  2.835841  0.001  -0.21605  0.001197  3.146368  0.0  -0.231457  0.000923  3.150552  0.0  -0.23934  -0.206344  0.001475  3.144748  0.001
N  N107  1  0.66507862  0.72430154  0.65242645  1  -0.221437  0.002162  2.835986  0.001  -0.216094  0.001195  3.146543  0.0  -0.231485  0.000928  3.150703  0.0  -0.239347  -0.206381  0.001477  3.144921  0.001
O  O108  1  0.20662276  0.98780100  0.93037250  1  -0.571974  0.07152  2.072175  0.094  -0.549059  0.048498  2.347101  0.07  -0.593721  0.038207  2.341207  0.059  -0.309646  -0.518818  0.051181  2.351254  0.071
O  O109  1  0.29337929  0.51219510  0.43036972  1  -0.572003  0.071498  2.072308  0.094  -0.549131  0.048502  2.347239  0.07  -0.593786  0.038207  2.341344  0.059  -0.309631  -0.518897  0.051184  2.351386  0.071
O  O110  1  0.79335797  0.01222027  0.06963619  1  -0.572188  -0.071487  2.072582  -0.094  -0.549261  -0.048496  2.347515  -0.07  -0.593895  -0.038199  2.341623  -0.058  -0.309712  -0.519037  -0.051176  2.351664  -0.071
O  O111  1  0.70663952  0.48778671  0.56963656  1  -0.572119  -0.071497  2.072622  -0.094  -0.549202  -0.048493  2.347527  -0.07  -0.593824  -0.0382  2.341622  -0.058  -0.309649  -0.518966  -0.051171  2.351679  -0.071
O  O112  1  0.11895665  0.84894629  0.04864419  1  -0.569766  -0.081904  2.059525  -0.108  -0.549177  -0.053945  2.328511  -0.079  -0.593714  -0.042083  2.32047  -0.065  -0.314646  -0.519569  -0.056749  2.334459  -0.08
O  O113  1  0.38103783  0.65104728  0.54864329  1  -0.569877  -0.081907  2.059956  -0.108  -0.549296  -0.05394  2.328898  -0.079  -0.593821  -0.042079  2.320837  -0.065  -0.314689  -0.519675  -0.056743  2.334851  -0.079
O  O114  1  0.88103243  0.15105665  0.95134363  1  -0.569684  0.081942  2.058791  0.108  -0.549144  0.053958  2.327812  0.079  -0.593711  0.042095  2.319762  0.065  -0.314536  -0.519516  0.056768  2.333764  0.079
O  O115  1  0.61897463  0.34894589  0.45134694  1  -0.569733  0.081922  2.059199  0.108  -0.549202  0.053959  2.328203  0.079  -0.593765  0.042093  2.320154  0.065  -0.314569  -0.519575  0.056768  2.334146  0.08
O  O116  1  0.38370475  0.34612412  0.57606451  1  -0.560897  0.073367  2.09698  0.096  -0.542589  0.048355  2.379478  0.07  -0.586207  0.037804  2.371042  0.057  -0.304972  -0.513256  0.051209  2.385509  0.071
O  O117  1  0.11629672  0.15387267  0.07606177  1  -0.560817  0.073359  2.097141  0.096  -0.542457  0.048355  2.379626  0.07  -0.58608  0.037806  2.371187  0.057  -0.304924  -0.513119  0.051209  2.385662  0.071
O  O118  1  0.61633885  0.65386530  0.42394177  1  -0.56074  -0.073374  2.097378  -0.096  -0.542329  -0.048361  2.379809  -0.07  -0.585924  -0.037805  2.371393  -0.057  -0.304851  -0.513005  -0.051214  2.385853  -0.071
O  O119  1  0.88365760  0.84614361  0.92394050  1  -0.560717  -0.073363  2.097429  -0.096  -0.542217  -0.048355  2.379803  -0.07  -0.585823  -0.037803  2.371397  -0.057  -0.304829  -0.512907  -0.051207  2.385846  -0.071
O  O120  1  0.46799854  0.49308796  0.68723311  1  -0.58054  -0.081471  2.073167  -0.108  -0.555272  -0.053735  2.34722  -0.078  -0.600303  -0.041968  2.341005  -0.065  -0.314026  -0.525081  -0.056852  2.351646  -0.08
O  O121  1  0.03200038  0.00690823  0.18723270  1  -0.580346  -0.08148  2.073269  -0.108  -0.555079  -0.053736  2.347293  -0.078  -0.600125  -0.041969  2.341094  -0.065  -0.313969  -0.5249  -0.056855  2.351715  -0.08
O  O122  1  0.53200132  0.50690706  0.31278280  1  -0.580355  0.081491  2.072562  0.108  -0.555172  0.053744  2.34673  0.078  -0.600239  0.041975  2.340529  0.065  -0.313993  -0.524972  0.056868  2.351132  0.08
O  O123  1  0.96800116  0.99309894  0.81277599  1  -0.580246  0.081506  2.072581  0.108  -0.5551  0.053744  2.34677  0.078  -0.600175  0.041977  2.340573  0.065  -0.313979  -0.524893  0.056867  2.351181  0.08
O  O124  1  0.49639780  0.73693091  0.03506595  1  -0.157635  0.000377  2.299634  0.0  -0.093119  0.000278  2.541124  0.0  -0.111008  0.000178  2.548066  0.0  -0.046432  -0.081049  0.000352  2.53614  0.0
O  O125  1  0.00359096  0.76305659  0.53505599  1  -0.157855  0.000377  2.299939  0.0  -0.093186  0.000277  2.541398  0.0  -0.111082  0.000178  2.548345  0.0  -0.046396  -0.08112  0.000352  2.53642  0.0
O  O126  1  0.50359787  0.26309110  0.96494113  1  -0.157786  -0.000379  2.299866  0.0  -0.093255  -0.000277  2.541285  0.0  -0.111134  -0.000178  2.548222  0.0  -0.046555  -0.08119  -0.000353  2.536309  0.0
O  O127  1  0.99640994  0.23692450  0.46493906  1  -0.157841  -0.000382  2.299915  0.0  -0.093217  -0.000278  2.541343  0.0  -0.111103  -0.000179  2.548284  0.0  -0.046493  -0.081164  -0.000353  2.536376  0.0
O  O128  1  0.19088364  0.33072878  0.90353930  1  -0.124483  0.000184  2.282086  0.0  -0.055284  7.9e-05  2.513917  0.0  -0.07063  3e-05  2.51801  0.0  -0.032648  -0.044986  8.9e-05  2.510973  0.0
O  O129  1  0.30912664  0.16926344  0.40353522  1  -0.124751  0.000193  2.282161  0.0  -0.055174  8e-05  2.513783  0.0  -0.070517  3e-05  2.51787  0.0  -0.032597  -0.044908  9e-05  2.510865  0.0
O  O130  1  0.80911795  0.66926448  0.09646378  1  -0.124646  -0.000191  2.282087  0.0  -0.055212  -8e-05  2.513835  0.0  -0.070564  -2.7e-05  2.517918  0.0  -0.032601  -0.044934  -9e-05  2.510895  0.0
O  O131  1  0.69088013  0.83073151  0.59645742  1  -0.124662  -0.000174  2.281798  0.0  -0.055223  -8e-05  2.513557  0.0  -0.070572  -2.7e-05  2.517641  0.0  -0.032605  -0.044941  -9.1e-05  2.510613  0.0
