# generated using pymatgen
data_CdH16C20N6O5
_symmetry_space_group_name_H-M   'P 1'
_cell_length_a   7.24643329
_cell_length_b   10.32974809
_cell_length_c   13.75247245
_cell_angle_alpha   104.81966326
_cell_angle_beta   91.91781755
_cell_angle_gamma   96.17263404
_symmetry_Int_Tables_number   1
_chemical_formula_structural   CdH16C20N6O5
_chemical_formula_sum   'Cd2 H32 C40 N12 O10'
_cell_volume   987.41982374
_cell_formula_units_Z   2
loop_
 _symmetry_equiv_pos_site_id
 _symmetry_equiv_pos_as_xyz
  1  'x, y, z'
loop_
 _atom_site_type_symbol
 _atom_site_label
 _atom_site_symmetry_multiplicity
 _atom_site_fract_x
 _atom_site_fract_y
 _atom_site_fract_z
 _atom_site_occupancy
 _atom_site_hle17_bader_spin_density
 _atom_site_hle17_ddec_charge
 _atom_site_hle17_ddec_spin_density
 _atom_site_hle17_ddec_sum_bond_order
 _atom_site_hle17_magmom
 _atom_site_hse06_10hf_bader_spin_density
 _atom_site_hse06_10hf_ddec_charge
 _atom_site_hse06_10hf_ddec_spin_density
 _atom_site_hse06_10hf_ddec_sum_bond_order
 _atom_site_hse06_10hf_magmom
 _atom_site_hse06_bader_spin_density
 _atom_site_hse06_ddec_charge
 _atom_site_hse06_ddec_spin_density
 _atom_site_hse06_ddec_sum_bond_order
 _atom_site_hse06_magmom
 _atom_site_pbe_bader_spin_density
 _atom_site_pbe_cm5_charge
 _atom_site_pbe_ddec_charge
 _atom_site_pbe_ddec_spin_density
 _atom_site_pbe_ddec_sum_bond_order
 _atom_site_pbe_magmom
Cd  Cd0  1  0.20442067  0.78151783  0.88419782  1  0  1.124514  0  1.649018  0  0  0.927415  0  2.096942  0  0  0.986385  0  2.044853  0  0  0.767139  0.882383  0  2.134955  0
Cd  Cd1  1  0.79558174  0.21849057  0.11580121  1  0  1.124499  0  1.648943  0  0  0.927416  0  2.096842  0  0  0.986386  0  2.044759  0  0  0.767127  0.882377  0  2.134859  0
H  H2  1  0.86001824  0.83774884  0.00300760  1  0  0.426976  0  0.879414  0  0  0.393239  0  0.947833  0  0  0.404688  0  0.931262  0  0  0.28614  0.384965  0  0.959777  0
H  H3  1  0.13998945  0.16225770  0.99699410  1  0  0.426875  0  0.879577  0  0  0.393141  0  0.947992  0  0  0.404593  0  0.931417  0  0  0.286104  0.384865  0  0.959939  0
H  H4  1  0.84546533  0.68922640  0.92924634  1  0  0.429415  0  0.812309  0  0  0.413537  0  0.862862  0  0  0.421753  0  0.853887  0  0  0.320855  0.407359  0  0.869801  0
H  H5  1  0.15453001  0.31078082  0.07075451  1  0  0.429542  0  0.812091  0  0  0.413647  0  0.862682  0  0  0.421866  0  0.853695  0  0  0.320913  0.407466  0  0.869623  0
H  H6  1  0.07638925  0.16967391  0.33069184  1  0  0.298644  0  0.946608  0  0  0.281037  0  1.018943  0  0  0.287767  0  1.012638  0  0  0.293394  0.276213  0  1.023518  0
H  H7  1  0.92361284  0.83032045  0.66931108  1  0  0.298675  0  0.946593  0  0  0.281074  0  1.018908  0  0  0.287803  0  1.012606  0  0  0.293439  0.276252  0  1.023485  0
H  H8  1  0.24841559  0.16824538  0.41952671  1  0  0.274167  0  0.922293  0  0  0.259781  0  0.997481  0  0  0.264611  0  0.992718  0  0  0.298875  0.256258  0  1.001004  0
H  H9  1  0.75158433  0.83174186  0.58047118  1  0  0.27422  0  0.922358  0  0  0.259854  0  0.99752  0  0  0.264684  0  0.992757  0  0  0.298913  0.256333  0  1.00104  0
H  H10  1  0.34649353  0.05621439  0.04868547  1  0  0.09365  0  0.97842  0  0  0.097762  0  1.049678  0  0  0.100933  0  1.046404  0  0  0.119299  0.095527  0  1.051957  0
H  H11  1  0.65352730  0.94378647  0.95131688  1  0  0.09372  0  0.978425  0  0  0.097808  0  1.049648  0  0  0.100979  0  1.046377  0  0  0.119306  0.095573  0  1.051924  0
H  H12  1  0.28872283  0.66194770  0.06985953  1  0  0.107095  0  0.932337  0  0  0.116962  0  0.989475  0  0  0.120347  0  0.985647  0  0  0.125401  0.114409  0  0.992287  0
H  H13  1  0.71127181  0.33805347  0.93014016  1  0  0.107115  0  0.932307  0  0  0.116962  0  0.989481  0  0  0.120349  0  0.985649  0  0  0.125373  0.114409  0  0.992292  0
H  H14  1  0.34744860  0.73796894  0.25857016  1  0  0.106284  0  0.959516  0  0  0.116118  0  1.018165  0  0  0.118456  0  1.019258  0  0  0.110366  0.114719  0  1.016989  0
H  H15  1  0.65251804  0.26202952  0.74143282  1  0  0.106222  0  0.95951  0  0  0.116041  0  1.018194  0  0  0.118377  0  1.019286  0  0  0.11038  0.114641  0  1.017024  0
H  H16  1  0.40115928  0.98326011  0.34368521  1  0  0.102844  0  0.935854  0  0  0.113547  0  0.998287  0  0  0.116916  0  0.99473  0  0  0.111893  0.110924  0  1.001126  0
H  H17  1  0.59882163  0.01674171  0.65631287  1  0  0.102813  0  0.935834  0  0  0.113555  0  0.998231  0  0  0.116925  0  0.994675  0  0  0.111914  0.110935  0  1.001065  0
H  H18  1  0.16320356  0.42396432  0.48399980  1  0  0.095866  0  0.996705  0  0  0.10284  0  1.065127  0  0  0.105529  0  1.063779  0  0  0.105095  0.10082  0  1.066238  0
H  H19  1  0.83677112  0.57603129  0.51599480  1  0  0.095837  0  0.996684  0  0  0.102787  0  1.065174  0  0  0.105482  0  1.06381  0  0  0.105028  0.100765  0  1.066282  0
H  H20  1  0.14246484  0.63992480  0.61670710  1  0  0.125956  0  0.947948  0  0  0.132365  0  1.011214  0  0  0.136493  0  1.009075  0  0  0.110414  0.129358  0  1.013036  0
H  H21  1  0.85752648  0.36007123  0.38328719  1  0  0.125922  0  0.947931  0  0  0.132293  0  1.011258  0  0  0.13642  0  1.00912  0  0  0.110366  0.129283  0  1.013079  0
H  H22  1  0.32321074  0.85128954  0.60004866  1  0  0.066088  0  0.960459  0  0  0.071866  0  1.033  0  0  0.07455  0  1.030436  0  0  0.103662  0.069946  0  1.034755  0
H  H23  1  0.67679117  0.14870276  0.39994733  1  0  0.066107  0  0.960428  0  0  0.0719  0  1.032968  0  0  0.074573  0  1.030393  0  0  0.103684  0.069983  0  1.034712  0
H  H24  1  0.56487701  0.64524159  0.34559880  1  0  0.080314  0  0.954601  0  0  0.08523  0  1.024706  0  0  0.087645  0  1.023363  0  0  0.112367  0.083661  0  1.025265  0
H  H25  1  0.43511769  0.35473647  0.65439653  1  0  0.080367  0  0.954572  0  0  0.085286  0  1.024662  0  0  0.087718  0  1.023272  0  0  0.112394  0.083722  0  1.025216  0
H  H26  1  0.18672844  0.29045121  0.89250054  1  0  0.098595  0  0.965117  0  0  0.106779  0  1.031852  0  0  0.11128  0  1.027251  0  0  0.105438  0.103606  0  1.035152  0
H  H27  1  0.81330235  0.70955191  0.10749953  1  0  0.098529  0  0.965192  0  0  0.106755  0  1.031896  0  0  0.111259  0  1.027293  0  0  0.105435  0.103577  0  1.035204  0
H  H28  1  0.00528609  0.39869047  0.62817366  1  0  0.093507  0  0.982647  0  0  0.101847  0  1.049872  0  0  0.104381  0  1.049055  0  0  0.100598  0.100047  0  1.050462  0
H  H29  1  0.99472537  0.60132525  0.37183567  1  0  0.093541  0  0.982726  0  0  0.101854  0  1.049971  0  0  0.104386  0  1.049153  0  0  0.100619  0.100055  0  1.050557  0
H  H30  1  0.98781829  0.15898589  0.52778334  1  0  0.078613  0  0.984256  0  0  0.091689  0  1.042821  0  0  0.093777  0  1.043134  0  0  0.095092  0.090081  0  1.042927  0
H  H31  1  0.01216963  0.84102921  0.47222393  1  0  0.078678  0  0.984395  0  0  0.091779  0  1.042917  0  0  0.093871  0  1.043223  0  0  0.09511  0.090169  0  1.043024  0
H  H32  1  0.06913626  0.98392803  0.61247465  1  0  0.079538  0  0.991797  0  0  0.091595  0  1.055548  0  0  0.094627  0  1.052889  0  0  0.09937  0.089427  0  1.057407  0
H  H33  1  0.93084818  0.01608094  0.38753140  1  0  0.07947  0  0.99177  0  0  0.091577  0  1.055482  0  0  0.094618  0  1.052826  0  0  0.099338  0.089405  0  1.057354  0
C  C34  1  0.34783945  0.98871594  0.09756366  1  0  0.115993  0  3.656461  0  0  0.07401  0  3.90971  0  0  0.082402  0  3.926229  0  0  0.055016  0.068695  0  3.89819  0
C  C35  1  0.65217285  0.01128268  0.90243591  1  0  0.115817  0  3.656439  0  0  0.073935  0  3.909631  0  0  0.082324  0  3.926151  0  0  0.055009  0.068629  0  3.898097  0
C  C36  1  0.31635674  0.76835766  0.11025876  1  0  0.14163  0  3.650103  0  0  0.107826  0  3.898823  0  0  0.116635  0  3.91527  0  0  0.05906  0.102188  0  3.88744  0
C  C37  1  0.68363249  0.23164436  0.88973880  1  0  0.141574  0  3.650172  0  0  0.107756  0  3.898911  0  0  0.116565  0  3.91536  0  0  0.059073  0.102121  0  3.887519  0
C  C38  1  0.34771780  0.81179132  0.21462041  1  0  -0.096558  0  3.716096  0  0  -0.10631  0  3.967235  0  0  -0.114922  0  3.991156  0  0  -0.074818  -0.100947  0  3.951101  0
C  C39  1  0.65225973  0.18820539  0.78537882  1  0  -0.096392  0  3.715905  0  0  -0.106115  0  3.967065  0  0  -0.114725  0  3.990993  0  0  -0.074788  -0.100749  0  3.950919  0
C  C40  1  0.37613713  0.94938386  0.26196636  1  0  -0.033418  0  3.675731  0  0  -0.064869  0  3.929895  0  0  -0.060494  0  3.947372  0  0  -0.059089  -0.06755  0  3.918493  0
C  C41  1  0.62384988  0.05061109  0.73803200  1  0  -0.033556  0  3.67578  0  0  -0.065045  0  3.92998  0  0  -0.060675  0  3.947466  0  0  -0.059192  -0.067717  0  3.918566  0
C  C42  1  0.37652654  0.04101448  0.20217562  1  0  -0.042228  0  3.779256  0  0  -0.020461  0  4.022049  0  0  -0.02819  0  4.045269  0  0  -0.000726  -0.015992  0  4.00704  0
C  C43  1  0.62347697  0.95897989  0.79782297  1  0  -0.042022  0  3.779346  0  0  -0.020309  0  4.022124  0  0  -0.028035  0  4.045349  0  0  -0.000642  -0.015885  0  4.007202  0
C  C44  1  0.40840753  0.18778985  0.24023348  1  0  0.244536  0  3.755452  0  0  0.202252  0  4.029566  0  0  0.216902  0  4.045699  0  0  0.230131  0.192741  0  4.018204  0
C  C45  1  0.59159448  0.81220347  0.75976415  1  0  0.244417  0  3.755686  0  0  0.202179  0  4.029756  0  0  0.216829  0  4.04589  0  0  0.230137  0.192676  0  4.018379  0
C  C46  1  0.39181980  0.39837907  0.32451386  1  0  0.250933  0  3.717148  0  0  0.214837  0  3.990335  0  0  0.227654  0  4.005383  0  0  0.232239  0.206258  0  3.980627  0
C  C47  1  0.60817491  0.60161106  0.67548593  1  0  0.250831  0  3.717058  0  0  0.214774  0  3.990209  0  0  0.227593  0  4.005258  0  0  0.232292  0.206196  0  3.980504  0
C  C48  1  0.35974143  0.51898642  0.40187322  1  0  -0.036851  0  3.767992  0  0  -0.014473  0  4.000817  0  0  -0.019962  0  4.023018  0  0  0.001826  -0.011122  0  3.986054  0
C  C49  1  0.64025608  0.48100377  0.59812373  1  0  -0.036736  0  3.767908  0  0  -0.014404  0  4.000781  0  0  -0.019895  0  4.022989  0  0  0.001897  -0.011057  0  3.986023  0
C  C50  1  0.24140422  0.51823120  0.48044592  1  0  -0.047578  0  3.696063  0  0  -0.076348  0  3.944428  0  0  -0.07397  0  3.962828  0  0  -0.071563  -0.077776  0  3.932113  0
C  C51  1  0.75858373  0.48175973  0.51954806  1  0  -0.047467  0  3.696085  0  0  -0.076224  0  3.94444  0  0  -0.073847  0  3.962844  0  0  -0.071524  -0.077645  0  3.93212  0
C  C52  1  0.22904577  0.63816928  0.55315292  1  0  -0.112887  0  3.708899  0  0  -0.123394  0  3.964144  0  0  -0.129905  0  3.985051  0  0  -0.085417  -0.119247  0  3.95035  0
C  C53  1  0.77094874  0.36181881  0.44684285  1  0  -0.11294  0  3.708832  0  0  -0.12344  0  3.964115  0  0  -0.129952  0  3.985022  0  0  -0.085425  -0.11929  0  3.950312  0
C  C54  1  0.33317347  0.75585879  0.54457056  1  0  0.105183  0  3.748405  0  0  0.073463  0  4.019916  0  0  0.079667  0  4.036492  0  0  0.030113  0.069422  0  4.008651  0
C  C55  1  0.66682884  0.24412552  0.45542901  1  0  0.10502  0  3.748624  0  0  0.073304  0  4.020117  0  0  0.079531  0  4.036669  0  0  0.030094  0.069266  0  4.008849  0
C  C56  1  0.46431017  0.64262895  0.40261475  1  0  0.090315  0  3.695046  0  0  0.059686  0  3.949959  0  0  0.065572  0  3.966085  0  0  0.046499  0.056169  0  3.93875  0
C  C57  1  0.53569024  0.35736232  0.59738100  1  0  0.090068  0  3.694967  0  0  0.059439  0  3.949912  0  0  0.065324  0  3.966053  0  0  0.046389  0.05592  0  3.938704  0
C  C58  1  0.14036181  0.25920919  0.81300227  1  0  -0.064408  0  3.698096  0  0  -0.099778  0  3.941549  0  0  -0.09711  0  3.960316  0  0  -0.075146  -0.101354  0  3.929508  0
C  C59  1  0.85965577  0.74079965  0.18700515  1  0  -0.064417  0  3.698189  0  0  -0.09982  0  3.941654  0  0  -0.097144  0  3.9604  0  0  -0.075148  -0.101407  0  3.929628  0
C  C60  1  0.09745717  0.35783433  0.76566333  1  0  -0.053595  0  3.741015  0  0  -0.026682  0  3.971833  0  0  -0.035451  0  3.993469  0  0  -0.012369  -0.021595  0  3.958589  0
C  C61  1  0.90255648  0.64217642  0.23434510  1  0  -0.053658  0  3.74119  0  0  -0.026803  0  3.972044  0  0  -0.035569  0  3.99367  0  0  -0.012403  -0.021666  0  3.958708  0
C  C62  1  0.04024837  0.32051250  0.66306845  1  0  -0.051055  0  3.70924  0  0  -0.079237  0  3.957624  0  0  -0.07647  0  3.976518  0  0  -0.077667  -0.080315  0  3.94447  0
C  C63  1  0.95976620  0.67949425  0.33693925  1  0  -0.051006  0  3.709262  0  0  -0.079115  0  3.957589  0  0  -0.076341  0  3.976469  0  0  -0.077739  -0.080203  0  3.944454  0
C  C64  1  0.03058888  0.18648455  0.60773076  1  0  -0.076853  0  3.781051  0  0  -0.084989  0  4.027738  0  0  -0.090143  0  4.05035  0  0  -0.094625  -0.081649  0  4.012069  0
C  C65  1  0.96943257  0.81352133  0.39226891  1  0  -0.077289  0  3.781221  0  0  -0.085511  0  4.028004  0  0  -0.090671  0  4.050611  0  0  -0.094744  -0.082173  0  4.012347  0
C  C66  1  0.07348205  0.08864466  0.65515741  1  0  -0.07388  0  3.756608  0  0  -0.100263  0  4.001319  0  0  -0.098243  0  4.020872  0  0  -0.088741  -0.100801  0  3.987646  0
C  C67  1  0.92653191  0.91136806  0.34484341  1  0  -0.073513  0  3.756406  0  0  -0.099896  0  4.001042  0  0  -0.097888  0  4.020606  0  0  -0.088628  -0.100437  0  3.987375  0
C  C68  1  0.12493764  0.12354156  0.75866775  1  0  -0.084796  0  3.792829  0  0  -0.058017  0  4.026976  0  0  -0.067989  0  4.052189  0  0  -0.025799  -0.051707  0  4.010505  0
C  C69  1  0.87509129  0.87646957  0.24133743  1  0  -0.08476  0  3.79301  0  0  -0.057993  0  4.027139  0  0  -0.067963  0  4.052352  0  0  -0.025769  -0.051685  0  4.010676  0
C  C70  1  0.15812294  0.01488605  0.80880307  1  0  0.63604  0  3.924677  0  0  0.581897  0  4.217672  0  0  0.615776  0  4.213199  0  0  0.198553  0.558855  0  4.219786  0
C  C71  1  0.84187676  0.98511123  0.19119672  1  0  0.636024  0  3.924792  0  0  0.581929  0  4.217735  0  0  0.615806  0  4.213262  0  0  0.198566  0.558881  0  4.219857  0
C  C72  1  0.11639280  0.50402528  0.82243193  1  0  0.624208  0  3.966183  0  0  0.576504  0  4.257856  0  0  0.610932  0  4.251707  0  0  0.184813  0.553031  0  4.260974  0
C  C73  1  0.88361723  0.49598935  0.17756990  1  0  0.624154  0  3.966196  0  0  0.576541  0  4.257738  0  0  0.610969  0  4.25159  0  0  0.184815  0.553062  0  4.260871  0
N  N74  1  0.31600303  0.85637149  0.05287995  1  0  -0.329886  0  3.262097  0  0  -0.249413  0  3.532445  0  0  -0.270714  0  3.550425  0  0  -0.324719  -0.234568  0  3.519432  0
N  N75  1  0.68400158  0.14363193  0.94711673  1  0  -0.329849  0  3.262184  0  0  -0.249381  0  3.532506  0  0  -0.270685  0  3.550492  0  0  -0.324701  -0.234529  0  3.519481  0
N  N76  1  0.52034166  0.26924242  0.20113084  1  0  -0.304518  0  3.151495  0  0  -0.247502  0  3.446865  0  0  -0.265285  0  3.463882  0  0  -0.227883  -0.235418  0  3.435265  0
N  N77  1  0.47965273  0.73075674  0.79886920  1  0  -0.304521  0  3.151533  0  0  -0.247505  0  3.446878  0  0  -0.265287  0  3.463893  0  0  -0.227879  -0.235415  0  3.43527  0
N  N78  1  0.51048416  0.39999654  0.25312554  1  0  -0.238402  0  2.924816  0  0  -0.226403  0  3.207834  0  0  -0.23532  0  3.224566  0  0  -0.214067  -0.220787  0  3.196411  0
N  N79  1  0.48951149  0.60000165  0.74687579  1  0  -0.238389  0  2.924842  0  0  -0.226401  0  3.20786  0  0  -0.235319  0  3.224589  0  0  -0.214114  -0.220783  0  3.196432  0
N  N80  1  0.32365390  0.26603452  0.31812340  1  0  0.005778  0  3.525306  0  0  0.08775  0  3.744333  0  0  0.073969  0  3.767124  0  0  -0.133735  0.096763  0  3.728768  0
N  N81  1  0.67634673  0.73395877  0.68187492  1  0  0.005946  0  3.525279  0  0  0.087892  0  3.744311  0  0  0.07411  0  3.767102  0  0  -0.133718  0.096906  0  3.728743  0
N  N82  1  0.18969908  0.22293252  0.37703491  1  0  -0.518369  0  2.971378  0  0  -0.51673  0  3.215422  0  0  -0.524587  0  3.214522  0  0  -0.497114  -0.510856  0  3.216112  0
N  N83  1  0.81030430  0.77706085  0.62296567  1  0  -0.518488  0  2.97147  0  0  -0.516886  0  3.215534  0  0  -0.524742  0  3.214629  0  0  -0.497242  -0.511003  0  3.216206  0
N  N84  1  0.45147151  0.75884927  0.47143075  1  0  -0.337443  0  3.08308  0  0  -0.300125  0  3.359458  0  0  -0.311055  0  3.373073  0  0  -0.33662  -0.292702  0  3.350127  0
N  N85  1  0.54853812  0.24113822  0.52856521  1  0  -0.337176  0  3.083236  0  0  -0.299853  0  3.359598  0  0  -0.310785  0  3.373209  0  0  -0.33655  -0.292431  0  3.350265  0
O  O86  1  0.13730510  0.89254215  0.75507724  1  0  -0.638344  0  2.012372  0  0  -0.566552  0  2.252158  0  0  -0.59544  0  2.244141  0  0  -0.31691  -0.545435  0  2.258276  0
O  O87  1  0.86268557  0.10745988  0.24491453  1  0  -0.638355  0  2.012503  0  0  -0.566599  0  2.252298  0  0  -0.595486  0  2.244279  0  0  -0.316926  -0.545479  0  2.258416  0
O  O88  1  0.20489229  0.04429751  0.90271351  1  0  -0.647378  0  2.015836  0  0  -0.578712  0  2.246004  0  0  -0.607283  0  2.238074  0  0  -0.316953  -0.557914  0  2.250339  0
O  O89  1  0.79508740  0.95569425  0.09728774  1  0  -0.647421  0  2.015891  0  0  -0.578739  0  2.245957  0  0  -0.607326  0  2.238081  0  0  -0.316967  -0.557944  0  2.250295  0
O  O90  1  0.19146630  0.54077690  0.91106953  1  0  -0.642086  0  1.909534  0  0  -0.592647  0  2.134098  0  0  -0.61837  0  2.123258  0  0  -0.341682  -0.573602  0  2.140248  0
O  O91  1  0.80852871  0.45923935  0.08893302  1  0  -0.64209  0  1.909407  0  0  -0.592666  0  2.133918  0  0  -0.618398  0  2.123085  0  0  -0.34174  -0.573628  0  2.140072  0
O  O92  1  0.05679617  0.58565375  0.77539038  1  0  -0.64582  0  1.95257  0  0  -0.584342  0  2.194721  0  0  -0.613334  0  2.18583  0  0  -0.346733  -0.562588  0  2.200964  0
O  O93  1  0.94320246  0.41435754  0.22460549  1  0  -0.645625  0  1.952636  0  0  -0.584196  0  2.194777  0  0  -0.61319  0  2.185889  0  0  -0.346595  -0.56245  0  2.201024  0
O  O94  1  0.89320548  0.78297313  0.93597958  1  0  -0.820291  0  1.859523  0  0  -0.764569  0  2.056844  0  0  -0.785403  0  2.028142  0  0  -0.581267  -0.749884  0  2.077795  0
O  O95  1  0.10680085  0.21703336  0.06401918  1  0  -0.820344  0  1.859482  0  0  -0.7646  0  2.056768  0  0  -0.785426  0  2.028042  0  0  -0.581286  -0.749914  0  2.077726  0
