# generated using pymatgen
data_NpH22C22(NO5)2
_symmetry_space_group_name_H-M   'P 1'
_cell_length_a   9.58952332
_cell_length_b   9.58948015
_cell_length_c   13.34288663
_cell_angle_alpha   80.73926998
_cell_angle_beta   80.73899034
_cell_angle_gamma   73.82572362
_symmetry_Int_Tables_number   1
_chemical_formula_structural   NpH22C22(NO5)2
_chemical_formula_sum   'Np2 H44 C44 N4 O20'
_cell_volume   1154.30975157
_cell_formula_units_Z   2
loop_
 _symmetry_equiv_pos_site_id
 _symmetry_equiv_pos_as_xyz
  1  'x, y, z'
loop_
 _atom_site_type_symbol
 _atom_site_label
 _atom_site_symmetry_multiplicity
 _atom_site_fract_x
 _atom_site_fract_y
 _atom_site_fract_z
 _atom_site_occupancy
 _atom_site_hle17_ddec_charge
 _atom_site_hle17_ddec_spin_density
 _atom_site_hle17_ddec_sum_bond_order
 _atom_site_hle17_magmom
 _atom_site_hse06_10hf_ddec_charge
 _atom_site_hse06_10hf_ddec_spin_density
 _atom_site_hse06_10hf_ddec_sum_bond_order
 _atom_site_hse06_10hf_magmom
 _atom_site_hse06_ddec_charge
 _atom_site_hse06_ddec_spin_density
 _atom_site_hse06_ddec_sum_bond_order
 _atom_site_hse06_magmom
 _atom_site_pbe_cm5_charge
 _atom_site_pbe_ddec_charge
 _atom_site_pbe_ddec_spin_density
 _atom_site_pbe_ddec_sum_bond_order
 _atom_site_pbe_magmom
Np  Np0  1  0.62949931  0.37050629  0.24999598  1  2.256637  3.567462  2.325846  3.42  2.347067  3.13321  2.779039  3.069  2.475578  3.105898  2.718714  3.042  1.626942  2.256075  3.149612  2.820862  3.082
Np  Np1  1  0.37047755  0.62951808  0.75000245  1  2.256822  3.567374  2.325821  3.42  2.347219  3.133205  2.778976  3.069  2.475741  3.105893  2.718647  3.042  1.627096  2.256242  3.149619  2.820812  3.082
H  H2  1  0.98794420  0.94960834  0.09998006  1  0.101551  -1e-05  0.945777  0.0  0.113763  -3.3e-05  1.002723  0.0  0.117338  -2.7e-05  1.000685  0.0  0.107977  0.110864  -4.1e-05  1.004798  0.0
H  H3  1  0.05038803  0.01205104  0.40002882  1  0.101431  -1e-05  0.945788  0.0  0.11365  -3.3e-05  1.002735  0.0  0.117224  -2.7e-05  1.000697  0.0  0.107927  0.110748  -4.1e-05  1.004804  0.0
H  H4  1  0.01203756  0.05042151  0.90001717  1  0.101469  -9e-06  0.945908  0.0  0.113818  -3.3e-05  1.002719  0.0  0.117393  -2.8e-05  1.00068  0.0  0.107993  0.110926  -4.1e-05  1.00479  0.0
H  H5  1  0.94957979  0.98796344  0.59998002  1  0.101453  -1e-05  0.94589  0.0  0.113801  -3.3e-05  1.00271  0.0  0.117375  -2.8e-05  1.000672  0.0  0.107994  0.110908  -4.1e-05  1.004774  0.0
H  H6  1  0.20165009  0.72760908  0.10171407  1  0.10996  -0.000105  0.942764  0.0  0.118001  -7.8e-05  1.005612  0.0  0.121745  -6.1e-05  1.002886  0.0  0.110548  0.115039  -0.000105  1.007881  0.0
H  H7  1  0.27239367  0.79835236  0.39829213  1  0.109961  -0.000106  0.94264  0.0  0.118015  -7.8e-05  1.005492  0.0  0.121762  -6.1e-05  1.002762  0.0  0.11053  0.115052  -0.000105  1.007758  0.0
H  H8  1  0.79833905  0.27242079  0.89828531  1  0.109984  -0.000104  0.942743  0.0  0.118069  -7.8e-05  1.00555  0.0  0.121821  -6.2e-05  1.002807  0.0  0.110521  0.115105  -0.000105  1.007816  0.0
H  H9  1  0.72757607  0.20165883  0.60171537  1  0.109979  -0.000107  0.942679  0.0  0.118033  -7.8e-05  1.005532  0.0  0.121785  -6.1e-05  1.002791  0.0  0.110513  0.115071  -0.000105  1.007795  0.0
H  H10  1  0.76098614  0.45446521  0.57691495  1  0.103321  -0.000306  0.977737  0.0  0.112479  -0.000177  1.040743  0.0  0.115547  -0.00014  1.038925  0.0  0.10781  0.110272  -0.000217  1.042017  0.0
H  H11  1  0.54553471  0.23901263  0.92308422  1  0.103313  -0.000306  0.977772  0.0  0.112464  -0.000177  1.040776  0.0  0.115534  -0.00014  1.038959  0.0  0.107819  0.110253  -0.000217  1.042044  0.0
H  H12  1  0.23901584  0.54551982  0.42307911  1  0.103341  -0.000304  0.977706  0.0  0.112509  -0.000177  1.040718  0.0  0.115564  -0.00014  1.038906  0.0  0.107801  0.110313  -0.000217  1.041965  0.0
H  H13  1  0.45448051  0.76098228  0.07692067  1  0.103361  -0.000305  0.977683  0.0  0.112521  -0.000177  1.040715  0.0  0.115578  -0.00014  1.038894  0.0  0.1078  0.11031  -0.000217  1.041991  0.0
H  H14  1  0.92766877  0.50206959  0.68774207  1  0.103841  -0.000182  0.95388  0.0  0.113845  -0.000109  1.015364  0.0  0.117236  -8.3e-05  1.013528  0.0  0.107211  0.111367  -0.000144  1.016807  0.0
H  H15  1  0.49793095  0.07232829  0.81225774  1  0.103833  -0.00018  0.953847  0.0  0.113833  -0.00011  1.01534  0.0  0.117225  -8.4e-05  1.013503  0.0  0.107204  0.111353  -0.000144  1.016786  0.0
H  H16  1  0.07233666  0.49791436  0.31225097  1  0.103817  -0.000182  0.95387  0.0  0.113841  -0.000109  1.015344  0.0  0.117233  -8.3e-05  1.013506  0.0  0.107188  0.111356  -0.000144  1.016788  0.0
H  H17  1  0.50208858  0.92766225  0.18774716  1  0.103841  -0.000182  0.953912  0.0  0.113865  -0.000109  1.015384  0.0  0.117257  -8.3e-05  1.013546  0.0  0.107216  0.111378  -0.000144  1.016829  0.0
H  H18  1  0.49552038  0.32507204  0.52557017  1  0.079324  -0.001055  0.929378  -0.001  0.085593  -0.000238  0.997678  0.0  0.08814  -0.000161  0.991213  0.0  0.140776  0.083852  -0.000357  1.002051  0.0
H  H19  1  0.67493172  0.50448476  0.97441910  1  0.079378  -0.001056  0.929341  -0.001  0.08563  -0.000238  0.99766  0.0  0.088177  -0.000162  0.991193  0.0  0.140772  0.083886  -0.000357  1.002043  0.0
H  H20  1  0.50449617  0.67490974  0.47443384  1  0.079501  -0.001055  0.929247  -0.001  0.085751  -0.000238  0.997542  0.0  0.088307  -0.000162  0.991072  0.0  0.140815  0.083983  -0.000357  1.001956  0.0
H  H21  1  0.32508793  0.49550143  0.02556905  1  0.079439  -0.001057  0.929281  -0.001  0.0857  -0.000238  0.997599  0.0  0.088247  -0.000161  0.991129  0.0  0.140774  0.083934  -0.000357  1.002012  0.0
H  H22  1  0.34186781  0.10853537  0.39545551  1  0.121046  -0.000213  0.932126  0.0  0.141168  -6.2e-05  0.990338  0.0  0.142943  -5e-05  0.989059  0.0  0.114812  0.139669  -7.2e-05  0.99144  0.0
H  H23  1  0.89146395  0.65813386  0.10453767  1  0.121219  -0.000213  0.932039  0.0  0.141289  -6.2e-05  0.990281  0.0  0.143066  -4.9e-05  0.989001  0.0  0.114859  0.13979  -7.2e-05  0.991388  0.0
H  H24  1  0.65814817  0.89144860  0.60454906  1  0.121187  -0.000216  0.932009  0.0  0.141258  -6.2e-05  0.990268  0.0  0.143037  -4.9e-05  0.988986  0.0  0.114836  0.139755  -7.2e-05  0.991381  0.0
H  H25  1  0.10854704  0.34184900  0.89545785  1  0.121182  -0.000213  0.932036  0.0  0.141261  -6.2e-05  0.99028  0.0  0.143038  -4.9e-05  0.988998  0.0  0.114868  0.139764  -7.2e-05  0.991393  0.0
H  H26  1  0.17080651  0.19765232  0.46093104  1  0.096111  -0.000423  0.940663  0.0  0.116561  1.3e-05  1.00584  0.0  0.115612  1.6e-05  1.008232  0.0  0.102813  0.117152  1.7e-05  1.004269  0.0
H  H27  1  0.80234838  0.82919448  0.03906632  1  0.096136  -0.000423  0.940664  0.0  0.116579  1.3e-05  1.005827  0.0  0.115632  1.6e-05  1.008218  0.0  0.102813  0.117171  1.7e-05  1.004257  0.0
H  H28  1  0.82921023  0.80233275  0.53907106  1  0.096015  -0.000427  0.940581  0.0  0.116471  1.3e-05  1.005761  0.0  0.115523  1.7e-05  1.008153  0.0  0.102742  0.11706  1.7e-05  1.004191  0.0
H  H29  1  0.19766424  0.17078620  0.96093376  1  0.09601  -0.000429  0.940576  0.0  0.116462  1.3e-05  1.005761  0.0  0.115511  1.6e-05  1.008154  0.0  0.102731  0.117052  1.7e-05  1.004195  0.0
H  H30  1  0.26899427  0.02143460  0.51520630  1  0.114738  -0.000252  0.943179  0.0  0.135183  -7.8e-05  1.005116  0.0  0.136426  -5.8e-05  1.004244  0.0  0.11011  0.134176  -9e-05  1.005749  0.0
H  H31  1  0.97856536  0.73101022  0.98479083  1  0.114836  -0.000258  0.943197  0.0  0.135271  -7.8e-05  1.005093  0.0  0.136515  -5.8e-05  1.004229  0.0  0.110136  0.134267  -9e-05  1.005724  0.0
H  H32  1  0.73102065  0.97854937  0.48479614  1  0.114768  -0.000257  0.943176  0.0  0.135249  -7.8e-05  1.005072  0.0  0.136498  -5.8e-05  1.004198  0.0  0.110079  0.134242  -8.9e-05  1.005706  0.0
H  H33  1  0.02145004  0.26897594  0.01521130  1  0.114798  -0.000255  0.943114  0.0  0.135255  -7.8e-05  1.005031  0.0  0.136498  -5.8e-05  1.00416  0.0  0.110103  0.134251  -9e-05  1.005654  0.0
H  H34  1  0.36352491  0.05670716  0.66819222  1  0.124654  -0.000523  0.953376  0.0  0.141916  -0.000105  1.016532  0.0  0.144128  -7.7e-05  1.014774  0.0  0.109177  0.140251  -0.000146  1.018033  0.0
H  H35  1  0.94329417  0.63648367  0.83179966  1  0.124694  -0.000531  0.953441  0.0  0.141957  -0.000105  1.016588  0.0  0.144169  -7.7e-05  1.014828  0.0  0.109165  0.140288  -0.000146  1.018091  0.0
H  H36  1  0.63649432  0.94327244  0.33181547  1  0.124647  -0.00053  0.95356  0.0  0.141957  -0.000105  1.016659  0.0  0.144168  -7.7e-05  1.014898  0.0  0.10919  0.140287  -0.000146  1.018157  0.0
H  H37  1  0.05672509  0.36350799  0.16819090  1  0.124585  -0.000527  0.953575  0.0  0.141912  -0.000105  1.016649  0.0  0.144122  -7.7e-05  1.014891  0.0  0.109176  0.140243  -0.000146  1.018137  0.0
H  H38  1  0.21349960  0.21662255  0.66370162  1  0.101093  -0.000512  0.929136  0.0  0.121671  -2.1e-05  0.991213  0.0  0.1214  -3e-06  0.993195  0.0  0.103385  0.121868  -4.4e-05  0.989925  0.0
H  H39  1  0.78338296  0.78650932  0.83629335  1  0.101171  -0.000506  0.929077  0.0  0.121719  -2.1e-05  0.991182  0.0  0.121448  -3e-06  0.993165  0.0  0.103393  0.121917  -4.4e-05  0.989889  0.0
H  H40  1  0.78651206  0.78336579  0.33630219  1  0.101168  -0.000506  0.929154  0.0  0.121737  -2e-05  0.991232  0.0  0.121465  -3e-06  0.993209  0.0  0.103383  0.121932  -4.3e-05  0.98994  0.0
H  H41  1  0.21663361  0.21348451  0.16370402  1  0.10116  -0.000509  0.92914  0.0  0.121721  -2.1e-05  0.991228  0.0  0.121449  -3e-06  0.993206  0.0  0.103386  0.121916  -4.3e-05  0.989933  0.0
H  H42  1  0.39304895  0.23378665  0.66916627  1  0.119727  -0.000131  0.961397  0.0  0.137294  -0.00011  1.027778  0.0  0.139061  -8.8e-05  1.026582  0.0  0.112699  0.13587  -0.000132  1.028941  0.0
H  H43  1  0.76621735  0.60696346  0.83082441  1  0.119833  -0.00013  0.961374  0.0  0.137386  -0.00011  1.027765  0.0  0.139152  -8.8e-05  1.026567  0.0  0.112712  0.135959  -0.000132  1.028931  0.0
H  H44  1  0.60696799  0.76620170  0.33083618  1  0.119856  -0.00013  0.961486  0.0  0.137403  -0.00011  1.02788  0.0  0.139163  -8.8e-05  1.026694  0.0  0.112753  0.135992  -0.000132  1.029019  0.0
H  H45  1  0.23379893  0.39303147  0.16916837  1  0.119859  -0.000128  0.961457  0.0  0.137381  -0.00011  1.027874  0.0  0.139141  -8.8e-05  1.02669  0.0  0.11273  0.13596  -0.000132  1.029024  0.0
C  C46  1  0.87799326  0.12200331  0.25000402  1  0.626755  0.003577  3.916755  0.011  0.58901  0.002083  4.218645  0.005  0.626109  0.001591  4.210645  0.004  0.198255  0.564279  0.002241  4.222762  0.006
C  C47  1  0.12198043  0.87802104  0.74999852  1  0.62673  0.003576  3.917079  0.011  0.588823  0.002084  4.219202  0.005  0.625923  0.001592  4.211215  0.004  0.198109  0.564099  0.002243  4.223306  0.006
C  C48  1  0.00723686  0.99275466  0.25000557  1  -0.037675  -0.008735  3.751019  -0.006  -0.015593  -0.001545  3.978979  -0.001  -0.019894  -0.001163  3.99788  -0.001  -0.008302  -0.013634  -0.000966  3.967225  -0.001
C  C49  1  0.99273423  0.00726749  0.74999901  1  -0.037554  -0.008707  3.751266  -0.006  -0.015472  -0.001549  3.979441  -0.001  -0.01977  -0.00116  3.998338  -0.001  -0.007962  -0.013518  -0.000966  3.967701  -0.001
C  C50  1  0.04979705  0.91379149  0.16544563  1  -0.074957  -0.001937  3.723571  -0.001  -0.09872  -0.000372  3.970127  0.0  -0.100232  -0.000293  3.989839  0.0  -0.079713  -0.097815  -0.000237  3.957836  0.0
C  C51  1  0.08620745  0.95019840  0.33456172  1  -0.074816  -0.001939  3.723559  -0.001  -0.098576  -0.000372  3.97012  0.0  -0.100088  -0.000293  3.989835  0.0  -0.07965  -0.097666  -0.000237  3.957816  0.0
C  C52  1  0.95018499  0.08623727  0.83455319  1  -0.075102  -0.001966  3.724039  -0.001  -0.098992  -0.00037  3.970622  0.0  -0.100504  -0.000296  3.990355  0.0  -0.079886  -0.098093  -0.000237  3.958333  0.0
C  C53  1  0.91376354  0.04981608  0.66544525  1  -0.075057  -0.001962  3.723949  -0.001  -0.098946  -0.00037  3.970535  0.0  -0.10046  -0.000295  3.990268  0.0  -0.079862  -0.098042  -0.000237  3.958237  0.0
C  C54  1  0.16829752  0.79085489  0.16649735  1  -0.06699  -0.000388  3.719667  0.0  -0.090428  -9.4e-05  3.970184  0.0  -0.09075  -4.7e-05  3.990413  0.0  -0.076486  -0.09018  9.3e-05  3.957294  0.0
C  C55  1  0.20914301  0.83169732  0.33350822  1  -0.067007  -0.000383  3.719776  0.0  -0.090472  -9.4e-05  3.970335  0.0  -0.090794  -4.8e-05  3.990563  0.0  -0.076495  -0.090225  9.3e-05  3.95744  0.0
C  C56  1  0.83168337  0.20916620  0.83350474  1  -0.066875  -0.000374  3.719904  0.0  -0.090323  -9.2e-05  3.970452  0.0  -0.090653  -4.4e-05  3.990666  0.0  -0.076389  -0.090064  9.4e-05  3.957547  0.0
C  C57  1  0.79083173  0.16831499  0.66649558  1  -0.06685  -0.000366  3.719843  0.0  -0.090278  -9.2e-05  3.97041  0.0  -0.090606  -4.6e-05  3.990623  0.0  -0.076389  -0.090024  9.3e-05  3.957505  0.0
C  C58  1  0.24952410  0.75047655  0.25000180  1  -0.054173  -0.010869  3.753455  -0.008  -0.032233  -0.002167  3.981337  -0.002  -0.040026  -0.001659  4.004207  -0.001  -0.01229  -0.028053  -0.001659  3.966945  -0.001
C  C59  1  0.75046301  0.24953689  0.75000045  1  -0.054102  -0.010892  3.753744  -0.008  -0.032318  -0.002173  3.981811  -0.002  -0.040073  -0.001663  4.004614  -0.001  -0.012245  -0.028133  -0.001659  3.96742  -0.001
C  C60  1  0.37883545  0.62116710  0.24999832  1  0.614777  0.003146  3.925401  0.01  0.576008  0.002118  4.230757  0.005  0.612512  0.001598  4.223234  0.004  0.198586  0.551422  0.002443  4.234758  0.006
C  C61  1  0.62115167  0.37884635  0.75000167  1  0.614681  0.003144  3.925706  0.01  0.576051  0.002117  4.23095  0.005  0.612545  0.001599  4.223398  0.004  0.198399  0.551465  0.002442  4.234955  0.006
C  C62  1  0.80922346  0.43961521  0.37588850  1  0.620005  0.002288  3.920439  0.009  0.582434  0.001817  4.220655  0.005  0.619145  0.001337  4.213354  0.004  0.195728  0.55691  0.002568  4.225371  0.006
C  C63  1  0.56039032  0.19077428  0.12410939  1  0.619955  0.002286  3.920302  0.009  0.582375  0.001817  4.220516  0.005  0.619088  0.001337  4.213217  0.004  0.195706  0.55685  0.002567  4.225238  0.006
C  C64  1  0.19076980  0.56039498  0.62410742  1  0.619944  0.002289  3.92027  0.009  0.582344  0.001818  4.220464  0.005  0.619053  0.001338  4.213165  0.004  0.195627  0.556831  0.002568  4.225175  0.006
C  C65  1  0.43960494  0.80922824  0.87589318  1  0.61997  0.002289  3.920333  0.009  0.582364  0.001818  4.22053  0.005  0.619077  0.001338  4.21323  0.004  0.195616  0.55685  0.002568  4.225243  0.006
C  C66  1  0.90772229  0.47210281  0.43924808  1  -0.054146  -0.003189  3.761982  -0.002  -0.030854  -0.000573  3.989266  0.0  -0.036525  -0.000579  4.00868  0.0  -0.013136  -0.027592  -0.00039  3.977011  0.0
C  C67  1  0.52789858  0.09227629  0.06075006  1  -0.054068  -0.00321  3.761908  -0.002  -0.030741  -0.000575  3.989136  0.0  -0.036414  -0.000582  4.008549  0.0  -0.013099  -0.027485  -0.000389  3.976885  0.0
C  C68  1  0.09228238  0.52789208  0.56074828  1  -0.05418  -0.003205  3.761896  -0.002  -0.030821  -0.000575  3.989071  0.0  -0.03649  -0.000584  4.008478  0.0  -0.01307  -0.027578  -0.000389  3.976842  0.0
C  C69  1  0.47210877  0.90771641  0.93925300  1  -0.054257  -0.003189  3.761968  -0.002  -0.030892  -0.000576  3.989148  0.0  -0.036563  -0.000583  4.00856  0.0  -0.013087  -0.027647  -0.000389  3.976916  0.0
C  C70  1  0.86637894  0.47378211  0.54471906  1  -0.072943  -0.000178  3.738482  0.0  -0.098307  0.000113  3.989617  0.0  -0.098778  5.1e-05  4.009623  0.0  -0.082523  -0.098022  0.000204  3.976219  0.0
C  C71  1  0.52622059  0.13361823  0.95528055  1  -0.073023  -0.000167  3.738481  0.0  -0.098396  0.000113  3.989621  0.0  -0.098875  5.3e-05  4.00963  0.0  -0.082606  -0.098103  0.000204  3.976213  0.0
C  C72  1  0.13362486  0.52620402  0.45527842  1  -0.072902  -0.000173  3.73844  0.0  -0.098305  0.000113  3.989533  0.0  -0.098764  5.5e-05  4.009555  0.0  -0.082544  -0.098026  0.000204  3.976123  0.0
C  C73  1  0.47379894  0.86637232  0.04472135  1  -0.072872  -0.000182  3.738495  0.0  -0.09827  0.000113  3.989586  0.0  -0.098731  5.4e-05  4.009609  0.0  -0.082532  -0.097988  0.000204  3.976189  0.0
C  C74  1  0.95815954  0.50109997  0.60559659  1  -0.0725  -0.001119  3.720757  -0.001  -0.094598  -5.3e-05  3.96841  0.0  -0.094589  -7.5e-05  3.986302  0.0  -0.080562  -0.094569  0.000217  3.956673  0.0
C  C75  1  0.49890183  0.04183884  0.89440211  1  -0.072412  -0.00114  3.720529  -0.001  -0.094503  -5.2e-05  3.968167  0.0  -0.094496  -7.7e-05  3.986059  0.0  -0.080519  -0.094469  0.000217  3.956424  0.0
C  C76  1  0.04184820  0.49888727  0.39439881  1  -0.072559  -0.001131  3.720818  -0.001  -0.094629  -5.2e-05  3.968452  0.0  -0.094609  -7.9e-05  3.986319  0.0  -0.080563  -0.094601  0.000217  3.956703  0.0
C  C77  1  0.50111511  0.95814951  0.10560109  1  -0.072627  -0.001114  3.720809  -0.001  -0.094715  -5.2e-05  3.968449  0.0  -0.094692  -7.8e-05  3.986313  0.0  -0.080583  -0.094677  0.000217  3.956696  0.0
C  C78  1  0.44107449  0.27787193  0.47806324  1  0.413899  0.001912  3.729438  0.007  0.347078  0.000435  4.018268  0.002  0.37886  0.000192  4.015328  0.002  0.198411  0.325509  0.000806  4.019201  0.003
C  C79  1  0.72212828  0.55892916  0.02192825  1  0.413774  0.001915  3.729502  0.007  0.346997  0.000434  4.018292  0.002  0.37878  0.000192  4.015356  0.002  0.198404  0.325431  0.000806  4.019219  0.003
C  C80  1  0.55893220  0.72212735  0.52193089  1  0.413591  0.001913  3.729019  0.007  0.346817  0.000435  4.017835  0.002  0.378589  0.000193  4.014902  0.002  0.198322  0.325262  0.000806  4.01874  0.003
C  C81  1  0.27787111  0.44106571  0.97807022  1  0.413755  0.001914  3.728841  0.007  0.346932  0.000434  4.017736  0.002  0.378715  0.000192  4.014799  0.002  0.198394  0.325373  0.000807  4.018648  0.003
C  C82  1  0.28035993  0.12539675  0.47111682  1  -0.17837  -0.000234  3.629507  0.0  -0.278364  -7.8e-05  3.871172  0.0  -0.274578  -4.8e-05  3.88113  0.0  -0.132508  -0.280466  -0.000107  3.864077  0.0
C  C83  1  0.87460362  0.71964185  0.02887788  1  -0.178679  -0.000229  3.629589  0.0  -0.278611  -7.8e-05  3.871234  0.0  -0.274833  -4.9e-05  3.881193  0.0  -0.132556  -0.280711  -0.000107  3.864143  0.0
C  C84  1  0.71965864  0.87458941  0.52888795  1  -0.178463  -0.000225  3.629272  0.0  -0.278456  -7.7e-05  3.870886  0.0  -0.274679  -4.9e-05  3.880848  0.0  -0.132407  -0.280562  -0.000107  3.863799  0.0
C  C85  1  0.12540900  0.28033883  0.97111845  1  -0.178515  -0.000225  3.629275  0.0  -0.278488  -7.9e-05  3.870941  0.0  -0.274702  -5e-05  3.880896  0.0  -0.132446  -0.280596  -0.000107  3.863857  0.0
C  C86  1  0.33074892  0.17335405  0.63889585  1  -0.192407  -0.000511  3.623151  0.0  -0.292948  -0.000273  3.869464  0.0  -0.290424  -0.000205  3.879585  0.0  -0.133571  -0.294383  -0.000366  3.86275  0.0
C  C87  1  0.82664848  0.66926032  0.86109912  1  -0.192692  -0.000513  3.623256  0.0  -0.293212  -0.000271  3.869576  0.0  -0.290694  -0.000201  3.879706  0.0  -0.133606  -0.294645  -0.000366  3.862865  0.0
C  C88  1  0.66926734  0.82662882  0.36111031  1  -0.192769  -0.00051  3.623728  0.0  -0.293344  -0.000273  3.870099  0.0  -0.290826  -0.000204  3.880248  0.0  -0.133679  -0.294799  -0.000366  3.863361  0.0
C  C89  1  0.17337078  0.33073134  0.13889595  1  -0.192721  -0.000513  3.623537  0.0  -0.29327  -0.000272  3.869887  0.0  -0.290744  -0.000202  3.880016  0.0  -0.133636  -0.294715  -0.000366  3.86315  0.0
N  N90  1  0.35732207  0.19289318  0.52745703  1  -0.068686  -0.011247  3.493086  -0.01  0.035448  -0.000578  3.7239  0.0  0.014593  -0.000279  3.749823  0.0  -0.268488  0.049452  -0.000751  3.705679  0.0
N  N91  1  0.80710902  0.64267993  0.97253729  1  -0.068519  -0.011236  3.493001  -0.01  0.035617  -0.000576  3.723783  0.0  0.014765  -0.00028  3.749709  0.0  -0.268458  0.049617  -0.000751  3.705561  0.0
N  N92  1  0.64270158  0.80708972  0.47254753  1  -0.068368  -0.011235  3.493015  -0.01  0.035789  -0.000576  3.723827  0.0  0.014936  -0.000279  3.749757  0.0  -0.268434  0.049801  -0.00075  3.705593  0.0
N  N93  1  0.19290869  0.35729749  0.02745734  1  -0.068324  -0.011235  3.4927  -0.01  0.035827  -0.000574  3.723535  0.0  0.014974  -0.000277  3.74946  0.0  -0.268434  0.049836  -0.000749  3.705308  0.0
O  O94  1  0.84520375  0.19922247  0.16543268  1  -0.637251  -0.058463  1.969676  -0.054  -0.622986  -0.015107  2.217175  -0.016  -0.655858  -0.01186  2.213125  -0.013  -0.348295  -0.599599  -0.01692  2.219163  -0.017
O  O95  1  0.80077322  0.15479817  0.33457206  1  -0.637189  -0.058445  1.969695  -0.054  -0.622918  -0.015105  2.217205  -0.016  -0.655789  -0.011856  2.213158  -0.013  -0.348232  -0.599542  -0.016916  2.219211  -0.017
O  O96  1  0.15478692  0.80079756  0.83456316  1  -0.637158  -0.058449  1.969642  -0.054  -0.622862  -0.015107  2.217278  -0.016  -0.655736  -0.011858  2.213229  -0.013  -0.348307  -0.599486  -0.01692  2.219291  -0.017
O  O97  1  0.19920468  0.84521414  0.66543437  1  -0.637171  -0.058449  1.969704  -0.054  -0.622874  -0.015104  2.217324  -0.016  -0.655745  -0.011858  2.213273  -0.013  -0.348274  -0.599492  -0.016919  2.219334  -0.017
O  O98  1  0.47670825  0.60742370  0.30839451  1  -0.6348  -0.052831  1.982667  -0.049  -0.619846  -0.014474  2.243504  -0.015  -0.651678  -0.01132  2.237881  -0.012  -0.342557  -0.59746  -0.016339  2.246853  -0.017
O  O99  1  0.39257893  0.52329856  0.19160142  1  -0.634807  -0.052814  1.982656  -0.049  -0.619823  -0.01447  2.243468  -0.015  -0.651654  -0.01132  2.237839  -0.012  -0.342607  -0.597452  -0.016335  2.246835  -0.017
O  O100  1  0.52327667  0.39260616  0.69160835  1  -0.634866  -0.052842  1.983114  -0.049  -0.619834  -0.014474  2.243628  -0.015  -0.651699  -0.011322  2.238076  -0.012  -0.342561  -0.597472  -0.016342  2.247043  -0.017
O  O101  1  0.60739064  0.47672141  0.80839385  1  -0.634885  -0.052828  1.983238  -0.049  -0.619835  -0.014474  2.243724  -0.015  -0.651699  -0.011322  2.238166  -0.012  -0.342517  -0.597473  -0.016339  2.247139  -0.017
O  O102  1  0.84699059  0.43702355  0.27923921  1  -0.649127  -0.055176  2.004629  -0.051  -0.63241  -0.014253  2.25899  -0.015  -0.663973  -0.012029  2.253917  -0.013  -0.360155  -0.609954  -0.015996  2.261979  -0.017
O  O103  1  0.56298118  0.15300899  0.22075848  1  -0.64908  -0.055174  2.00462  -0.051  -0.632331  -0.014249  2.258955  -0.015  -0.663892  -0.01203  2.253882  -0.013  -0.360084  -0.609873  -0.015991  2.261949  -0.017
O  O104  1  0.15299988  0.56298116  0.72075616  1  -0.649213  -0.055159  2.004718  -0.051  -0.632422  -0.014246  2.259015  -0.015  -0.663982  -0.012029  2.253949  -0.013  -0.360095  -0.609961  -0.01599  2.262008  -0.017
O  O105  1  0.43701850  0.84699683  0.77924395  1  -0.64917  -0.055152  2.004743  -0.051  -0.632369  -0.014247  2.25904  -0.015  -0.663933  -0.012031  2.253971  -0.013  -0.36007  -0.60991  -0.015989  2.262034  -0.017
O  O106  1  0.68798272  0.41387445  0.41694309  1  -0.620254  -0.052678  1.994773  -0.049  -0.602985  -0.012957  2.252825  -0.014  -0.635818  -0.009704  2.248565  -0.011  -0.336278  -0.579639  -0.01593  2.254942  -0.017
O  O107  1  0.58613162  0.31201543  0.08305564  1  -0.620272  -0.052673  1.994672  -0.049  -0.603011  -0.012956  2.252734  -0.014  -0.635843  -0.009704  2.248462  -0.011  -0.336339  -0.579663  -0.015926  2.25485  -0.017
O  O108  1  0.31200499  0.58614886  0.58304747  1  -0.620183  -0.05267  1.994487  -0.049  -0.602892  -0.012953  2.252471  -0.014  -0.635728  -0.009702  2.248221  -0.011  -0.336274  -0.579534  -0.015928  2.254583  -0.017
O  O109  1  0.41384714  0.68799361  0.91695107  1  -0.620226  -0.052668  1.994484  -0.049  -0.602963  -0.012952  2.252545  -0.014  -0.635782  -0.009701  2.24825  -0.011  -0.336297  -0.579605  -0.015926  2.254658  -0.017
O  O110  1  0.45703524  0.30338198  0.38148336  1  -0.590005  -0.039819  2.155146  -0.039  -0.572218  -0.009409  2.439281  -0.012  -0.606211  -0.007537  2.435107  -0.01  -0.368784  -0.547695  -0.011369  2.441005  -0.014
O  O111  1  0.69662095  0.54296314  0.11851069  1  -0.59001  -0.039826  2.15521  -0.039  -0.572231  -0.009414  2.439311  -0.012  -0.606225  -0.007539  2.43514  -0.01  -0.368807  -0.547711  -0.011371  2.441034  -0.014
O  O112  1  0.54296127  0.69662382  0.61852018  1  -0.58999  -0.039835  2.154811  -0.039  -0.572249  -0.009416  2.438915  -0.012  -0.606237  -0.007543  2.434746  -0.01  -0.368781  -0.547724  -0.011374  2.440633  -0.014
O  O113  1  0.30337145  0.45703829  0.88148034  1  -0.590073  -0.039833  2.15482  -0.039  -0.572306  -0.009417  2.438942  -0.012  -0.606295  -0.007541  2.434768  -0.01  -0.368806  -0.54778  -0.011374  2.440668  -0.014
