# generated using pymatgen
data_Sn2H22C11O5
_symmetry_space_group_name_H-M   'P 1'
_cell_length_a   9.09604092
_cell_length_b   9.43704867
_cell_length_c   9.94039777
_cell_angle_alpha   107.09100815
_cell_angle_beta   100.63330611
_cell_angle_gamma   92.62048250
_symmetry_Int_Tables_number   1
_chemical_formula_structural   Sn2H22C11O5
_chemical_formula_sum   'Sn4 H44 C22 O10'
_cell_volume   797.04481352
_cell_formula_units_Z   2
loop_
 _symmetry_equiv_pos_site_id
 _symmetry_equiv_pos_as_xyz
  1  'x, y, z'
loop_
 _atom_site_type_symbol
 _atom_site_label
 _atom_site_symmetry_multiplicity
 _atom_site_fract_x
 _atom_site_fract_y
 _atom_site_fract_z
 _atom_site_occupancy
 _atom_site_pbe_bader_spin_density
 _atom_site_pbe_cm5_charge
 _atom_site_pbe_ddec_charge
 _atom_site_pbe_ddec_spin_density
 _atom_site_pbe_ddec_sum_bond_order
 _atom_site_pbe_magmom
Sn  Sn0  1  0.93832797  0.24144471  0.80291900  1  0  0.6384  1.420472  0  3.352461  0
Sn  Sn1  1  0.06167204  0.75855708  0.19708541  1  0  0.638393  1.420491  0  3.352497  0
Sn  Sn2  1  0.13504903  0.12918541  0.50648635  1  0  0.618715  1.415223  0  3.484724  0
Sn  Sn3  1  0.86494601  0.87081316  0.49351339  1  0  0.618699  1.415197  0  3.484712  0
H  H4  1  0.24212053  0.56131134  0.64110792  1  0  0.099038  0.108627  0  1.007277  0
H  H5  1  0.75788117  0.43868708  0.35889175  1  0  0.099038  0.108608  0  1.007277  0
H  H6  1  0.37758769  0.46479947  0.71684546  1  0  0.100242  0.114388  0  0.982685  0
H  H7  1  0.62241519  0.53520007  0.28315168  1  0  0.100234  0.114351  0  0.982696  0
H  H8  1  0.30413852  0.77744036  0.87171992  1  0  0.09347  0.062202  0  0.966334  0
H  H9  1  0.69585918  0.22255370  0.12827489  1  0  0.093484  0.062215  0  0.966307  0
H  H10  1  0.56829846  0.67574631  0.72615062  1  0  0.088183  0.085348  0  0.987798  0
H  H11  1  0.43169659  0.32425340  0.27384442  1  0  0.088212  0.085433  0  0.987849  0
H  H12  1  0.41880519  0.76210987  0.65565064  1  0  0.086423  0.077814  0  0.99709  0
H  H13  1  0.58118753  0.23788877  0.34434576  1  0  0.086397  0.077806  0  0.997072  0
H  H14  1  0.49564502  0.99469957  0.86294683  1  0  0.098259  0.10962  0  1.022296  0
H  H15  1  0.50435463  0.00530117  0.13704918  1  0  0.098263  0.109658  0  1.022261  0
H  H16  1  0.63691057  0.91038174  0.94590416  1  0  0.099476  0.11119  0  1.015466  0
H  H17  1  0.36308777  0.08961792  0.05408933  1  0  0.099457  0.111175  0  1.015503  0
H  H18  1  0.40394300  0.63613292  0.03730149  1  0  0.087271  0.12148  0  1.040655  0
H  H19  1  0.59606259  0.36387770  0.96270528  1  0  0.087287  0.121437  0  1.040747  0
H  H20  1  0.53702605  0.78419929  0.05282411  1  0  0.080203  0.102764  0  1.069535  0
H  H21  1  0.46297050  0.21581271  0.94717167  1  0  0.080173  0.102772  0  1.06949  0
H  H22  1  0.56149135  0.60013056  0.95373927  1  0  0.082404  0.110396  0  1.03032  0
H  H23  1  0.43851355  0.39988342  0.04626837  1  0  0.082415  0.110401  0  1.030275  0
H  H24  1  0.82098754  0.43303263  0.67066518  1  0  0.086819  0.168524  0  1.056731  0
H  H25  1  0.17901397  0.56697133  0.32934411  1  0  0.086807  0.168491  0  1.056721  0
H  H26  1  0.75746022  0.46101882  0.83617011  1  0  0.092157  0.181182  0  1.057304  0
H  H27  1  0.24254420  0.53898173  0.16383862  1  0  0.092157  0.181225  0  1.057251  0
H  H28  1  0.67161774  0.30669177  0.68046041  1  0  0.089935  0.175756  0  1.036697  0
H  H29  1  0.32838595  0.69331216  0.31954717  1  0  0.089938  0.17581  0  1.036649  0
H  H30  1  0.07681246  0.08776579  0.96834311  1  0  0.090693  0.175855  0  1.039984  0
H  H31  1  0.92319644  0.91223581  0.03166155  1  0  0.090702  0.175856  0  1.039996  0
H  H32  1  0.05828981  0.27273063  0.07821482  1  0  0.093684  0.19075  0  1.041765  0
H  H33  1  0.94171560  0.72726993  0.92178903  1  0  0.093691  0.190694  0  1.041828  0
H  H34  1  0.20293195  0.24364412  0.97461955  1  0  0.08898  0.171489  0  1.063718  0
H  H35  1  0.79707275  0.75635981  0.02538416  1  0  0.089009  0.171506  0  1.063711  0
H  H36  1  0.37274622  0.99458740  0.58915483  1  0  0.092674  0.181508  0  1.025953  0
H  H37  1  0.62726087  0.00541876  0.41084484  1  0  0.092663  0.181488  0  1.025989  0
H  H38  1  0.41066685  0.19037317  0.68285170  1  0  0.090374  0.175565  0  1.042861  0
H  H39  1  0.58933006  0.80963209  0.31714621  1  0  0.090367  0.1756  0  1.042819  0
H  H40  1  0.28820092  0.07631662  0.74055855  1  0  0.090967  0.173103  0  1.041887  0
H  H41  1  0.71180230  0.92368514  0.25944129  1  0  0.090991  0.173113  0  1.041885  0
H  H42  1  0.94074504  0.32368119  0.45972405  1  0  0.087971  0.169412  0  1.05395  0
H  H43  1  0.05924811  0.67630952  0.54028221  1  0  0.087985  0.169443  0  1.05401  0
H  H44  1  0.11021621  0.36317071  0.40269491  1  0  0.088205  0.171031  0  1.050264  0
H  H45  1  0.88977590  0.63683012  0.59731008  1  0  0.08822  0.171044  0  1.050285  0
H  H46  1  0.97564947  0.21103299  0.29021450  1  0  0.093804  0.182734  0  1.022359  0
H  H47  1  0.02434198  0.78896340  0.70978610  1  0  0.093803  0.182757  0  1.022379  0
C  C48  1  0.17877416  0.48495037  0.80406102  1  0  0.223138  0.637282  0  4.120653  0
C  C49  1  0.82122764  0.51504802  0.19594268  1  0  0.223163  0.637389  0  4.120404  0
C  C50  1  0.29935670  0.54949142  0.74457949  1  0  -0.159428  -0.331092  0  3.909284  0
C  C51  1  0.70064579  0.45050476  0.25541865  1  0  -0.159429  -0.33104  0  3.909307  0
C  C52  1  0.38638054  0.69776611  0.84141120  1  0  -0.09225  0.095144  0  3.868779  0
C  C53  1  0.61361875  0.30223126  0.15858681  1  0  -0.092233  0.095234  0  3.868702  0
C  C54  1  0.48733524  0.75650712  0.75733032  1  0  -0.166345  -0.158315  0  3.932511  0
C  C55  1  0.51266095  0.24349257  0.24266588  1  0  -0.166368  -0.158488  0  3.932642  0
C  C56  1  0.57311710  0.90885816  0.84013221  1  0  -0.165021  -0.300442  0  3.929789  0
C  C57  1  0.42687783  0.09114043  0.15986350  1  0  -0.165001  -0.300467  0  3.929855  0
C  C58  1  0.68614690  0.96334819  0.76690776  1  0  0.234124  0.65418  0  4.115015  0
C  C59  1  0.31384764  0.03664820  0.23308323  1  0  0.234145  0.654194  0  4.115163  0
C  C60  1  0.47744104  0.67862532  0.97901792  1  0  -0.251168  -0.397978  0  3.91876  0
C  C61  1  0.52255967  0.32138320  0.02098249  1  0  -0.251181  -0.397973  0  3.918712  0
C  C62  1  0.77588670  0.37795507  0.73947203  1  0  -0.319001  -0.746803  0  3.718715  0
C  C63  1  0.22411672  0.62204662  0.26053587  1  0  -0.318988  -0.746881  0  3.718601  0
C  C64  1  0.08854311  0.20681854  0.97872433  1  0  -0.321461  -0.746556  0  3.700361  0
C  C65  1  0.91146133  0.79318316  0.02127971  1  0  -0.321516  -0.74655  0  3.700446  0
C  C66  1  0.32599071  0.09359702  0.64764866  1  0  -0.321978  -0.746564  0  3.732746  0
C  C67  1  0.67400814  0.90640596  0.35234888  1  0  -0.321962  -0.746575  0  3.732772  0
C  C68  1  0.02672729  0.27532614  0.40173751  1  0  -0.321543  -0.740867  0  3.723121  0
C  C69  1  0.97326956  0.72466902  0.59826253  1  0  -0.321565  -0.740929  0  3.723208  0
O  O70  1  0.12430859  0.34708186  0.73027224  1  0  -0.286996  -0.612436  0  2.365453  0
O  O71  1  0.87569768  0.65290865  0.26972582  1  0  -0.286929  -0.612397  0  2.365654  0
O  O72  1  0.13282839  0.55666955  0.91178870  1  0  -0.289724  -0.550497  0  2.175933  0
O  O73  1  0.86717183  0.44331890  0.08820084  1  0  -0.289822  -0.550675  0  2.175513  0
O  O74  1  0.69969263  0.88047712  0.64481059  1  0  -0.284851  -0.560106  0  2.288168  0
O  O75  1  0.30030447  0.11952144  0.35518341  1  0  -0.284858  -0.560068  0  2.288081  0
O  O76  1  0.76035642  0.09042328  0.83648567  1  0  -0.287808  -0.56809  0  2.276681  0
O  O77  1  0.23964915  0.90957175  0.16350756  1  0  -0.287829  -0.568147  0  2.276836  0
O  O78  1  0.96254313  0.08405778  0.61664177  1  0  -0.448017  -0.883256  0  2.097643  0
O  O79  1  0.03745919  0.91593614  0.38335971  1  0  -0.448029  -0.883233  0  2.097681  0
