# generated using pymatgen
data_CuH22C22(N2O3)2
_symmetry_space_group_name_H-M   'P 1'
_cell_length_a   7.78027229
_cell_length_b   10.17968397
_cell_length_c   14.82771292
_cell_angle_alpha   89.99983443
_cell_angle_beta   89.99979688
_cell_angle_gamma   111.24556965
_symmetry_Int_Tables_number   1
_chemical_formula_structural   CuH22C22(N2O3)2
_chemical_formula_sum   'Cu2 H44 C44 N8 O12'
_cell_volume   1094.55073715
_cell_formula_units_Z   2
loop_
 _symmetry_equiv_pos_site_id
 _symmetry_equiv_pos_as_xyz
  1  'x, y, z'
loop_
 _atom_site_type_symbol
 _atom_site_label
 _atom_site_symmetry_multiplicity
 _atom_site_fract_x
 _atom_site_fract_y
 _atom_site_fract_z
 _atom_site_occupancy
 _atom_site_pbe_bader_charge
 _atom_site_pbe_bader_spin_density
 _atom_site_pbe_cm5_charge
 _atom_site_pbe_ddec_charge
 _atom_site_pbe_ddec_spin_density
 _atom_site_pbe_ddec_sum_bond_order
 _atom_site_pbe_magmom
Cu  Cu0  1  0.50000112  0.99999998  0.50000044  1  1.075451  -0.575797  0.747943  0.786617  -0.734229  2.254142  -0.575
Cu  Cu1  1  0.00000050  0.00000105  1.00000000  1  1.075385  -0.575797  0.747942  0.786518  -0.73423  2.254292  -0.575
H  H2  1  0.64551837  0.74217489  0.49486190  1  0.198961  -0.000286  0.140393  0.114031  -1.5e-05  1.013738  0.0
H  H3  1  0.85447892  0.25782360  0.99486107  1  0.198961  -0.000286  0.140391  0.114024  -1.5e-05  1.013769  0.0
H  H4  1  0.35448210  0.25782463  0.50513733  1  0.198973  -0.000286  0.140407  0.114054  -1.5e-05  1.013726  0.0
H  H5  1  0.14552463  0.74217697  0.00513950  1  0.198925  -0.000286  0.140403  0.114061  -1.5e-05  1.013695  0.0
H  H6  1  0.31928422  0.85269112  0.68530009  1  0.116943  -0.000744  0.123888  0.120533  -0.000285  1.012951  -0.001
H  H7  1  0.18071713  0.14730712  0.18530068  1  0.116938  -0.000744  0.123883  0.120512  -0.000285  1.012893  -0.001
H  H8  1  0.68071754  0.14730840  0.31469913  1  0.11689  -0.000744  0.123873  0.120501  -0.000285  1.012941  -0.001
H  H9  1  0.81928105  0.85269030  0.81470191  1  0.116948  -0.000744  0.123878  0.120518  -0.000285  1.012959  -0.001
H  H10  1  0.37706223  0.61468235  0.74689777  1  0.135351  -0.000946  0.120438  0.121606  -0.000471  1.042846  -0.001
H  H11  1  0.12294002  0.38531861  0.24689867  1  0.135436  -0.000946  0.12043  0.121637  -0.000471  1.042807  -0.001
H  H12  1  0.62293389  0.38531612  0.25310213  1  0.135356  -0.000946  0.120443  0.121656  -0.000471  1.042888  -0.001
H  H13  1  0.87705917  0.61468091  0.75310325  1  0.135497  -0.000946  0.120453  0.121643  -0.000471  1.042834  -0.001
H  H14  1  0.83304455  0.62668364  0.54309179  1  0.109131  6e-06  0.102612  0.118278  2.2e-05  1.048405  0.0
H  H15  1  0.66695140  0.37331380  0.04309264  1  0.109124  6e-06  0.102596  0.118249  2.2e-05  1.048423  0.0
H  H16  1  0.16695593  0.37331588  0.45690743  1  0.109159  6e-06  0.102612  0.118267  2.2e-05  1.048441  0.0
H  H17  1  0.33304830  0.62668678  0.95690726  1  0.109113  6e-06  0.102597  0.118252  2.2e-05  1.048454  0.0
H  H18  1  0.92315774  0.41566971  0.54279113  1  0.08143  1e-05  0.104477  0.123824  -2e-06  1.018001  0.0
H  H19  1  0.57683693  0.58432774  0.04279105  1  0.08144  1e-05  0.104455  0.12379  -2e-06  1.018014  0.0
H  H20  1  0.07684402  0.58432981  0.45720877  1  0.081453  1e-05  0.104482  0.123827  -2e-06  1.018022  0.0
H  H21  1  0.42316534  0.41567283  0.95720885  1  0.081411  1e-05  0.104487  0.123843  -2e-06  1.017961  0.0
H  H22  1  0.46100826  0.19538353  0.71329953  1  0.116387  -5.9e-05  0.109407  0.134331  -6.3e-05  0.992753  0.0
H  H23  1  0.03898869  0.80461663  0.21330111  1  0.116292  -5.9e-05  0.109419  0.134328  -6.3e-05  0.99275  0.0
H  H24  1  0.53899171  0.80461493  0.28670036  1  0.116388  -5.9e-05  0.10941  0.134308  -6.3e-05  0.992825  0.0
H  H25  1  0.96101101  0.19538395  0.78669946  1  0.116307  -5.9e-05  0.109396  0.134283  -6.3e-05  0.992752  0.0
H  H26  1  0.36328276  0.40051030  0.70999952  1  0.091466  -3.6e-05  0.101813  0.108756  -2.2e-05  1.035019  0.0
H  H27  1  0.13671601  0.59949093  0.21000065  1  0.091426  -3.5e-05  0.101834  0.108768  -2.2e-05  1.034989  0.0
H  H28  1  0.63671849  0.59948816  0.28999970  1  0.09149  -3.6e-05  0.101812  0.108757  -2.2e-05  1.035019  0.0
H  H29  1  0.86328291  0.40051070  0.78999925  1  0.091518  -3.5e-05  0.101821  0.108781  -2.2e-05  1.035011  0.0
H  H30  1  0.85938600  0.90456123  0.62688055  1  0.062722  -0.002701  0.091554  0.146771  -0.001223  1.027236  -0.002
H  H31  1  0.64061195  0.09543351  0.12688199  1  0.062771  -0.002701  0.091565  0.146785  -0.001223  1.027208  -0.002
H  H32  1  0.14061397  0.09543724  0.37311935  1  0.062728  -0.002701  0.091571  0.146784  -0.001223  1.027236  -0.002
H  H33  1  0.35938546  0.90456496  0.87311791  1  0.062734  -0.002701  0.091559  0.146789  -0.001223  1.027236  -0.002
H  H34  1  0.03673627  0.07208404  0.64882416  1  0.046567  -1.5e-05  0.101742  0.16613  6e-05  0.987771  0.0
H  H35  1  0.46325573  0.92791026  0.14882403  1  0.04653  -1.5e-05  0.101736  0.16617  6e-05  0.987849  0.0
H  H36  1  0.96326063  0.92791338  0.35117641  1  0.046549  -1.5e-05  0.101741  0.166119  6e-05  0.987748  0.0
H  H37  1  0.53673938  0.07208611  0.85117385  1  0.046567  -1.5e-05  0.10177  0.166193  6e-05  0.987814  0.0
H  H38  1  0.04351673  0.91972082  0.70318167  1  0.062904  9.6e-05  0.093241  0.141399  0.000203  1.035603  0.0
H  H39  1  0.45647702  0.08027520  0.20318322  1  0.062899  9.5e-05  0.093227  0.141357  0.000203  1.035637  0.0
H  H40  1  0.95648068  0.08027765  0.29681823  1  0.062855  9.5e-05  0.093245  0.141415  0.000203  1.03559  0.0
H  H41  1  0.54351731  0.91972223  0.79681735  1  0.06288  9.5e-05  0.093228  0.141377  0.000203  1.035635  0.0
H  H42  1  0.82653073  0.17532920  0.57358919  1  0.651169  -2.4e-05  0.288785  0.335291  0.000135  1.020579  0.0
H  H43  1  0.67346642  0.82467119  0.07358509  1  0.651104  -2.3e-05  0.288761  0.335231  0.000135  1.020584  0.0
H  H44  1  0.17347153  0.82467137  0.42641070  1  0.651177  -2.3e-05  0.288795  0.335273  0.000135  1.020631  0.0
H  H45  1  0.32653456  0.17532938  0.92641481  1  0.651078  -2.3e-05  0.288768  0.33526  0.000135  1.020582  0.0
C  C46  1  0.56509449  0.74074241  0.55464463  1  0.938851  0.00143  0.14767  0.106895  0.001818  3.887901  0.0
C  C47  1  0.93490514  0.25926022  0.05464519  1  0.938855  0.00143  0.147692  0.106847  0.001818  3.88792  0.0
C  C48  1  0.43490598  0.25925711  0.44535527  1  0.93884  0.00143  0.14763  0.106781  0.001818  3.887954  0.0
C  C49  1  0.06509428  0.74074247  0.94535606  1  0.938907  0.00143  0.14764  0.106788  0.001818  3.887898  0.0
C  C50  1  0.39384254  0.79301704  0.65451718  1  0.376204  -0.001118  -0.000554  -0.025729  -0.000689  4.009161  -0.001
C  C51  1  0.10615628  0.20698353  0.15451645  1  0.375871  -0.001118  -0.00055  -0.025692  -0.000689  4.009084  -0.001
C  C52  1  0.60615977  0.20697825  0.34548406  1  0.376076  -0.001118  -0.00046  -0.025547  -0.000688  4.008855  -0.001
C  C53  1  0.89383957  0.79301706  0.84548413  1  0.376205  -0.001118  -0.000498  -0.025628  -0.000688  4.008973  -0.001
C  C54  1  0.42065369  0.67498073  0.68540606  1  0.309228  -0.003341  -0.001472  -0.105367  -0.002199  3.903187  -0.002
C  C55  1  0.07934689  0.32501856  0.18540649  1  0.309431  -0.003341  -0.001502  -0.105512  -0.002199  3.903216  -0.002
C  C56  1  0.57934628  0.32501774  0.31459182  1  0.309358  -0.003342  -0.001555  -0.105625  -0.0022  3.9031  -0.002
C  C57  1  0.92065259  0.67497885  0.81459409  1  0.309099  -0.003341  -0.00154  -0.105524  -0.002199  3.903215  -0.002
C  C58  1  0.58915456  0.52572659  0.62458682  1  0.264096  -0.000972  0.071094  0.120595  -0.000728  4.053923  -0.001
C  C59  1  0.91084593  0.47427344  0.12458768  1  0.264087  -0.000972  0.071059  0.120477  -0.000728  4.054025  -0.001
C  C60  1  0.41084720  0.47427293  0.37541240  1  0.264089  -0.000972  0.071082  0.12055  -0.000728  4.053954  -0.001
C  C61  1  0.08915555  0.52572819  0.87541289  1  0.264074  -0.000972  0.071103  0.120557  -0.000728  4.053827  -0.001
C  C62  1  0.74818040  0.53076960  0.57825720  1  -0.027542  0.000157  -0.099871  -0.161209  0.000199  4.020521  0.0
C  C63  1  0.75181904  0.46922759  0.07825837  1  -0.027552  0.000157  -0.09985  -0.161183  0.000199  4.020524  0.0
C  C64  1  0.25182058  0.46923098  0.42174270  1  -0.027539  0.000157  -0.099878  -0.16122  0.000199  4.020594  0.0
C  C65  1  0.24818144  0.53077193  0.92174288  1  -0.027567  0.000157  -0.099845  -0.16113  0.000199  4.020502  0.0
C  C66  1  0.80068072  0.41364976  0.57921359  1  0.012493  -0.000142  -0.110801  -0.215669  -0.000106  3.988359  0.0
C  C67  1  0.69931358  0.58634744  0.07921462  1  0.012499  -0.000142  -0.110776  -0.215615  -0.000106  3.988239  0.0
C  C68  1  0.19932026  0.58635082  0.42078631  1  0.012501  -0.000142  -0.110799  -0.215666  -0.000106  3.988411  0.0
C  C69  1  0.30068561  0.41365208  0.92078663  1  0.012497  -0.000142  -0.110803  -0.215703  -0.000106  3.988264  0.0
C  C70  1  0.69700967  0.29102922  0.62689749  1  0.443312  0.000136  0.078031  0.315916  0.000259  4.099922  0.0
C  C71  1  0.80299158  0.70896974  0.12689607  1  0.443547  0.000136  0.077995  0.315881  0.000259  4.099849  0.0
C  C72  1  0.30299131  0.70897136  0.37310308  1  0.443497  0.000136  0.077994  0.315907  0.000259  4.099896  0.0
C  C73  1  0.19700940  0.29103084  0.87310316  1  0.443357  0.000136  0.077984  0.315843  0.000259  4.099787  0.0
C  C74  1  0.54270509  0.28993578  0.67657556  1  -0.006046  -0.000226  -0.102537  -0.187265  -0.000162  3.96223  0.0
C  C75  1  0.95729259  0.71006178  0.17657654  1  -0.005916  -0.000226  -0.102506  -0.187182  -0.000162  3.962202  0.0
C  C76  1  0.45729617  0.71006268  0.32342434  1  -0.006015  -0.000226  -0.102489  -0.187197  -0.000162  3.962183  0.0
C  C77  1  0.04270632  0.28993986  0.82342403  1  -0.005873  -0.000226  -0.102449  -0.187065  -0.000162  3.961995  0.0
C  C78  1  0.48794186  0.40565253  0.67433847  1  -0.05953  -0.000147  -0.096345  -0.154887  -7.2e-05  4.015001  0.0
C  C79  1  0.01205704  0.59434579  0.17433984  1  -0.059528  -0.000147  -0.096354  -0.154886  -7.2e-05  4.015  0.0
C  C80  1  0.51205890  0.59434488  0.32566075  1  -0.059619  -0.000147  -0.096357  -0.154882  -7.2e-05  4.015017  0.0
C  C81  1  0.98794238  0.40565690  0.82566141  1  -0.059626  -0.000147  -0.096377  -0.154983  -7.2e-05  4.014864  0.0
C  C82  1  0.12339786  0.93503226  0.56525134  1  1.550968  -0.000411  0.21387  0.679756  0.0002  4.126541  0.001
C  C83  1  0.37659855  0.06496472  0.06524970  1  1.551052  -0.000409  0.213821  0.679728  0.000201  4.126375  0.001
C  C84  1  0.87660491  0.06496937  0.43474856  1  1.550957  -0.000411  0.213874  0.679721  0.0002  4.126605  0.001
C  C85  1  0.62339963  0.93503269  0.93474885  1  1.550872  -0.00041  0.213828  0.679746  0.000202  4.126405  0.001
C  C86  1  0.00647873  0.95916488  0.63999728  1  -0.068444  -0.011081  -0.250671  -0.517858  -0.007925  3.876411  -0.008
C  C87  1  0.49351772  0.04083052  0.13999951  1  -0.068558  -0.011083  -0.250633  -0.517828  -0.007926  3.876389  -0.008
C  C88  1  0.99351996  0.04083359  0.36000330  1  -0.068359  -0.01108  -0.250685  -0.51784  -0.007924  3.876394  -0.008
C  C89  1  0.50648047  0.95916690  0.86000106  1  -0.068437  -0.011082  -0.250691  -0.517919  -0.007925  3.876496  -0.008
N  N90  1  0.48463618  0.83306632  0.57337036  1  -1.180158  -0.076683  -0.376988  -0.298123  -0.050762  3.649058  -0.067
N  N91  1  0.01536166  0.16693377  0.07336987  1  -1.180129  -0.076684  -0.37699  -0.298101  -0.050762  3.649027  -0.067
N  N92  1  0.51536351  0.16693426  0.42663089  1  -1.180184  -0.076684  -0.376947  -0.29802  -0.050763  3.648991  -0.067
N  N93  1  0.98463804  0.83306681  0.92663003  1  -1.180207  -0.076685  -0.376974  -0.298076  -0.050763  3.649033  -0.067
N  N94  1  0.52960503  0.64264344  0.62150065  1  -1.256127  -0.002547  -0.222024  0.021559  -0.001364  3.791916  -0.002
N  N95  1  0.97039728  0.35735766  0.12150298  1  -1.256142  -0.002547  -0.221986  0.021775  -0.001364  3.791773  -0.002
N  N96  1  0.47039723  0.35735713  0.37849992  1  -1.256082  -0.002547  -0.222045  0.021638  -0.001364  3.791711  -0.002
N  N97  1  0.02960471  0.64264502  0.87849962  1  -1.256138  -0.002547  -0.222029  0.02165  -0.001364  3.791843  -0.002
O  O98  1  0.05495631  0.83617788  0.50908100  1  -1.186679  -0.001752  -0.313138  -0.555967  -0.000272  2.183249  -0.002
O  O99  1  0.44504754  0.16382581  0.00908106  1  -1.186662  -0.001752  -0.313078  -0.555949  -0.000272  2.18318  -0.002
O  O100  1  0.94504361  0.16382586  0.49091822  1  -1.186723  -0.001752  -0.313108  -0.555967  -0.000272  2.183258  -0.002
O  O101  1  0.55494730  0.83617267  0.99091816  1  -1.186658  -0.001752  -0.313072  -0.555937  -0.000271  2.18312  -0.002
O  O102  1  0.29274722  0.01959838  0.56742100  1  -1.134219  -0.111502  -0.327156  -0.554052  -0.070372  2.365977  -0.102
O  O103  1  0.20724560  0.98039649  0.06742191  1  -1.134148  -0.111501  -0.327168  -0.554026  -0.070372  2.365963  -0.102
O  O104  1  0.70725633  0.98040219  0.43258025  1  -1.134179  -0.111501  -0.327154  -0.554047  -0.070371  2.366017  -0.102
O  O105  1  0.79275281  0.01960409  0.93257596  1  -1.134121  -0.111501  -0.327149  -0.553996  -0.070373  2.36594  -0.102
O  O106  1  0.73941253  0.17330666  0.62618404  1  -1.187167  0.0008  -0.361461  -0.492865  0.00095  2.364128  0.0
O  O107  1  0.76058689  0.82669653  0.12618448  1  -1.187303  0.0008  -0.36144  -0.49286  0.00095  2.363997  0.0
O  O108  1  0.26058974  0.82669392  0.37381586  1  -1.187349  0.0008  -0.361429  -0.492845  0.00095  2.364185  0.0
O  O109  1  0.23941588  0.17330510  0.87381542  1  -1.187087  0.000799  -0.361466  -0.49287  0.00095  2.364003  0.0
