# generated using pymatgen
data_NiH14C20(NO)4
_symmetry_space_group_name_H-M   'P 1'
_cell_length_a   8.73299848
_cell_length_b   8.73302140
_cell_length_c   12.77920710
_cell_angle_alpha   75.12644437
_cell_angle_beta   75.12688573
_cell_angle_gamma   67.82096240
_symmetry_Int_Tables_number   1
_chemical_formula_structural   NiH14C20(NO)4
_chemical_formula_sum   'Ni2 H28 C40 N8 O8'
_cell_volume   858.24779241
_cell_formula_units_Z   2
loop_
 _symmetry_equiv_pos_site_id
 _symmetry_equiv_pos_as_xyz
  1  'x, y, z'
loop_
 _atom_site_type_symbol
 _atom_site_label
 _atom_site_symmetry_multiplicity
 _atom_site_fract_x
 _atom_site_fract_y
 _atom_site_fract_z
 _atom_site_occupancy
 _atom_site_hle17_ddec_charge
 _atom_site_hle17_ddec_spin_density
 _atom_site_hle17_ddec_sum_bond_order
 _atom_site_hle17_magmom
 _atom_site_hse06_10hf_ddec_charge
 _atom_site_hse06_10hf_ddec_spin_density
 _atom_site_hse06_10hf_ddec_sum_bond_order
 _atom_site_hse06_10hf_magmom
 _atom_site_hse06_ddec_charge
 _atom_site_hse06_ddec_spin_density
 _atom_site_hse06_ddec_sum_bond_order
 _atom_site_hse06_magmom
 _atom_site_pbe_cm5_charge
 _atom_site_pbe_ddec_charge
 _atom_site_pbe_ddec_spin_density
 _atom_site_pbe_ddec_sum_bond_order
 _atom_site_pbe_magmom
Ni  Ni0  1  0.99999911  0.99999929  0.50000025  1  0.77807  1.802683  1.9565  1.472  0.783862  1.848503  2.345685  1.606  0.896068  1.913501  2.25825  1.703  0.621408  0.701932  1.78814  2.409158  1.522
Ni  Ni1  1  0.00000059  0.00000030  0.99999968  1  0.778065  -1.802686  1.956512  -1.472  0.78394  -1.8485  2.345657  -1.606  0.896163  -1.913497  2.258166  -1.703  0.621428  0.702007  -1.788137  2.409136  -1.522
H  H2  1  0.04567607  0.12139024  0.23520711  1  0.11482  3.8e-05  0.998052  0.001  0.118419  -2.6e-05  1.069726  0.0  0.122591  2.5e-05  1.065  0.0  0.134296  0.11516  -9.2e-05  1.073313  0.0
H  H3  1  0.87861804  0.95432011  0.26479500  1  0.11482  -4.1e-05  0.99805  -0.001  0.118363  2.6e-05  1.069799  0.0  0.122528  -2.5e-05  1.065093  0.0  0.134288  0.11511  9.2e-05  1.073363  0.0
H  H4  1  0.95432208  0.87861084  0.76479278  1  0.114862  3.9e-05  0.998027  0.001  0.118467  -2.6e-05  1.069699  0.0  0.12264  2.5e-05  1.064971  0.0  0.134316  0.115206  -9.2e-05  1.073286  0.0
H  H5  1  0.12138451  0.04567850  0.73520377  1  0.114822  -4e-05  0.998066  -0.001  0.11842  2.6e-05  1.069737  0.0  0.122593  -2.5e-05  1.06501  0.0  0.134288  0.115165  9.2e-05  1.073312  0.0
H  H6  1  0.94100550  0.39748417  0.48730119  1  0.104175  6.8e-05  0.967222  0.0  0.11465  0.000142  1.024776  0.0  0.117008  9.5e-05  1.024185  0.0  0.116503  0.112798  0.000188  1.025507  0.001
H  H7  1  0.60252258  0.05899680  0.01269635  1  0.104182  -6.7e-05  0.967251  0.0  0.11466  -0.000142  1.024815  0.0  0.117023  -9.5e-05  1.024199  0.0  0.116492  0.112807  -0.000188  1.025545  -0.001
H  H8  1  0.05899587  0.60251443  0.51269935  1  0.10418  6.7e-05  0.96721  0.0  0.114642  0.000142  1.024782  0.0  0.116997  9.5e-05  1.024191  0.0  0.116514  0.11279  0.000188  1.025511  0.001
H  H9  1  0.39747718  0.94100304  0.98730426  1  0.104178  -6.7e-05  0.96725  0.0  0.114658  -0.000142  1.02481  0.0  0.117019  -9.5e-05  1.0242  0.0  0.116495  0.112806  -0.000188  1.02554  -0.001
H  H10  1  0.94361278  0.61486799  0.28424733  1  0.122444  0.000456  0.95655  0.0  0.130141  0.00043  1.021997  0.0  0.133862  0.00031  1.018708  0.0  0.123393  0.12726  0.000558  1.024682  0.0
H  H11  1  0.38514046  0.05639282  0.21575029  1  0.122353  -0.000455  0.956706  0.0  0.130084  -0.00043  1.022116  0.0  0.133798  -0.00031  1.018838  0.0  0.12337  0.12721  -0.000558  1.024794  0.0
H  H12  1  0.05638698  0.38513185  0.71575327  1  0.122418  0.000455  0.956575  0.0  0.130125  0.00043  1.022007  0.0  0.133843  0.00031  1.018723  0.0  0.123382  0.127243  0.000558  1.024695  0.0
H  H13  1  0.61486123  0.94360830  0.78424974  1  0.122388  -0.000453  0.956617  0.0  0.1301  -0.00043  1.022052  0.0  0.133823  -0.00031  1.018765  0.0  0.123389  0.127225  -0.000558  1.024728  0.0
H  H14  1  0.77396994  0.65885252  0.13442387  1  0.102846  1.2e-05  0.948102  0.0  0.113939  1.5e-05  1.007514  0.0  0.115908  1.3e-05  1.008046  0.0  0.10753  0.112566  1.8e-05  1.007163  0.0
H  H15  1  0.34115387  0.22603357  0.36557389  1  0.102906  -1.1e-05  0.948171  0.0  0.114021  -1.5e-05  1.007542  0.0  0.115997  -1.3e-05  1.008059  0.0  0.107548  0.112645  -1.8e-05  1.007202  0.0
H  H16  1  0.22603057  0.34114859  0.86557559  1  0.102838  1.1e-05  0.948054  0.0  0.113932  1.5e-05  1.007468  0.0  0.115905  1.3e-05  1.00799  0.0  0.107517  0.112559  1.8e-05  1.007118  0.0
H  H17  1  0.65884750  0.77396502  0.63442508  1  0.102926  -1.2e-05  0.948166  0.0  0.114035  -1.5e-05  1.007537  0.0  0.116012  -1.3e-05  1.008054  0.0  0.107554  0.112654  -1.8e-05  1.007209  0.0
H  H18  1  0.22159252  0.23892013  0.06623206  1  0.104958  6.5e-05  0.951231  0.0  0.117188  6e-05  1.011449  0.0  0.119643  5.3e-05  1.010844  0.0  0.108464  0.115335  6.4e-05  1.012092  0.0
H  H19  1  0.76108028  0.77840261  0.43377099  1  0.104925  -6.6e-05  0.951247  0.0  0.117151  -6e-05  1.011488  0.0  0.119605  -5.3e-05  1.010885  0.0  0.108447  0.115319  -6.4e-05  1.012103  0.0
H  H20  1  0.77840724  0.76107971  0.93376776  1  0.104976  6.5e-05  0.951236  0.0  0.11721  6e-05  1.011447  0.0  0.119663  5.3e-05  1.010844  0.0  0.108472  0.115361  6.4e-05  1.012081  0.0
H  H21  1  0.23892185  0.22159725  0.56622841  1  0.104951  -6.5e-05  0.951243  0.0  0.117179  -6e-05  1.011475  0.0  0.119632  -5.3e-05  1.010873  0.0  0.108459  0.115346  -6.4e-05  1.012093  0.0
H  H22  1  0.52346341  0.40802979  0.57184141  1  0.099277  8.2e-05  0.963303  0.0  0.109917  0.000123  1.024043  0.0  0.113312  7.6e-05  1.0222  0.0  0.10308  0.107513  0.00017  1.02533  0.0
H  H23  1  0.59196215  0.47652223  0.92815534  1  0.099198  -8.2e-05  0.963418  0.0  0.109858  -0.000123  1.024124  0.0  0.113257  -7.6e-05  1.022274  0.0  0.103052  0.10745  -0.00017  1.025419  0.0
H  H24  1  0.47653356  0.59197129  0.42815947  1  0.099261  8.2e-05  0.963274  0.0  0.10992  0.000123  1.024001  0.0  0.113319  7.6e-05  1.022152  0.0  0.103061  0.107513  0.00017  1.025297  0.0
H  H25  1  0.40803685  0.52347634  0.07184562  1  0.09918  -8.1e-05  0.963465  0.0  0.109825  -0.000123  1.024187  0.0  0.113222  -7.6e-05  1.022342  0.0  0.103032  0.107417  -0.00017  1.02548  0.0
H  H26  1  0.31956831  0.64970870  0.65860569  1  0.096974  -3.7e-05  0.962035  0.0  0.104597  -4.9e-05  1.026404  0.0  0.106813  -5e-05  1.026467  0.0  0.101359  0.103022  -4.6e-05  1.026469  0.0
H  H27  1  0.35028393  0.68042706  0.84139269  1  0.097018  3.6e-05  0.962067  0.0  0.104647  4.9e-05  1.026428  0.0  0.106863  5e-05  1.026492  0.0  0.101381  0.103073  4.6e-05  1.026484  0.0
H  H28  1  0.68042909  0.35029111  0.34139690  1  0.096971  -3.7e-05  0.962031  0.0  0.10459  -4.9e-05  1.026406  0.0  0.106807  -5e-05  1.026469  0.0  0.10135  0.103015  -4.6e-05  1.026468  0.0
H  H29  1  0.64971422  0.31957402  0.15860954  1  0.097051  3.7e-05  0.962043  0.0  0.104657  4.9e-05  1.026425  0.0  0.106874  5e-05  1.026487  0.0  0.101375  0.103084  4.6e-05  1.026478  0.0
C  C30  1  0.01704004  0.22340663  0.27873259  1  0.146199  -0.00736  3.611464  -0.008  0.091549  -0.002229  3.88093  -0.003  0.107006  -0.002336  3.892317  -0.003  0.138283  0.081034  -0.0024  3.873711  -0.003
C  C31  1  0.77660129  0.98296134  0.22126596  1  0.14619  0.00736  3.611356  0.008  0.091615  0.00223  3.880834  0.003  0.107068  0.002337  3.892224  0.003  0.138305  0.081099  0.0024  3.87362  0.003
C  C32  1  0.98295897  0.77659194  0.72126602  1  0.146102  -0.007356  3.611528  -0.008  0.091443  -0.00223  3.88099  -0.003  0.106899  -0.002336  3.89238  -0.003  0.138242  0.080931  -0.0024  3.873767  -0.003
C  C33  1  0.22340202  0.01703853  0.77873245  1  0.14618  0.007361  3.611362  0.008  0.09158  0.00223  3.880779  0.003  0.107034  0.002336  3.89217  0.003  0.138305  0.081066  0.0024  3.873562  0.003
C  C34  1  0.96182835  0.37284401  0.40507155  1  -0.010815  -0.001721  3.746384  -0.002  -0.037387  -4.4e-05  4.010364  0.0  -0.034356  -0.000358  4.030718  -0.001  -0.005203  -0.039665  0.000141  3.997076  0.0
C  C35  1  0.62716567  0.03817616  0.09492364  1  -0.010966  0.001716  3.746309  0.002  -0.037523  4.4e-05  4.010302  0.0  -0.034485  0.000358  4.030656  0.001  -0.005249  -0.0398  -0.00014  3.997012  0.0
C  C36  1  0.03817227  0.62715332  0.59492856  1  -0.010831  -0.001712  3.746307  -0.002  -0.037401  -4.4e-05  4.010309  0.0  -0.034365  -0.000358  4.030658  -0.001  -0.005196  -0.039676  0.000141  3.99702  0.0
C  C37  1  0.37283484  0.96182494  0.90507582  1  -0.010931  0.001718  3.746245  0.002  -0.037501  4.5e-05  4.010224  0.0  -0.034464  0.000359  4.030581  0.001  -0.005246  -0.039778  -0.00014  3.996935  0.0
C  C38  1  0.96059123  0.48189688  0.30607205  1  -0.061363  0.003536  3.667033  0.004  -0.100628  0.001453  3.923987  0.002  -0.0976  0.001334  3.939149  0.002  0.002975  -0.102656  0.001643  3.914232  0.002
C  C39  1  0.51811044  0.03941501  0.19392451  1  -0.061167  -0.003535  3.667082  -0.004  -0.10046  -0.001454  3.924021  -0.002  -0.097431  -0.001334  3.939197  -0.002  0.003044  -0.102496  -0.001643  3.914266  -0.002
C  C40  1  0.03940895  0.51810170  0.69392635  1  -0.06131  0.003529  3.666985  0.004  -0.100587  0.001453  3.92394  0.002  -0.097559  0.001334  3.939107  0.002  0.00299  -0.102613  0.001643  3.914189  0.002
C  C41  1  0.48189051  0.96058484  0.80607666  1  -0.061209  -0.003537  3.666967  -0.004  -0.100487  -0.001454  3.923925  -0.002  -0.097462  -0.001334  3.939086  -0.002  0.003006  -0.102518  -0.001643  3.914165  -0.002
C  C42  1  0.99842734  0.44394763  0.11162219  1  0.180319  0.000383  3.755468  0.001  0.173631  0.000347  3.999443  0.001  0.178822  0.000296  4.02018  0.001  0.099227  0.169969  0.00038  3.98567  0.001
C  C43  1  0.55606123  0.00156947  0.38837987  1  0.180323  -0.000378  3.75543  -0.001  0.173704  -0.000347  3.999315  -0.001  0.178897  -0.000295  4.020049  -0.001  0.099217  0.170043  -0.00038  3.98555  -0.001
C  C44  1  0.00157199  0.55605346  0.88837983  1  0.180382  0.000375  3.75534  0.001  0.173677  0.000347  3.99934  0.001  0.178868  0.000295  4.020076  0.001  0.099258  0.170015  0.00038  3.98557  0.001
C  C45  1  0.44394078  0.99843417  0.61162045  1  0.180325  -0.000379  3.755471  -0.001  0.17368  -0.000347  3.999387  -0.001  0.178872  -0.000295  4.020121  -0.001  0.099196  0.170017  -0.00038  3.985623  -0.001
C  C46  1  0.87321624  0.59034919  0.07528608  1  -0.098898  0.0002  3.723138  0.0  -0.120815  0.000176  3.976856  0.0  -0.122413  0.000147  3.996061  0.0  -0.078056  -0.119835  0.00019  3.96421  0.0
C  C47  1  0.40965615  0.12678595  0.42471257  1  -0.099035  -0.000206  3.723231  0.0  -0.12099  -0.000176  3.976929  0.0  -0.122588  -0.000148  3.996133  0.0  -0.078073  -0.120013  -0.00019  3.96429  0.0
C  C48  1  0.12678234  0.40965063  0.92471474  1  -0.098907  0.00021  3.723111  0.0  -0.12082  0.000176  3.976824  0.0  -0.122416  0.000148  3.996031  0.0  -0.07805  -0.11984  0.00019  3.964179  0.0
C  C49  1  0.59034318  0.87321514  0.57528789  1  -0.099063  -0.000204  3.72323  0.0  -0.121001  -0.000176  3.976943  0.0  -0.1226  -0.000148  3.996148  0.0  -0.078069  -0.120024  -0.00019  3.964302  0.0
C  C50  1  0.12484690  0.35311851  0.03687385  1  -0.109429  0.000196  3.705672  0.0  -0.132967  0.000232  3.959107  0.0  -0.135699  0.000222  3.978027  0.0  -0.078798  -0.131287  0.000232  3.946917  0.0
C  C51  1  0.64688139  0.87514699  0.46312892  1  -0.109309  -0.000197  3.705724  0.0  -0.13287  -0.000232  3.959146  0.0  -0.135601  -0.000222  3.978062  0.0  -0.078763  -0.131203  -0.000232  3.94694  0.0
C  C52  1  0.87514964  0.64688383  0.96312688  1  -0.109463  0.000204  3.70567  0.0  -0.132998  0.000232  3.959114  0.0  -0.13573  0.000222  3.978035  0.0  -0.078814  -0.13132  0.000232  3.946916  0.0
C  C53  1  0.35311880  0.12485159  0.53687104  1  -0.109346  -0.000198  3.705772  0.0  -0.132902  -0.000232  3.959207  0.0  -0.135634  -0.000222  3.978128  0.0  -0.078766  -0.131237  -0.000232  3.94701  0.0
C  C54  1  0.79758621  0.18394763  0.63211582  1  0.615574  -0.008033  3.883984  -0.013  0.572147  -0.002053  4.187195  -0.006  0.609931  -0.001873  4.182773  -0.005  0.195527  0.54529  -0.002296  4.189239  -0.007
C  C55  1  0.81604774  0.20240570  0.86788295  1  0.615859  0.008033  3.883559  0.013  0.572459  0.002055  4.186738  0.006  0.610244  0.001873  4.182318  0.005  0.195674  0.545601  0.002296  4.188787  0.007
C  C56  1  0.20241227  0.81605598  0.36788357  1  0.615714  -0.008034  3.883882  -0.013  0.572265  -0.002054  4.187112  -0.006  0.610049  -0.001873  4.182689  -0.005  0.195588  0.545411  -0.002296  4.189158  -0.007
C  C57  1  0.18395320  0.79759414  0.13211588  1  0.615886  0.008034  3.883488  0.013  0.572482  0.002055  4.186667  0.006  0.610266  0.001873  4.182246  0.005  0.195689  0.545622  0.002296  4.188718  0.007
C  C58  1  0.67205298  0.31022047  0.69876669  1  -0.067485  0.002703  3.739553  0.003  -0.051173  0.001406  3.967343  0.002  -0.055762  0.000984  3.986636  0.001  -0.013693  -0.048412  0.001829  3.95509  0.002
C  C59  1  0.68976399  0.32793213  0.80123606  1  -0.067898  -0.002703  3.739745  -0.003  -0.051652  -0.001406  3.967649  -0.002  -0.056248  -0.000984  3.986947  -0.001  -0.013879  -0.048882  -0.001829  3.955392  -0.002
C  C60  1  0.32794474  0.68978187  0.30123462  1  -0.067635  0.002708  3.739661  0.003  -0.051324  0.001407  3.967477  0.002  -0.055913  0.000984  3.986769  0.001  -0.013806  -0.048564  0.001829  3.955228  0.002
C  C61  1  0.31023695  0.67206772  0.19876433  1  -0.06787  -0.002708  3.739667  -0.003  -0.051608  -0.001407  3.967544  -0.002  -0.056203  -0.000984  3.98684  -0.001  -0.013854  -0.048838  -0.001829  3.955289  -0.002
C  C62  1  0.53608578  0.42558180  0.65014669  1  -0.080805  0.000891  3.731824  0.001  -0.103922  0.000814  3.978903  0.001  -0.10509  0.000491  3.998425  0.001  -0.086783  -0.103005  0.001091  3.965723  0.001
C  C63  1  0.57440718  0.46389797  0.84985402  1  -0.080556  -0.000891  3.731878  -0.001  -0.103645  -0.000815  3.978919  -0.001  -0.104814  -0.000492  3.998451  -0.001  -0.086722  -0.102731  -0.001091  3.965732  -0.001
C  C64  1  0.46391355  0.57441930  0.34985298  1  -0.080788  0.000888  3.731805  0.001  -0.103918  0.000815  3.978882  0.001  -0.105086  0.000492  3.998404  0.001  -0.08677  -0.103003  0.001091  3.965703  0.001
C  C65  1  0.42559344  0.53609936  0.15014687  1  -0.080535  -0.000888  3.731877  -0.001  -0.103615  -0.000815  3.978916  -0.001  -0.104784  -0.000492  3.998445  -0.001  -0.086697  -0.102702  -0.001091  3.965731  -0.001
C  C66  1  0.42147976  0.55949237  0.69967227  1  -0.060197  -0.000913  3.755648  -0.001  -0.079472  -0.0005  4.019231  -0.001  -0.080959  -0.000288  4.0402  0.0  -0.089607  -0.078323  -0.000669  4.004735  -0.001
C  C67  1  0.44050078  0.57851089  0.80032817  1  -0.060462  0.000915  3.755791  0.001  -0.079785  0.0005  4.019417  0.001  -0.081278  0.000288  4.040389  0.0  -0.089654  -0.078631  0.000669  4.004913  0.001
C  C68  1  0.57851764  0.44050745  0.30032875  1  -0.060189  -0.00091  3.755645  -0.001  -0.079461  -0.0005  4.019224  -0.001  -0.08095  -0.000288  4.040192  0.0  -0.089573  -0.078311  -0.000669  4.004724  -0.001
C  C69  1  0.55949898  0.42148895  0.19967244  1  -0.060476  0.000909  3.755781  0.001  -0.079776  0.0005  4.019408  0.001  -0.081267  0.000288  4.040378  0.0  -0.089655  -0.078622  0.000669  4.004904  0.001
N  N70  1  0.99658579  0.21243692  0.38697285  1  -0.33579  0.046339  3.331971  0.068  -0.297014  0.03098  3.638012  0.046  -0.328341  0.025741  3.657586  0.039  -0.35444  -0.275767  0.034908  3.625558  0.05
N  N71  1  0.78757162  0.00341586  0.11302593  1  -0.335628  -0.046333  3.331805  -0.068  -0.296963  -0.03098  3.637926  -0.046  -0.328291  -0.025741  3.657488  -0.039  -0.354441  -0.275719  -0.034907  3.625473  -0.05
N  N72  1  0.00341440  0.78756166  0.61302712  1  -0.335724  0.046333  3.331872  0.068  -0.296937  0.03098  3.637896  0.046  -0.328265  0.025741  3.657471  0.039  -0.354429  -0.275691  0.034907  3.62544  0.05
N  N73  1  0.21243093  0.99658274  0.88697205  1  -0.335695  -0.046337  3.331739  -0.068  -0.297004  -0.030979  3.637831  -0.046  -0.328334  -0.025741  3.657396  -0.039  -0.354452  -0.275758  -0.034907  3.625378  -0.05
N  N74  1  0.99603146  0.38545594  0.22659739  1  -0.088899  0.000768  3.608669  0.001  0.001477  0.000547  3.816215  0.001  -0.01277  0.00042  3.840335  0.001  -0.225939  0.010836  0.000633  3.80003  0.001
N  N75  1  0.61455044  0.00397012  0.27340286  1  -0.088995  -0.000766  3.608434  -0.001  0.001369  -0.000547  3.815954  -0.001  -0.01288  -0.000421  3.840074  -0.001  -0.225963  0.010725  -0.000633  3.799776  -0.001
N  N76  1  0.00396798  0.61454137  0.77340293  1  -0.088941  0.000767  3.608441  0.001  0.00145  0.000547  3.81599  0.001  -0.012799  0.00042  3.84011  0.001  -0.225958  0.01081  0.000633  3.799805  0.001
N  N77  1  0.38545125  0.99603099  0.72659796  1  -0.088954  -0.000768  3.608414  -0.001  0.001403  -0.000547  3.815946  -0.001  -0.012845  -0.000421  3.840069  -0.001  -0.225923  0.010761  -0.000633  3.799766  -0.001
O  O78  1  0.74665800  0.12629195  0.57058598  1  -0.564607  0.063452  1.998237  0.097  -0.544502  0.040778  2.259862  0.065  -0.587007  0.030118  2.258188  0.05  -0.299733  -0.512527  0.050184  2.259836  0.078
O  O79  1  0.87370085  0.25334069  0.92940972  1  -0.564618  -0.063448  1.99825  -0.097  -0.544502  -0.040778  2.259813  -0.065  -0.587007  -0.030118  2.258135  -0.05  -0.299672  -0.512529  -0.050182  2.259793  -0.078
O  O80  1  0.25334176  0.87370789  0.42941384  1  -0.564611  0.063448  1.998171  0.097  -0.544487  0.040778  2.259803  0.065  -0.586992  0.030118  2.258131  0.05  -0.299711  -0.51251  0.050182  2.259774  0.078
O  O81  1  0.12630052  0.74665791  0.07058926  1  -0.564659  -0.06345  1.998215  -0.097  -0.544531  -0.040778  2.259778  -0.065  -0.587035  -0.030118  2.258098  -0.05  -0.299688  -0.512556  -0.050183  2.259756  -0.078
O  O82  1  0.95568412  0.14381880  0.62972182  1  -0.598159  0.058621  1.991698  0.089  -0.571528  0.038293  2.255377  0.061  -0.612755  0.027636  2.249319  0.046  -0.309033  -0.540098  0.048151  2.258069  0.074
O  O83  1  0.85618771  0.04430361  0.87028097  1  -0.598349  -0.058622  1.991551  -0.089  -0.571717  -0.038296  2.255187  -0.061  -0.612948  -0.027639  2.249121  -0.046  -0.309181  -0.540285  -0.048153  2.25788  -0.074
O  O84  1  0.04431521  0.85618229  0.37027786  1  -0.598209  0.058622  1.99168  0.089  -0.571559  0.038293  2.255349  0.061  -0.612783  0.027636  2.249289  0.046  -0.309057  -0.540129  0.048149  2.258038  0.074
O  O85  1  0.14381441  0.95569625  0.12971687  1  -0.598312  -0.058623  1.991512  -0.089  -0.571699  -0.038296  2.255164  -0.061  -0.612928  -0.027639  2.249097  -0.046  -0.309173  -0.540268  -0.048152  2.257859  -0.074
