# generated using pymatgen
data_CoPH10C9NO5
_symmetry_space_group_name_H-M   'P 1'
_cell_length_a   8.52860475
_cell_length_b   9.85225851
_cell_length_c   12.50518911
_cell_angle_alpha   90.00152126
_cell_angle_beta   89.99718136
_cell_angle_gamma   90.00990113
_symmetry_Int_Tables_number   1
_chemical_formula_structural   CoPH10C9NO5
_chemical_formula_sum   'Co4 P4 H40 C36 N4 O20'
_cell_volume   1050.76123736
_cell_formula_units_Z   4
loop_
 _symmetry_equiv_pos_site_id
 _symmetry_equiv_pos_as_xyz
  1  'x, y, z'
loop_
 _atom_site_type_symbol
 _atom_site_label
 _atom_site_symmetry_multiplicity
 _atom_site_fract_x
 _atom_site_fract_y
 _atom_site_fract_z
 _atom_site_occupancy
 _atom_site_hle17_ddec_charge
 _atom_site_hle17_ddec_spin_density
 _atom_site_hle17_ddec_sum_bond_order
 _atom_site_hle17_magmom
 _atom_site_hse06_10hf_ddec_charge
 _atom_site_hse06_10hf_ddec_spin_density
 _atom_site_hse06_10hf_ddec_sum_bond_order
 _atom_site_hse06_10hf_magmom
 _atom_site_hse06_ddec_charge
 _atom_site_hse06_ddec_spin_density
 _atom_site_hse06_ddec_sum_bond_order
 _atom_site_hse06_magmom
 _atom_site_pbe_cm5_charge
 _atom_site_pbe_ddec_charge
 _atom_site_pbe_ddec_spin_density
 _atom_site_pbe_ddec_sum_bond_order
 _atom_site_pbe_magmom
Co  Co0  1  0.18682272  0.92262174  0.12055088  1  1.146099  -2.860225  1.896014  -2.56  1.108213  -2.835656  2.329658  -2.623  1.187438  -2.890749  2.253057  -2.703  0.662479  1.036326  -2.779887  2.399211  -2.545
Co  Co1  1  0.68727624  0.07731354  0.87946249  1  1.146078  2.820646  1.893427  2.563  1.109429  2.83064  2.32651  2.627  1.188453  2.87497  2.249989  2.705  0.662884  1.037667  2.787081  2.395914  2.552
Co  Co2  1  0.18666485  0.42250956  0.87938342  1  1.145378  2.819687  1.895892  2.561  1.108278  2.829617  2.329157  2.625  1.187398  2.874562  2.25276  2.704  0.662449  1.036108  2.784469  2.398932  2.549
Co  Co3  1  0.68705653  0.57710699  0.12070353  1  1.145742  2.820223  1.894579  2.563  1.109245  2.830674  2.327602  2.627  1.188268  2.874826  2.2511  2.705  0.662687  1.037279  2.786769  2.397084  2.552
P  P4  1  0.33419851  0.14683824  0.97601552  1  1.496983  0.004037  4.848244  0.005  1.355054  0.005176  5.35286  0.006  1.409592  0.00397  5.315089  0.005  0.353782  1.314387  0.006093  5.376994  0.007
P  P5  1  0.83405994  0.85306732  0.02407205  1  1.496987  0.001659  4.846728  -0.002  1.355018  0.003334  5.351558  0.0  1.409421  0.002529  5.313921  0.0  0.353977  1.314487  0.004139  5.375561  0.0
P  P6  1  0.33408657  0.64679288  0.02398558  1  1.49642  0.003425  4.848078  0.004  1.355093  0.005087  5.352515  0.006  1.409668  0.003955  5.314692  0.005  0.353781  1.314261  0.005961  5.376719  0.007
P  P7  1  0.83409451  0.35321823  0.97590767  1  1.49516  0.009124  4.847348  0.007  1.354152  0.013565  5.351973  0.012  1.408492  0.010444  5.314323  0.01  0.353592  1.31324  0.016084  5.376245  0.013
H  H8  1  0.28649472  0.88099216  0.91222891  1  0.299497  5.7e-05  0.897287  0.0  0.281044  -6.1e-05  0.9579  0.0  0.289122  -2e-05  0.952272  0.0  0.312842  0.275194  -0.000108  0.962039  0.0
H  H9  1  0.78669777  0.11894586  0.08777870  1  0.299046  -8.7e-05  0.896271  0.0  0.280758  4.1e-05  0.956902  0.0  0.288806  -1.2e-05  0.951253  0.0  0.312934  0.274947  0.000105  0.961024  0.0
H  H10  1  0.28653890  0.38106756  0.08778911  1  0.299458  -0.000134  0.897236  0.0  0.281004  -2.4e-05  0.95768  0.0  0.289077  -5.9e-05  0.952052  0.0  0.312991  0.275142  1.8e-05  0.961837  0.0
H  H11  1  0.78650116  0.61886233  0.91226408  1  0.299348  -0.000165  0.896466  0.0  0.280948  -4.4e-05  0.956934  0.0  0.289004  -9.5e-05  0.951298  0.0  0.313086  0.275135  1.6e-05  0.961047  0.0
H  H12  1  0.35980384  0.93846881  0.79548473  1  0.310633  -9.3e-05  0.881582  0.0  0.296433  -0.000108  0.937833  0.0  0.303823  -0.000114  0.932584  0.0  0.317503  0.291168  -9e-05  0.941527  0.0
H  H13  1  0.85984052  0.06153804  0.20451000  1  0.31071  9e-05  0.881312  0.0  0.296604  8.7e-05  0.937525  0.0  0.303998  9.5e-05  0.932274  0.0  0.317617  0.29133  7e-05  0.941221  0.0
H  H14  1  0.35972007  0.43857857  0.20453361  1  0.311087  -8.1e-05  0.880527  0.0  0.296461  -7.5e-05  0.937231  0.0  0.303848  -8.6e-05  0.931975  0.0  0.317587  0.291178  -5.7e-05  0.940946  0.0
H  H15  1  0.85970268  0.56146480  0.79554030  1  0.31117  -9.1e-05  0.881096  0.0  0.29663  -0.000104  0.93762  0.0  0.304012  -0.000111  0.932373  0.0  0.317744  0.291355  -7.9e-05  0.941321  0.0
H  H16  1  0.08894926  0.07750747  0.89402177  1  0.148231  0.000184  0.935761  0.0  0.156912  0.000392  0.999838  0.0  0.159529  0.0003  0.999028  0.0  0.125095  0.154661  0.000472  1.000942  0.0
H  H17  1  0.58886672  0.92253896  0.10609728  1  0.148043  -6e-06  0.934987  0.0  0.156896  -4e-05  0.999123  0.0  0.15952  -3.5e-05  0.998292  0.0  0.125227  0.154644  -1.2e-05  1.000221  0.0
H  H18  1  0.08876813  0.57742629  0.10595177  1  0.148088  -0.000127  0.935084  0.0  0.156793  -0.000136  0.999582  0.0  0.159412  -0.000182  0.998777  0.0  0.125102  0.154541  -8.9e-05  1.00068  0.0
H  H19  1  0.58865388  0.42252165  0.89397136  1  0.147866  2.4e-05  0.934996  0.0  0.156535  0.000173  0.999571  0.0  0.159141  6.4e-05  0.998791  0.0  0.125102  0.154298  0.000252  1.000627  0.0
H  H20  1  0.22461414  0.13889379  0.79573612  1  0.13829  2e-06  0.946918  0.0  0.148512  0.000155  1.008854  0.0  0.151466  9.4e-05  1.0077  0.0  0.120293  0.146596  0.000221  1.009401  0.0
H  H21  1  0.72451704  0.86120850  0.20439193  1  0.138065  -7.9e-05  0.947029  0.0  0.148469  6.1e-05  1.008964  0.0  0.151434  1.5e-05  1.00778  0.0  0.120262  0.146531  0.000107  1.009559  0.0
H  H22  1  0.22438261  0.63895090  0.20422853  1  0.138014  -2.1e-05  0.946856  0.0  0.148264  -0.000151  1.009203  0.0  0.151216  -0.000103  1.00805  0.0  0.120171  0.146345  -0.000181  1.009757  0.0
H  H23  1  0.72424908  0.36115236  0.79562605  1  0.137932  -8.6e-05  0.947196  0.0  0.148252  7.2e-05  1.00942  0.0  0.151228  1.1e-05  1.008229  0.0  0.120169  0.146329  0.000144  1.009976  0.0
H  H24  1  0.02091254  0.87762939  0.82250421  1  0.098104  -3.1e-05  0.934671  0.0  0.110432  -6e-06  0.996974  0.0  0.112433  -2.8e-05  0.995373  0.0  0.11466  0.10878  5.1e-05  0.998475  0.0
H  H25  1  0.52096679  0.12234190  0.17750038  1  0.098035  3e-06  0.935137  0.0  0.110472  -2.9e-05  0.997129  0.0  0.112488  -1e-06  0.995514  0.0  0.114579  0.108801  -8.7e-05  0.998641  0.0
H  H26  1  0.02089869  0.37754742  0.17748193  1  0.098124  -0.000151  0.934892  0.0  0.110451  -0.0001  0.997124  0.0  0.112444  -0.000132  0.995521  0.0  0.114679  0.108794  -6.7e-05  0.998646  0.0
H  H27  1  0.52085987  0.62244923  0.82251387  1  0.098346  -0.000151  0.935229  0.0  0.11082  -0.00013  0.997316  0.0  0.11284  -0.000151  0.995685  0.0  0.114716  0.109172  -9.8e-05  0.998839  0.0
H  H28  1  0.15935998  0.74509418  0.80254237  1  0.110746  -0.000136  0.947762  0.0  0.121817  -0.000182  1.009575  0.0  0.12435  -0.000202  1.00778  0.0  0.116145  0.119822  -0.000133  1.011112  0.0
H  H29  1  0.65940521  0.25492322  0.19742316  1  0.110843  -0.000175  0.948872  0.0  0.121939  -0.000232  1.010486  0.0  0.124468  -0.000248  1.008694  0.0  0.116032  0.119923  -0.000188  1.01204  0.0
H  H30  1  0.15942678  0.24507583  0.19743152  1  0.110679  0.000233  0.94799  0.0  0.121789  0.000259  1.009709  0.0  0.124326  0.00025  1.007909  0.0  0.116053  0.11979  0.000263  1.011286  0.0
H  H31  1  0.65943572  0.75492535  0.80259479  1  0.110807  -0.000238  0.948518  0.0  0.121908  -0.000298  1.010291  0.0  0.124444  -0.000282  1.008475  0.0  0.115987  0.119927  -0.000306  1.011871  0.0
H  H32  1  0.96882009  0.04561660  0.67255609  1  0.103145  -0.000138  0.959563  0.0  0.112544  -0.00012  1.022184  0.0  0.115646  -0.000132  1.021246  0.0  0.101253  0.110263  -0.000103  1.022817  0.0
H  H33  1  0.46881186  0.95440455  0.32740457  1  0.103182  0.000116  0.959735  0.0  0.112649  7.9e-05  1.022254  0.0  0.115745  9.6e-05  1.021319  0.0  0.101264  0.110336  5.8e-05  1.022914  0.0
H  H34  1  0.96882831  0.54560682  0.32740862  1  0.103148  -6.9e-05  0.959771  0.0  0.11261  -4.3e-05  1.022312  0.0  0.11571  -7.6e-05  1.021377  0.0  0.101295  0.110276  -1e-06  1.023003  0.0
H  H35  1  0.46877549  0.45441027  0.67261282  1  0.103168  -8.7e-05  0.959998  0.0  0.112605  -9e-05  1.022509  0.0  0.115703  -0.000115  1.021574  0.0  0.10129  0.11026  -5.4e-05  1.023211  0.0
H  H36  1  0.96203188  0.07604032  0.47507850  1  0.090754  -3.2e-05  0.994329  0.0  0.098281  -3.3e-05  1.061555  0.0  0.100638  -9e-06  1.061667  0.0  0.098239  0.096411  -6.1e-05  1.062077  0.0
H  H37  1  0.46199408  0.92394835  0.52488798  1  0.091088  2.6e-05  0.994202  0.0  0.098615  3.6e-05  1.061368  0.0  0.100962  1.3e-05  1.061509  0.0  0.098385  0.096747  6.2e-05  1.061891  0.0
H  H38  1  0.96201426  0.57605341  0.52489107  1  0.091019  2.5e-05  0.994029  0.0  0.098544  2.2e-05  1.061236  0.0  0.10089  7e-06  1.061383  0.0  0.098333  0.096667  4.2e-05  1.061773  0.0
H  H39  1  0.46198123  0.42394946  0.47512420  1  0.091197  3e-06  0.993915  0.0  0.098598  2e-05  1.061226  0.0  0.100941  5e-06  1.061379  0.0  0.098399  0.096733  3.5e-05  1.061744  0.0
H  H40  1  0.27315413  0.73719683  0.43521125  1  0.100871  -0.000132  0.943165  0.0  0.111036  -8.9e-05  1.002303  0.0  0.113892  -3.4e-05  1.00135  0.0  0.104735  0.108552  -0.000151  1.003926  0.0
H  H41  1  0.77319810  0.26280211  0.56478402  1  0.101119  0.000117  0.943264  0.0  0.111259  7e-05  1.002408  0.0  0.114118  1.9e-05  1.00146  0.0  0.10482  0.108779  0.000125  1.004032  0.0
H  H42  1  0.27309499  0.23718370  0.56475382  1  0.100944  0.00012  0.943576  0.0  0.111178  7.4e-05  1.002575  0.0  0.114032  2.2e-05  1.001619  0.0  0.10476  0.108695  0.000132  1.004201  0.0
H  H43  1  0.77316461  0.76282944  0.43524784  1  0.101  0.000121  0.943265  0.0  0.11117  8.6e-05  1.002374  0.0  0.11403  3.3e-05  1.001427  0.0  0.104739  0.108693  0.000144  1.004  0.0
H  H44  1  0.28319957  0.70619886  0.63204984  1  0.094507  -2.3e-05  0.954451  0.0  0.10538  -4.1e-05  1.015506  0.0  0.107397  -3.6e-05  1.016431  0.0  0.101538  0.103902  -5e-05  1.015033  0.0
H  H45  1  0.78329781  0.29382290  0.36794669  1  0.094438  -2.9e-05  0.95427  0.0  0.105367  -4.5e-05  1.015291  0.0  0.1073  -3.9e-05  1.01631  0.0  0.101521  0.1039  -5.4e-05  1.014806  0.0
H  H46  1  0.28316389  0.20616491  0.36791584  1  0.094539  2.6e-05  0.954206  0.0  0.105402  3.9e-05  1.015281  0.0  0.107412  3.5e-05  1.016215  0.0  0.101561  0.10393  4.6e-05  1.014797  0.0
H  H47  1  0.78325610  0.79383350  0.63208548  1  0.094505  -3.2e-05  0.954015  0.0  0.105374  -4.4e-05  1.015094  0.0  0.10738  -4e-05  1.016029  0.0  0.101529  0.103906  -4.7e-05  1.01461  0.0
C  C48  1  0.21184123  0.07639670  0.86787454  1  -0.327398  0.000599  3.518264  0.001  -0.370365  0.001121  3.771846  0.001  -0.376204  0.000839  3.778026  0.001  -0.073823  -0.365421  0.001472  3.767125  0.001
C  C49  1  0.71177228  0.92360624  0.13221157  1  -0.326259  -0.000901  3.51689  -0.002  -0.370035  5.8e-05  3.77146  -0.001  -0.375817  3.5e-05  3.777573  -0.001  -0.073553  -0.365121  4.6e-05  3.766841  -0.001
C  C50  1  0.21165824  0.57641079  0.13211322  1  -0.325477  0.000143  3.515981  0.001  -0.369705  -0.000211  3.77111  0.001  -0.375488  -0.000292  3.777184  0.0  -0.073392  -0.364731  -2.3e-05  3.766407  0.001
C  C51  1  0.71154138  0.42356267  0.86781215  1  -0.325356  -0.000152  3.51622  0.0  -0.369533  0.00098  3.771275  0.001  -0.375312  0.000598  3.777357  0.0  -0.073417  -0.364505  0.001386  3.766516  0.001
C  C52  1  0.13288976  0.85158220  0.78448183  1  -0.025455  5.2e-05  3.522499  0.0  -0.084272  2.6e-05  3.765123  0.0  -0.080586  -1.9e-05  3.772808  0.0  -0.059833  -0.086762  0.00016  3.760546  0.0
C  C53  1  0.63295704  0.14843733  0.21549899  1  -0.025933  -0.000128  3.523565  0.0  -0.084284  -0.000144  3.765261  0.0  -0.080624  -0.000145  3.772999  0.0  -0.059693  -0.08676  -0.000102  3.760696  0.0
C  C54  1  0.13289430  0.35155429  0.21549278  1  -0.025638  -6e-06  3.523365  0.0  -0.084427  9e-05  3.765459  0.0  -0.080739  6.6e-05  3.773138  0.0  -0.059721  -0.086974  9.3e-05  3.76096  0.0
C  C55  1  0.63288449  0.64845204  0.78452082  1  -0.02588  -0.000236  3.523549  0.0  -0.084879  -0.00018  3.765798  0.0  -0.081159  -0.000176  3.773401  0.0  -0.059798  -0.087484  -0.000205  3.761393  0.0
C  C56  1  0.12870336  0.87476240  0.66589857  1  0.078571  0.000526  3.734028  0.001  0.094393  -0.000168  3.979938  0.0  0.09587  -0.000225  4.002836  0.0  -0.009069  0.092979  0.000169  3.964267  0.0
C  C57  1  0.62875402  0.12525448  0.33408239  1  0.079104  -0.000352  3.733807  0.0  0.09474  0.00021  3.979711  0.0  0.096189  0.000249  4.002621  0.0  -0.00898  0.093357  -7.6e-05  3.964003  0.0
C  C58  1  0.12867011  0.37473543  0.33407427  1  0.078583  -0.000503  3.734262  -0.001  0.094342  0.000183  3.980166  0.0  0.09581  0.000235  4.003073  0.0  -0.009058  0.092956  -0.000161  3.964461  0.0
C  C59  1  0.62869582  0.62526418  0.66593868  1  0.078708  -0.00037  3.734143  0.0  0.094529  0.000212  3.980058  0.0  0.095951  0.000251  4.003011  0.0  -0.008964  0.09317  -0.000112  3.964361  0.0
C  C60  1  0.03756324  0.97865586  0.62111899  1  -0.12553  -0.000539  3.725137  -0.001  -0.144432  -0.00012  3.975854  0.0  -0.14929  -4.3e-05  3.997586  0.0  -0.091377  -0.140155  -0.000202  3.960714  0.0
C  C61  1  0.53756420  0.02135953  0.37885466  1  -0.125799  0.000384  3.725471  0.001  -0.14472  6.5e-05  3.976186  0.0  -0.149579  -9e-06  3.997958  0.0  -0.091498  -0.140411  0.000171  3.961029  0.0
C  C62  1  0.03754789  0.47864360  0.37885272  1  -0.125791  0.00049  3.725634  0.001  -0.144729  5.3e-05  3.976341  0.0  -0.149588  -4.2e-05  3.998073  0.0  -0.091538  -0.140402  0.000162  3.96119  0.0
C  C63  1  0.53752444  0.52136266  0.62116172  1  -0.125723  0.000325  3.725907  0.001  -0.144611  -9e-06  3.976528  0.0  -0.149468  -9.6e-05  3.998306  0.0  -0.091512  -0.14029  0.000112  3.961401  0.0
C  C64  1  0.03198415  0.99565984  0.51063313  1  -0.054727  0.000287  3.743405  0.0  -0.078038  -0.000396  3.988792  -0.001  -0.077142  -0.000339  4.01069  0.0  -0.081828  -0.079207  -0.000285  3.975191  0.0
C  C65  1  0.53195974  0.00433644  0.48933751  1  -0.055019  -0.000129  3.743751  0.0  -0.078381  0.000444  3.989146  0.001  -0.07752  0.00037  4.011068  0.001  -0.081907  -0.079538  0.000366  3.975518  0.001
C  C66  1  0.03195621  0.49566245  0.48933832  1  -0.054852  -0.000309  3.743606  0.0  -0.078211  0.000413  3.988997  0.001  -0.077322  0.000351  4.010891  0.001  -0.081853  -0.079369  0.00031  3.975378  0.0
C  C67  1  0.53193493  0.50434601  0.51067550  1  -0.055258  -0.000123  3.743749  0.0  -0.07854  0.000455  3.989174  0.001  -0.07768  0.000382  4.011098  0.001  -0.08208  -0.079713  0.000375  3.975565  0.001
C  C68  1  0.11700361  0.90942800  0.44313641  1  -0.077969  -0.001914  3.769074  -0.003  -0.052682  -0.000451  3.993471  -0.001  -0.062316  -0.000122  4.016661  0.0  -0.019274  -0.047128  -0.000729  3.979429  -0.001
C  C69  1  0.61699507  0.09056174  0.55683775  1  -0.077804  0.001757  3.769581  0.003  -0.052469  0.000437  3.993845  0.001  -0.062078  0.000112  4.017032  0.0  -0.0192  -0.046922  0.000745  3.979787  0.001
C  C70  1  0.11695794  0.40942475  0.55682396  1  -0.077999  0.001864  3.769665  0.003  -0.052616  0.000446  3.99395  0.001  -0.062258  0.000113  4.017145  0.0  -0.019361  -0.047081  0.000729  3.979928  0.001
C  C71  1  0.61697274  0.59058122  0.44318938  1  -0.077604  0.001745  3.76967  0.002  -0.052173  0.00042  3.993774  0.001  -0.061781  9.1e-05  4.016965  0.0  -0.019207  -0.046623  0.000735  3.979715  0.001
C  C72  1  0.20747532  0.80473770  0.48760492  1  -0.057947  0.000245  3.73235  0.0  -0.078649  -0.000435  3.977987  -0.001  -0.077071  -0.000373  3.997262  -0.001  -0.079434  -0.080321  -0.000389  3.966091  0.0
C  C73  1  0.70750255  0.19526458  0.51238857  1  -0.058202  -0.000146  3.732561  0.0  -0.078943  0.000471  3.978205  0.001  -0.077368  0.000396  3.997463  0.001  -0.079562  -0.080581  0.000429  3.966279  0.001
C  C74  1  0.20742462  0.30471875  0.51236219  1  -0.058157  -0.000234  3.732816  0.0  -0.078921  0.000467  3.97833  0.001  -0.077329  0.000396  3.997598  0.001  -0.079482  -0.080594  0.000418  3.966453  0.001
C  C75  1  0.70747235  0.69528657  0.48764409  1  -0.058122  -0.000141  3.732528  0.0  -0.078899  0.000497  3.978158  0.001  -0.077322  0.000423  3.997436  0.001  -0.07941  -0.080544  0.000442  3.966222  0.001
C  C76  1  0.21302865  0.78799762  0.59798443  1  -0.100846  -0.000234  3.714337  0.0  -0.123057  6.2e-05  3.968913  0.0  -0.126568  7.3e-05  3.989066  0.0  -0.08419  -0.119847  4.9e-05  3.95515  0.0
C  C77  1  0.71308587  0.21202377  0.40200408  1  -0.100937  7.5e-05  3.713781  0.0  -0.123211  -0.000127  3.968505  0.0  -0.126664  -0.000139  3.988699  0.0  -0.084138  -0.119999  -0.000103  3.954704  0.0
C  C78  1  0.21299170  0.28796786  0.40198294  1  -0.100582  0.000215  3.71386  0.0  -0.122799  -6.3e-05  3.968435  0.0  -0.12631  -9.3e-05  3.988598  0.0  -0.084032  -0.119576  -3.2e-05  3.954643  0.0
C  C79  1  0.71304777  0.71202917  0.59802395  1  -0.100835  9.3e-05  3.7138  0.0  -0.123072  -0.000128  3.968444  0.0  -0.12658  -0.000159  3.988631  0.0  -0.084139  -0.119851  -8.1e-05  3.95463  0.0
C  C80  1  0.11311385  0.93285589  0.32558792  1  0.638899  0.003092  3.908861  0.006  0.596356  -0.001187  4.203511  0.0  0.633563  -0.000794  4.195367  0.0  0.206472  0.569579  -0.001111  4.207589  0.001
C  C81  1  0.61309926  0.06706424  0.67438238  1  0.638919  -0.003041  3.908805  -0.006  0.596441  0.001241  4.203486  0.0  0.633614  0.000802  4.195399  0.0  0.206747  0.569725  0.001225  4.207502  -0.001
C  C82  1  0.11306797  0.43286066  0.67437308  1  0.638883  -0.003138  3.909069  -0.006  0.596242  0.001189  4.203895  0.0  0.633468  0.000783  4.195767  0.0  0.206649  0.569491  0.001135  4.207873  -0.001
C  C83  1  0.61315100  0.56711530  0.32564519  1  0.638392  -0.003067  3.909195  -0.006  0.595831  0.001232  4.203923  0.0  0.633007  0.000796  4.19586  0.0  0.206345  0.569104  0.001194  4.207898  -0.001
N  N84  1  0.25749774  0.93354223  0.84158168  1  -0.23739  4.7e-05  3.306732  0.0  -0.171577  1.6e-05  3.514731  0.0  -0.184695  -1e-05  3.524192  0.0  -0.465288  -0.162697  2.9e-05  3.508489  0.0
N  N85  1  0.75755395  0.06648582  0.15840532  1  -0.237091  -9.9e-05  3.306404  0.0  -0.171611  0.000111  3.514736  0.0  -0.184706  7e-05  3.52423  0.0  -0.465496  -0.16275  0.00012  3.508432  0.0
N  N86  1  0.25744775  0.43359361  0.15842643  1  -0.238397  -0.000263  3.306118  0.0  -0.171372  -0.000172  3.513406  0.0  -0.184503  -0.000195  3.522932  0.0  -0.465797  -0.162495  -0.000161  3.507178  0.0
N  N87  1  0.75738233  0.56642225  0.84160776  1  -0.237955  -0.000286  3.306703  0.0  -0.171109  -4.1e-05  3.514231  0.0  -0.184221  -0.000118  3.523733  0.0  -0.465866  -0.162246  8e-06  3.507977  0.0
O  O88  1  0.26634511  0.10361591  0.08492533  1  -0.846653  -0.035729  2.020999  -0.054  -0.79233  -0.02843  2.322063  -0.036  -0.829655  -0.023415  2.295638  -0.029  -0.378755  -0.760976  -0.032758  2.34038  -0.043
O  O89  1  0.76570814  0.89594145  0.91522531  1  -0.847006  0.037502  2.020105  0.059  -0.792835  0.030268  2.321069  0.04  -0.829906  0.024493  2.294604  0.031  -0.378828  -0.761674  0.035594  2.33943  0.048
O  O90  1  0.26640508  0.60351625  0.91504277  1  -0.846043  0.046113  2.020657  0.074  -0.792314  0.035394  2.321486  0.049  -0.829524  0.02784  2.295058  0.037  -0.378755  -0.760788  0.042436  2.339899  0.06
O  O91  1  0.76562940  0.39583810  0.08479520  1  -0.84653  0.048375  2.020668  0.078  -0.792962  0.037161  2.321543  0.053  -0.829949  0.028974  2.295085  0.04  -0.37867  -0.761466  0.045094  2.339925  0.065
O  O92  1  0.49837365  0.08854589  0.96142698  1  -0.864736  0.044805  2.112239  0.069  -0.806421  0.037735  2.428854  0.05  -0.845054  0.030125  2.40252  0.038  -0.382798  -0.773871  0.045006  2.446848  0.061
O  O93  1  0.99805929  0.91195671  0.03837995  1  -0.865138  -0.040148  2.112464  -0.058  -0.805855  -0.034258  2.428378  -0.043  -0.844672  -0.027973  2.402282  -0.033  -0.382646  -0.773185  -0.039797  2.446066  -0.051
O  O94  1  0.49822431  0.58848174  0.03874726  1  -0.864508  0.04059  2.112703  0.062  -0.80624  0.034621  2.428941  0.045  -0.845001  0.02784  2.40281  0.035  -0.382765  -0.773541  0.040932  2.446749  0.055
O  O95  1  0.99775493  0.41281659  0.96149071  1  -0.86399  0.046212  2.11297  0.072  -0.806126  0.038304  2.42963  0.052  -0.844781  0.030282  2.403487  0.039  -0.382693  -0.773157  0.046237  2.447343  0.064
O  O96  1  0.32789101  0.30277035  0.96505541  1  -0.852761  0.031076  2.058316  0.05  -0.785966  0.027676  2.340364  0.038  -0.822052  0.022943  2.315358  0.03  -0.369821  -0.756193  0.031987  2.358393  0.044
O  O97  1  0.82865391  0.69718102  0.03532503  1  -0.852835  0.038657  2.056308  0.063  -0.786419  0.032378  2.338299  0.045  -0.822287  0.026317  2.31321  0.036  -0.370392  -0.756932  0.03859  2.356416  0.055
O  O98  1  0.32788967  0.80273248  0.03491158  1  -0.852783  -0.031426  2.058678  -0.048  -0.785912  -0.027668  2.340644  -0.036  -0.822059  -0.023369  2.315595  -0.03  -0.369845  -0.756132  -0.031083  2.358644  -0.041
O  O99  1  0.82927672  0.19728592  0.96460041  1  -0.852338  0.039081  2.054903  0.064  -0.786238  0.032731  2.336817  0.046  -0.822075  0.026372  2.311745  0.036  -0.370143  -0.756662  0.03965  2.354993  0.057
O  O100  1  0.21020567  0.86239206  0.26766078  1  -0.658745  -0.052375  2.069135  -0.083  -0.623642  -0.036426  2.349941  -0.051  -0.662559  -0.028017  2.334074  -0.038  -0.329453  -0.591363  -0.044644  2.359553  -0.064
O  O101  1  0.71029126  0.13746042  0.73230063  1  -0.659059  0.051638  2.069082  0.084  -0.623998  0.036399  2.349846  0.052  -0.663024  0.027844  2.334145  0.038  -0.329668  -0.59184  0.044855  2.359485  0.065
O  O102  1  0.21008529  0.36230538  0.73227786  1  -0.658478  0.051604  2.068976  0.083  -0.623485  0.036363  2.350053  0.051  -0.662452  0.027827  2.334219  0.038  -0.329465  -0.59115  0.044711  2.359559  0.064
O  O103  1  0.71027094  0.63763133  0.26776512  1  -0.658362  0.051633  2.068764  0.083  -0.62329  0.036443  2.349396  0.051  -0.662346  0.027882  2.333794  0.038  -0.32942  -0.591128  0.044885  2.359014  0.065
O  O104  1  0.02285135  0.02000597  0.28458568  1  -0.62535  -0.009915  1.965933  -0.017  -0.585641  -0.01121  2.200688  -0.018  -0.612101  -0.008473  2.191877  -0.014  -0.310383  -0.565339  -0.01421  2.206118  -0.023
O  O105  1  0.52276481  0.97992195  0.71533328  1  -0.624918  0.009687  1.965587  0.017  -0.585237  0.011132  2.20024  0.018  -0.611747  0.008369  2.191561  0.014  -0.310394  -0.564954  0.014238  2.205628  0.023
O  O106  1  0.02287638  0.52006606  0.71538729  1  -0.625367  0.009786  1.965744  0.017  -0.585486  0.011179  2.200438  0.018  -0.611976  0.008404  2.191637  0.014  -0.310339  -0.565123  0.014395  2.205795  0.023
O  O107  1  0.52297663  0.47989029  0.28461324  1  -0.625161  0.009882  1.965766  0.017  -0.585391  0.011268  2.200517  0.018  -0.611918  0.008467  2.191773  0.014  -0.310078  -0.564997  0.014521  2.205817  0.023
