# generated using pymatgen
data_ZnH20(C13N5)2
_symmetry_space_group_name_H-M   'P 1'
_cell_length_a   10.25107322
_cell_length_b   16.00346441
_cell_length_c   16.00611621
_cell_angle_alpha   115.58831547
_cell_angle_beta   102.35080094
_cell_angle_gamma   102.30880736
_symmetry_Int_Tables_number   1
_chemical_formula_structural   ZnH20(C13N5)2
_chemical_formula_sum   'Zn3 H60 C78 N30'
_cell_volume   2169.90077276
_cell_formula_units_Z   3
loop_
 _symmetry_equiv_pos_site_id
 _symmetry_equiv_pos_as_xyz
  1  'x, y, z'
loop_
 _atom_site_type_symbol
 _atom_site_label
 _atom_site_symmetry_multiplicity
 _atom_site_fract_x
 _atom_site_fract_y
 _atom_site_fract_z
 _atom_site_occupancy
 _atom_site_pbe_bader_charge
 _atom_site_pbe_bader_spin_density
 _atom_site_pbe_cm5_charge
 _atom_site_pbe_ddec_charge
 _atom_site_pbe_ddec_spin_density
 _atom_site_pbe_ddec_sum_bond_order
 _atom_site_pbe_magmom
Zn  Zn0  1  0.00000010  0.49999990  0.99999985  1  1.233416  0  0.695204  0.540978  0  2.580539  0
Zn  Zn1  1  0.50000026  0.50000035  0.49999991  1  1.234426  0  0.696202  0.540476  0  2.582321  0
Zn  Zn2  1  0.00000055  0.00000055  0.50000094  1  1.237589  0  0.695582  0.539378  0  2.580949  0
H  H3  1  0.86191623  0.26532530  0.85256082  1  0.138332  0  0.111019  0.079321  0  1.037923  0
H  H4  1  0.59663773  0.58714783  0.73449850  1  0.105787  0  0.111269  0.079786  0  1.037613  0
H  H5  1  0.00942960  0.14759060  0.41316176  1  0.13563  0  0.112756  0.082349  0  1.036243  0
H  H6  1  0.13808429  0.73467541  0.14744087  1  0.138337  0  0.111037  0.079365  0  1.037864  0
H  H7  1  0.40336379  0.41285288  0.26550207  1  0.105785  0  0.11126  0.079758  0  1.037629  0
H  H8  1  0.99056956  0.85240937  0.58683880  1  0.13565  0  0.112736  0.082328  0  1.036214  0
H  H9  1  0.95129057  0.12152767  0.79415934  1  0.068941  0  0.101015  0.105025  0  1.03615  0
H  H10  1  0.82979683  0.67248770  0.87828823  1  0.079057  0  0.10161  0.106311  0  1.034317  0
H  H11  1  0.15691143  0.20582646  0.32762436  1  0.078294  0  0.100618  0.104781  0  1.036116  0
H  H12  1  0.04870995  0.87847304  0.20584172  1  0.068932  0  0.101032  0.105047  0  1.036095  0
H  H13  1  0.17020432  0.32751227  0.12171197  1  0.079049  0  0.101626  0.106348  0  1.034266  0
H  H14  1  0.84308672  0.79417351  0.67237482  1  0.078308  0  0.100637  0.104767  0  1.036119  0
H  H15  1  0.21042989  0.15426892  0.86881352  1  0.053018  0  0.105086  0.104387  0  0.990888  0
H  H16  1  0.05616503  0.71459827  0.84563538  1  0.084337  0  0.104982  0.104509  0  0.990817  0
H  H17  1  0.34116944  0.13101239  0.28550996  1  0.054159  0  0.105756  0.10541  0  0.990644  0
H  H18  1  0.78957026  0.84573105  0.13118655  1  0.053017  0  0.105086  0.1044  0  0.990884  0
H  H19  1  0.94383549  0.28540244  0.15436443  1  0.084475  0  0.104995  0.104529  0  0.990764  0
H  H20  1  0.65882423  0.86898462  0.71448546  1  0.054162  0  0.105782  0.105404  0  0.990609  0
H  H21  1  0.49049734  0.82330848  0.22562668  1  0.086275  0  0.106475  0.111672  0  1.03359  0
H  H22  1  0.66691269  0.40215991  0.17656022  1  0.079868  0  0.106019  0.110634  0  1.034356  0
H  H23  1  0.26525603  0.77456251  0.59761531  1  0.087394  0  0.106206  0.110649  0  1.033285  0
H  H24  1  0.50950617  0.17669223  0.77437291  1  0.086236  0  0.106463  0.111646  0  1.033584  0
H  H25  1  0.33308546  0.59784006  0.82344020  1  0.079901  0  0.106054  0.110678  0  1.034346  0
H  H26  1  0.73474612  0.22543746  0.40238504  1  0.087385  0  0.106202  0.110629  0  1.03329  0
H  H27  1  0.71909390  0.96121515  0.34565736  1  0.096399  0  0.112797  0.083277  0  1.019209  0
H  H28  1  0.75748242  0.38434085  0.03865750  1  0.11519  0  0.113218  0.083266  0  1.019172  0
H  H29  1  0.37347460  0.65440017  0.61546878  1  0.096912  0  0.112931  0.082919  0  1.01859  0
H  H30  1  0.28090825  0.03878482  0.65434299  1  0.096384  0  0.112793  0.083248  0  1.019219  0
H  H31  1  0.24251436  0.61565838  0.96134117  1  0.115225  0  0.113233  0.083293  0  1.019171  0
H  H32  1  0.62652791  0.34560054  0.38453130  1  0.096895  0  0.112942  0.08295  0  1.018566  0
H  H33  1  0.91169645  0.76644539  0.37070782  1  0.113132  0  0.113505  0.085576  0  1.015641  0
H  H34  1  0.14485536  0.60416512  0.23349645  1  0.107211  0  0.112866  0.084346  0  1.01671  0
H  H35  1  0.54122772  0.62921202  0.39579549  1  0.102608  0  0.112683  0.084691  0  1.017037  0
H  H36  1  0.08830296  0.23355311  0.62929214  1  0.113152  0  0.11354  0.085607  0  1.01562  0
H  H37  1  0.85514168  0.39583264  0.76650036  1  0.107187  0  0.112861  0.084306  0  1.016709  0
H  H38  1  0.45877379  0.37078869  0.60420383  1  0.10262  0  0.112691  0.084717  0  1.017026  0
H  H39  1  0.69111893  0.62019641  0.25010702  1  0.091188  0  0.10535  0.115868  0  1.033768  0
H  H40  1  0.07073804  0.62968580  0.37974660  1  0.115791  0  0.106026  0.116736  0  1.03384  0
H  H41  1  0.44158881  0.74994305  0.37017655  1  0.110327  0  0.105792  0.116052  0  1.034319  0
H  H42  1  0.30888085  0.37980282  0.74989330  1  0.091207  0  0.105357  0.115894  0  1.033733  0
H  H43  1  0.92926237  0.37031269  0.62025162  1  0.115759  0  0.106017  0.116703  0  1.03387  0
H  H44  1  0.55841071  0.25005766  0.62982313  1  0.110378  0  0.105768  0.116025  0  1.034314  0
H  H45  1  0.43907951  0.26031134  0.97760267  1  0.025138  0  0.087244  0.121487  0  1.001971  0
H  H46  1  0.17863642  0.71745810  0.73960980  1  0.022493  0  0.087106  0.120341  0  1.002125  0
H  H47  1  0.46107773  0.02231736  0.28280350  1  0.009821  0  0.08707  0.120077  0  1.0009  0
H  H48  1  0.56091964  0.73968863  0.02239726  1  0.025582  0  0.087243  0.121481  0  1.001972  0
H  H49  1  0.82136410  0.28254261  0.26039002  1  0.022492  0  0.087106  0.120328  0  1.002129  0
H  H50  1  0.53892005  0.97768187  0.71719593  1  0.009815  0  0.087072  0.120081  0  1.000888  0
H  H51  1  0.44670862  0.36052576  0.09029804  1  0.036065  0  0.094587  0.133454  0  1.016762  0
H  H52  1  0.08591378  0.72988795  0.63940064  1  0.037004  0  0.093997  0.132708  0  1.01695  0
H  H53  1  0.35610199  0.90961961  0.27030581  1  0.043902  0  0.094199  0.132377  0  1.017772  0
H  H54  1  0.55329153  0.63947421  0.90970203  1  0.036068  0  0.094585  0.133446  0  1.01678  0
H  H55  1  0.91408610  0.27011350  0.36059879  1  0.037023  0  0.094006  0.132701  0  1.017007  0
H  H56  1  0.64389779  0.09037963  0.72969389  1  0.043922  0  0.094212  0.132396  0  1.017754  0
H  H57  1  0.48281560  0.38417390  0.99922306  1  0.085495  0  0.096545  0.14341  0  1.016988  0
H  H58  1  0.09846155  0.61514792  0.61573432  1  0.085713  0  0.097263  0.143765  0  1.015492  0
H  H59  1  0.48332734  0.00075617  0.38506973  1  0.083226  0  0.097134  0.143291  0  1.01641  0
H  H60  1  0.51718455  0.61582607  0.00077701  1  0.0855  0  0.096536  0.143397  0  1.017011  0
H  H61  1  0.90153934  0.38485352  0.38426649  1  0.0857  0  0.097255  0.14377  0  1.015501  0
H  H62  1  0.51667019  0.99924454  0.61493030  1  0.083153  0  0.097128  0.143274  0  1.01642  0
C  C63  1  0.97352037  0.27421939  0.88243167  1  0.491498  0  0.042963  0.0867  0  3.954259  0
C  C64  1  0.69931166  0.60815987  0.72562558  1  0.498297  0  0.041354  0.08498  0  3.957956  0
C  C65  1  0.09100386  0.11761777  0.39206053  1  0.449878  0  0.038789  0.081569  0  3.95798  0
C  C66  1  0.02647878  0.72578058  0.11756889  1  0.491106  0  0.042916  0.086599  0  3.954297  0
C  C67  1  0.30068812  0.39183936  0.27437350  1  0.498296  0  0.041416  0.085104  0  3.958113  0
C  C68  1  0.90899529  0.88238221  0.60794003  1  0.449898  0  0.038829  0.081595  0  3.95791  0
C  C69  1  0.02352904  0.19551262  0.85074311  1  -0.120259  0  -0.093019  -0.127675  0  4.004088  0
C  C70  1  0.82803525  0.65517956  0.80434533  1  -0.098272  0  -0.094693  -0.129806  0  4.005739  0
C  C71  1  0.17255945  0.14922631  0.34498214  1  -0.044821  0  -0.092189  -0.126665  0  4.007934  0
C  C72  1  0.97647111  0.80448735  0.14925758  1  -0.119877  0  -0.093036  -0.127675  0  4.00406  0
C  C73  1  0.17196453  0.34481967  0.19565375  1  -0.098277  0  -0.094691  -0.12984  0  4.005743  0
C  C74  1  0.82743833  0.85077292  0.65501729  1  -0.044897  0  -0.092213  -0.12666  0  4.007902  0
C  C75  1  0.16782567  0.21424283  0.89266901  1  0.058148  0  -0.075964  -0.102589  0  3.966721  0
C  C76  1  0.95356638  0.67846888  0.78565120  1  -0.033238  0  -0.073773  -0.101165  0  3.967902  0
C  C77  1  0.27481547  0.10722227  0.32168386  1  0.012251  0  -0.075611  -0.103815  0  3.969103  0
C  C78  1  0.83217448  0.78575714  0.10733168  1  0.058153  0  -0.075933  -0.102585  0  3.9667  0
C  C79  1  0.04643514  0.32153183  0.21435000  1  -0.033367  0  -0.073796  -0.101182  0  3.967897  0
C  C80  1  0.72518194  0.89277622  0.67831395  1  0.012306  0  -0.075646  -0.103775  0  3.969031  0
C  C81  1  0.26093409  0.30957470  0.96465950  1  0.010435  0  0.002366  0.109004  0  3.933221  0
C  C82  1  0.95126735  0.65517915  0.69033085  1  0.01186  0  0.000829  0.106834  0  3.933035  0
C  C83  1  0.29595052  0.03523447  0.34498584  1  -0.025393  0  0.002279  0.108525  0  3.931876  0
C  C84  1  0.73906606  0.69042527  0.03534057  1  0.010476  0  0.002333  0.109018  0  3.933278  0
C  C85  1  0.04873354  0.34482230  0.30966933  1  0.012132  0  0.00086  0.106834  0  3.933007  0
C  C86  1  0.70404689  0.96476402  0.65501259  1  -0.025384  0  0.002263  0.108474  0  3.931883  0
C  C87  1  0.20134216  0.38515765  0.99186659  1  0.477847  0  0.124162  0.103864  0  3.946539  0
C  C88  1  0.81610751  0.60674168  0.61472575  1  0.488376  0  0.12457  0.103072  0  3.943536  0
C  C89  1  0.20924315  0.00805589  0.39336489  1  0.482017  0  0.124198  0.104814  0  3.945033  0
C  C90  1  0.79865937  0.61484306  0.00813586  1  0.477822  0  0.124176  0.103806  0  3.946614  0
C  C91  1  0.18389201  0.39325903  0.38527330  1  0.488218  0  0.124532  0.103039  0  3.9435  0
C  C92  1  0.79075537  0.99194482  0.60663528  1  0.481771  0  0.124175  0.104814  0  3.945067  0
C  C93  1  0.28288927  0.48942812  0.06298116  1  0.94628  0  0.197728  0.218474  0  4.059454  0
C  C94  1  0.79336759  0.57351098  0.51045840  1  0.979868  0  0.196419  0.21743  0  4.062167  0
C  C95  1  0.21978926  0.93692972  0.42644224  1  0.941735  0  0.196454  0.216252  0  4.056603  0
C  C96  1  0.71710988  0.51057185  0.93701940  1  0.946305  0  0.197721  0.218481  0  4.059439  0
C  C97  1  0.20663330  0.42649047  0.48954178  1  0.979804  0  0.196436  0.217413  0  4.062091  0
C  C98  1  0.78021052  0.06306951  0.57355684  1  0.941891  0  0.196421  0.216194  0  4.056625  0
C  C99  1  0.43791091  0.62992824  0.16290977  1  0.934473  0  0.19136  0.225739  0  4.103799  0
C  C100  1  0.80783270  0.53282337  0.36996647  1  0.926161  0  0.190002  0.22657  0  4.106007  0
C  C101  1  0.27527063  0.83710396  0.46698791  1  0.936369  0  0.192396  0.227798  0  4.098122  0
C  C102  1  0.56208961  0.37007246  0.83709067  1  0.934464  0  0.191357  0.225729  0  4.103827  0
C  C103  1  0.19216981  0.46717734  0.63003361  1  0.92627  0  0.189998  0.226643  0  4.105876  0
C  C104  1  0.72472989  0.16289675  0.53301316  1  0.9364  0  0.192417  0.227783  0  4.098194  0
C  C105  1  0.57188425  0.71050823  0.22931506  1  -0.030102  0  0.017236  0.081328  0  3.996984  0
C  C106  1  0.86116058  0.51862975  0.28938824  1  -0.046859  0  0.0163  0.079542  0  3.999209  0
C  C107  1  0.34299759  0.77078318  0.48118996  1  -0.021384  0  0.015743  0.078414  0  3.994791  0
C  C108  1  0.42811727  0.28949248  0.77068489  1  -0.030012  0  0.017228  0.081361  0  3.996895  0
C  C109  1  0.13883983  0.48136874  0.71061123  1  -0.046951  0  0.016331  0.07952  0  3.999062  0
C  C110  1  0.65700257  0.22921679  0.51881011  1  -0.021409  0  0.015687  0.078371  0  3.99479  0
C  C111  1  0.58221128  0.80823111  0.25605855  1  0.023828  0  -0.085919  -0.172012  0  3.957969  0
C  C112  1  0.77370856  0.44766101  0.19163961  1  0.018032  0  -0.085243  -0.170369  0  3.95844  0
C  C113  1  0.32656453  0.74409186  0.55217519  1  -0.055351  0  -0.086049  -0.170667  0  3.95892  0
C  C114  1  0.41779050  0.19176812  0.74394017  1  0.023853  0  -0.085907  -0.171986  0  3.957948  0
C  C115  1  0.22629159  0.55233896  0.80836046  1  0.01806  0  -0.085234  -0.170348  0  3.958372  0
C  C116  1  0.67343699  0.25590885  0.44782601  1  -0.055516  0  -0.086005  -0.170554  0  3.958862  0
C  C117  1  0.70883073  0.88453502  0.32247394  1  0.431246  0  0.037867  0.082565  0  3.976661  0
C  C118  1  0.82394337  0.43781594  0.11535132  1  0.447294  0  0.036905  0.082306  0  3.978104  0
C  C119  1  0.38657980  0.67761246  0.56203996  1  0.501704  0  0.037529  0.082992  0  3.976994  0
C  C120  1  0.29117341  0.11546496  0.67752730  1  0.431229  0  0.037885  0.082611  0  3.976627  0
C  C121  1  0.17605504  0.56218256  0.88464725  1  0.44725  0  0.036819  0.082243  0  3.978011  0
C  C122  1  0.61342171  0.32238825  0.43795999  1  0.502299  0  0.037499  0.082917  0  3.977018  0
C  C123  1  0.81619039  0.77595671  0.33623743  1  0.44915  0  0.040305  0.088644  0  3.949162  0
C  C124  1  0.03987625  0.56013500  0.22396333  1  0.408644  0  0.042408  0.093368  0  3.950599  0
C  C125  1  0.48024915  0.66377047  0.43977451  1  0.463308  0  0.041145  0.091589  0  3.951222  0
C  C126  1  0.18381002  0.22404178  0.66376203  1  0.449159  0  0.04025  0.088622  0  3.949223  0
C  C127  1  0.96012279  0.43986276  0.77603501  1  0.408655  0  0.042394  0.093442  0  3.95061  0
C  C128  1  0.51975174  0.33623098  0.56022567  1  0.463073  0  0.041148  0.091598  0  3.95121  0
C  C129  1  0.69381510  0.69483021  0.26961112  1  -0.000796  0  -0.083363  -0.161269  0  3.916651  0
C  C130  1  0.99873708  0.57458488  0.30508980  1  0.028117  0  -0.083594  -0.163216  0  3.919714  0
C  C131  1  0.42467195  0.73047014  0.42529033  1  -0.030161  0  -0.081643  -0.159672  0  3.915673  0
C  C132  1  0.30618631  0.30516829  0.73038848  1  -0.000766  0  -0.083372  -0.161339  0  3.916693  0
C  C133  1  0.00126333  0.42541361  0.69490904  1  0.02811  0  -0.083591  -0.16319  0  3.919614  0
C  C134  1  0.57532957  0.26953057  0.57470962  1  -0.030178  0  -0.081581  -0.159631  0  3.915641  0
C  C135  1  0.41569919  0.32892810  0.00989688  1  -0.029342  0  -0.240743  -0.416398  0  3.97701  0
C  C136  1  0.08662544  0.68110626  0.67098989  1  -0.039096  0  -0.240022  -0.41336  0  3.974425  0
C  C137  1  0.40547541  0.99002079  0.31910411  1  -0.020639  0  -0.241285  -0.413812  0  3.975476  0
C  C138  1  0.58430096  0.67107187  0.99010319  1  -0.02978  0  -0.24072  -0.416363  0  3.977023  0
C  C139  1  0.91337570  0.31889371  0.32901032  1  -0.039374  0  -0.240051  -0.413363  0  3.974421  0
C  C140  1  0.59452300  0.00997771  0.68089383  1  -0.020555  0  -0.241291  -0.413821  0  3.975475  0
N  N141  1  0.06039792  0.36614391  0.95115007  1  -1.245082  0  -0.316852  -0.24734  0  3.511756  0
N  N142  1  0.69422576  0.58500107  0.63373046  1  -1.230427  0  -0.315339  -0.244602  0  3.511164  0
N  N143  1  0.10910954  0.04883486  0.41514383  1  -1.226354  0  -0.315279  -0.245305  0  3.512585  0
N  N144  1  0.93960261  0.63385680  0.04885099  1  -1.245109  0  -0.316819  -0.247266  0  3.511884  0
N  N145  1  0.30577576  0.41499964  0.36626949  1  -1.230268  0  -0.315363  -0.244662  0  3.511298  0
N  N146  1  0.89088961  0.95116511  0.58485611  1  -1.226319  0  -0.315262  -0.245289  0  3.512557  0
N  N147  1  0.21578472  0.55663663  0.07775526  1  -0.756077  0  -0.247731  -0.209625  0  3.56517  0
N  N148  1  0.65907405  0.52089343  0.44323482  1  -0.751702  0  -0.24718  -0.208356  0  3.563871  0
N  N149  1  0.13816269  0.92218981  0.47899201  1  -0.742616  0  -0.246817  -0.208471  0  3.56031  0
N  N150  1  0.78421743  0.44336334  0.92224634  1  -0.756094  0  -0.247752  -0.20966  0  3.565192  0
N  N151  1  0.34092684  0.47910802  0.55676536  1  -0.751652  0  -0.247166  -0.208302  0  3.563848  0
N  N152  1  0.86183783  0.07781090  0.52100842  1  -0.742633  0  -0.246819  -0.208454  0  3.560159  0
N  N153  1  0.31411933  0.64693268  0.14107971  1  -0.655621  0  -0.233487  -0.275169  0  3.202695  0
N  N154  1  0.66707974  0.49386475  0.35295210  1  -0.662176  0  -0.232113  -0.275041  0  3.202443  0
N  N155  1  0.17341061  0.85892565  0.50593023  1  -0.663388  0  -0.234206  -0.275484  0  3.200915  0
N  N156  1  0.68588119  0.35306803  0.85892073  1  -0.655595  0  -0.233482  -0.275141  0  3.202758  0
N  N157  1  0.33292178  0.50613596  0.64704785  1  -0.662211  0  -0.232137  -0.275092  0  3.202411  0
N  N158  1  0.82658992  0.14107506  0.49407146  1  -0.663409  0  -0.234162  -0.275414  0  3.200834  0
N  N159  1  0.42327012  0.53284144  0.11637035  1  -1.161677  0  -0.334017  -0.400668  0  3.17375  0
N  N160  1  0.89027234  0.58352362  0.46706096  1  -1.149496  0  -0.334531  -0.401472  0  3.176693  0
N  N161  1  0.30682938  0.88358099  0.41637428  1  -1.144516  0  -0.334175  -0.401266  0  3.171959  0
N  N162  1  0.57672904  0.46715853  0.88363146  1  -1.161694  0  -0.33403  -0.400683  0  3.173757  0
N  N163  1  0.10972818  0.41647709  0.53293885  1  -1.149447  0  -0.334546  -0.401516  0  3.17662  0
N  N164  1  0.69316977  0.11641898  0.58362565  1  -1.144509  0  -0.33416  -0.401246  0  3.172006  0
N  N165  1  0.82445435  0.86980665  0.36367814  1  -1.236953  0  -0.324239  -0.237473  0  3.507749  0
N  N166  1  0.95425621  0.49376534  0.13010624  1  -1.244473  0  -0.324789  -0.23941  0  3.50655  0
N  N167  1  0.46092620  0.63631896  0.50611679  1  -1.232038  0  -0.32409  -0.239133  0  3.507807  0
N  N168  1  0.17554780  0.13019332  0.63632220  1  -1.237054  0  -0.324187  -0.237429  0  3.507656  0
N  N169  1  0.04574021  0.50623315  0.86989206  1  -1.244404  0  -0.324755  -0.23947  0  3.506548  0
N  N170  1  0.53907532  0.36368175  0.49388316  1  -1.232209  0  -0.324107  -0.239173  0  3.507863  0
