# generated using pymatgen
data_Zn2H32C41(N5O)2
_symmetry_space_group_name_H-M   'P 1'
_cell_length_a   19.73412778
_cell_length_b   19.70555954
_cell_length_c   20.80927996
_cell_angle_alpha   108.60489086
_cell_angle_beta   105.70099704
_cell_angle_gamma   111.91531472
_symmetry_Int_Tables_number   1
_chemical_formula_structural   Zn2H32C41(N5O)2
_chemical_formula_sum   'Zn4 H64 C82 N20 O4'
_cell_volume   6378.05982482
_cell_formula_units_Z   2
loop_
 _symmetry_equiv_pos_site_id
 _symmetry_equiv_pos_as_xyz
  1  'x, y, z'
loop_
 _atom_site_type_symbol
 _atom_site_label
 _atom_site_symmetry_multiplicity
 _atom_site_fract_x
 _atom_site_fract_y
 _atom_site_fract_z
 _atom_site_occupancy
 _atom_site_pbe_bader_charge
 _atom_site_pbe_bader_spin_density
 _atom_site_pbe_cm5_charge
 _atom_site_pbe_ddec_charge
 _atom_site_pbe_ddec_spin_density
 _atom_site_pbe_ddec_sum_bond_order
 _atom_site_pbe_magmom
Zn  Zn0  1  0.59988019  0.60051061  0.49331349  1  1.198536  0  0.745043  0.637124  0  2.42977  0
Zn  Zn1  1  0.39088184  0.39150016  0.49144241  1  1.197862  0  0.743113  0.644665  0  2.386444  0
Zn  Zn2  1  0.50431401  0.59478533  0.60077502  1  1.18548  0  0.74693  0.604436  0  2.518  0
Zn  Zn3  1  0.50229987  0.39869403  0.39676006  1  1.186578  0  0.738764  0.624102  0  2.426338  0
H  H4  1  0.76397739  0.62413916  0.60891932  1  0.081407  0  0.117633  0.102489  0  1.007334  0
H  H5  1  0.77534648  0.16161938  0.71470087  1  0.060049  0  0.098162  0.091405  0  0.99066  0
H  H6  1  0.49574614  0.07581398  0.55074077  1  0.064207  0  0.099366  0.097322  0  0.997374  0
H  H7  1  0.54526027  0.06420170  0.68613915  1  0.070767  0  0.098115  0.085653  0  0.992749  0
H  H8  1  0.67970953  0.22759767  0.75788649  1  0.067088  0  0.098335  0.086486  0  0.995481  0
H  H9  1  0.35821286  0.58077279  0.79740055  1  0.067078  0  0.097621  0.097919  0  1.001833  0
H  H10  1  0.46950899  0.60922265  0.75192445  1  0.098366  0  0.116729  0.103991  0  1.004161  0
H  H11  1  0.33958070  0.58704574  0.91272534  1  0.089277  0  0.103631  0.109226  0  1.008442  0
H  H12  1  0.44724025  0.66341703  0.14981461  1  0.091565  0  0.103693  0.106864  0  0.997514  0
H  H13  1  0.47855067  0.65511682  0.27046272  1  0.051671  0  0.098403  0.099735  0  1.004971  0
H  H14  1  0.25884412  0.40754128  0.02790112  1  0.111837  0  0.103728  0.106739  0  1.008946  0
H  H15  1  0.24722226  0.38436816  0.36700177  1  0.127703  0  0.115371  0.101631  0  1.032318  0
H  H16  1  0.34143423  0.35980590  0.86765449  1  0.063699  0  0.101828  0.105942  0  1.007794  0
H  H17  1  0.28263582  0.40106306  0.14876462  1  0.04733  0  0.101813  0.104555  0  1.002274  0
H  H18  1  0.24615921  0.11062323  0.13071610  1  0.038026  0  0.097692  0.098841  0  1.000433  0
H  H19  1  0.13483202  0.97317993  0.02318822  1  0.102161  0  0.102702  0.103376  0  1.018626  0
H  H20  1  0.00555631  0.76997121  0.83875533  1  0.082717  0  0.104164  0.105393  0  0.997459  0
H  H21  1  0.88018749  0.66951106  0.71736263  1  0.045256  0  0.100289  0.102651  0  0.999828  0
H  H22  1  0.14487660  0.05629259  0.27950949  1  0.04994  0  0.101624  0.106382  0  1.000076  0
H  H23  1  0.86188635  0.75446432  0.96160469  1  0.121602  0  0.102969  0.103485  0  1.016759  0
H  H24  1  0.03080834  0.92081290  0.17000934  1  0.070157  0  0.104186  0.107401  0  0.996035  0
H  H25  1  0.73616863  0.65502008  0.84139156  1  0.033524  0  0.099455  0.099675  0  1.002162  0
H  H26  1  0.37712715  0.20119710  0.25045320  1  0.064759  0  0.116711  0.102771  0  0.999305  0
H  H27  1  0.31372160  0.34487997  0.60677651  1  0.086374  0  0.119155  0.106696  0  1.005413  0
H  H28  1  0.76572854  0.64424962  0.46129045  1  0.102403  0  0.121446  0.113289  0  0.986588  0
H  H29  1  0.64665709  0.38826032  0.50329267  1  0.108399  0  0.119084  0.113527  0  0.999111  0
H  H30  1  0.61860566  0.58110927  0.73054978  1  0.093624  0  0.116787  0.102885  0  1.006021  0
H  H31  1  0.48501465  0.64210482  0.38699138  1  0.07877  0  0.117646  0.107387  0  1.001024  0
H  H32  1  0.60046841  0.85729706  0.75360758  1  0.07254  0  0.101854  0.145489  0  0.974349  0
H  H33  1  0.50260474  0.81878010  0.68268990  1  0.065243  0  0.099686  0.14032  0  0.981643  0
H  H34  1  0.52484719  0.75110642  0.71267516  1  0.019613  0  0.092727  0.124346  0  1.008352  0
H  H35  1  0.10077923  0.14834296  0.26070950  1  0.091099  0  0.096892  0.097884  0  1.019838  0
H  H36  1  0.15345225  0.25768443  0.29222953  1  0.038442  0  0.099844  0.096542  0  1.002668  0
H  H37  1  0.38598329  0.64942299  0.51592297  1  0.080591  0  0.121495  0.114023  0  0.989573  0
H  H38  1  0.10114273  0.21814857  0.34170464  1  0.05967  0  0.111512  0.120727  0  0.965761  0
H  H39  1  0.70927050  0.91330249  0.53856885  1  0.045641  0  0.102234  0.107771  0  0.987506  0
H  H40  1  0.60349686  0.85189589  0.47366546  1  0.086716  0  0.102097  0.108032  0  0.998743  0
H  H41  1  0.67772295  0.84278323  0.44228472  1  0.048462  0  0.107703  0.111814  0  0.971952  0
H  H42  1  0.31659621  0.31696600  0.20668033  1  0.065677  0  0.094467  0.133933  0  0.990646  0
H  H43  1  0.38014705  0.36451139  0.16959928  1  0.044357  0  0.098331  0.1402  0  0.999295  0
H  H44  1  0.41567438  0.33026860  0.23385273  1  0.018757  0  0.089486  0.120961  0  1.01986  0
H  H45  1  0.92686694  0.34484713  0.41738238  1  0.059296  0  0.091649  0.08219  0  1.000804  0
H  H46  1  0.98887046  0.43364466  0.50942360  1  0.04519  0  0.094185  0.086907  0  0.996865  0
H  H47  1  0.01217332  0.35198263  0.48444926  1  0.060486  0  0.106566  0.11008  0  0.974075  0
H  H48  1  0.02613629  0.57634867  0.51105902  1  0.084297  0  0.099805  0.099472  0  0.99461  0
H  H49  1  0.45919594  0.24494835  0.59586181  1  0.056968  0  0.09808  0.140962  0  0.988491  0
H  H50  1  0.47685381  0.34274308  0.65651875  1  0.056837  0  0.095396  0.134586  0  1.00546  0
H  H51  1  0.39101796  0.27995251  0.56623581  1  0.055045  0  0.092957  0.125866  0  1.009201  0
H  H52  1  0.76974589  0.14309540  0.55404884  1  0.02439  0  0.091208  0.124879  0  0.995778  0
H  H53  1  0.71427204  0.18966271  0.52362325  1  0.024048  0  0.087627  0.116031  0  1.01704  0
H  H54  1  0.79609291  0.24507246  0.61578848  1  0.00338  0  0.09286  0.128351  0  0.992568  0
H  H55  1  0.59539567  0.05598223  0.43036620  1  0.05538  0  0.094058  0.089253  0  1.006442  0
H  H56  1  0.49717889  0.00586562  0.42792693  1  0.05249  0  0.096089  0.089534  0  0.9997  0
H  H57  1  0.53358437  0.94508803  0.38000369  1  0.06313  0  0.106336  0.109619  0  0.976626  0
H  H58  1  0.42272982  0.36033128  0.73246349  1  0.04946  0  0.088847  0.118898  0  1.03229  0
H  H59  1  0.12355744  0.66494716  0.45595221  1  0.067114  0  0.098935  0.086993  0  0.991719  0
H  H60  1  0.38286936  0.30499144  0.77864329  1  0.033902  0  0.092888  0.12912  0  0.992963  0
H  H61  1  0.31742035  0.28838292  0.69085048  1  0.053708  0  0.090856  0.122682  0  0.996563  0
H  H62  1  0.63432102  0.33222470  0.28404482  1  0.057983  0  0.099343  0.140716  0  0.979559  0
H  H63  1  0.69251163  0.34276321  0.37154159  1  0.055736  0  0.098428  0.138738  0  0.984624  0
H  H64  1  0.58743593  0.31115132  0.34288641  1  0.033709  0  0.092387  0.123404  0  1.010818  0
H  H65  1  0.97982176  0.61019960  0.32828269  1  0.052879  0  0.098802  0.086037  0  0.992178  0
H  H66  1  0.99020547  0.47056504  0.24890716  1  0.093191  0  0.099281  0.088155  0  0.992027  0
H  H67  1  0.89189170  0.38014791  0.30227247  1  0.075403  0  0.098298  0.096681  0  0.996472  0
C  C68  1  0.71736649  0.60912590  0.62860402  1  0.423149  0  0.014191  -0.035544  0  3.949138  0
C  C69  1  0.62561756  0.77698383  0.55567743  1  1.078185  0  0.190466  0.298994  0  4.110015  0
C  C70  1  0.41531816  0.44295037  0.28492385  1  0.432123  0  0.094239  0.219445  0  3.952554  0
C  C71  1  0.50527909  0.33704758  0.56275407  1  0.475601  0  0.099367  0.22233  0  3.951218  0
C  C72  1  0.36331686  0.58344646  0.48548928  1  0.445686  0  0.015568  -0.04596  0  3.934189  0
C  C73  1  0.41684679  0.51545386  0.28475638  1  0.04477  0  -0.038606  -0.116576  0  4.046036  0
C  C74  1  0.28635472  0.51987448  0.42546014  1  0.128907  0  -0.028358  0.043689  0  4.190712  0
C  C75  1  0.61214067  0.82971663  0.60908306  1  0.06917  0  -0.048591  -0.156624  0  4.193612  0
C  C76  1  0.26862120  0.17427568  0.27530406  1  0.054037  0  -0.047181  -0.161091  0  4.100181  0
C  C77  1  0.02312884  0.47415429  0.40823701  1  0.590689  0  0.088401  0.217721  0  3.730402  0
C  C78  1  0.01889432  0.55244611  0.45296894  1  -0.085308  0  -0.084608  -0.16526  0  3.636119  0
C  C79  1  0.57609929  0.33537012  0.56128220  1  0.092916  0  -0.036029  -0.031796  0  4.185373  0
C  C80  1  0.80709852  0.51641771  0.39318268  1  -0.331789  0  -0.069694  -0.10655  0  4.248208  0
C  C81  1  0.21535690  0.52428694  0.39836548  1  -0.496085  0  -0.062453  -0.108504  0  4.203422  0
C  C82  1  0.94403882  0.44327599  0.33672207  1  -0.062623  0  -0.084773  -0.162797  0  3.636546  0
C  C83  1  0.43418432  0.54584161  0.70641856  1  0.375839  0  0.004816  -0.066036  0  4.015122  0
C  C84  1  0.93842775  0.52109358  0.38159524  1  0.088379  0  0.001396  0.149965  0  3.822287  0
C  C85  1  0.99775037  0.49366042  0.30708457  1  -0.057228  0  -0.074315  -0.071392  0  3.647998  0
C  C86  1  0.07820851  0.52429851  0.37813357  1  0.1135  0  0.001839  0.081414  0  3.807325  0
C  C87  1  0.99307207  0.57134532  0.35116018  1  -0.014908  0  -0.073489  -0.077767  0  3.629902  0
C  C88  1  0.07154332  0.60176344  0.42218637  1  -0.033336  0  -0.074288  -0.066885  0  3.652963  0
C  C89  1  0.86691737  0.51836463  0.38548405  1  -0.054538  0  -0.069476  -0.153721  0  4.160102  0
C  C90  1  0.38261980  0.47328596  0.70593421  1  -0.020032  0  -0.037251  -0.035549  0  4.090117  0
C  C91  1  0.15165032  0.52547826  0.38269030  1  0.121307  0  -0.069006  -0.135448  0  4.145442  0
C  C92  1  0.71314059  0.14278540  0.67812163  1  -0.042122  0  -0.076451  -0.114528  0  3.638964  0
C  C93  1  0.68737137  0.14831966  0.60259416  1  0.00247  0  -0.007498  0.069789  0  3.65256  0
C  C94  1  0.60832035  0.29260885  0.58978861  1  -0.289386  0  -0.063313  -0.100628  0  4.223953  0
C  C95  1  0.66555865  0.44030469  0.38154016  1  0.421666  0  0.092838  0.204659  0  3.992918  0
C  C96  1  0.62596583  0.90993812  0.62568359  1  -0.501497  0  -0.065711  -0.083431  0  4.271256  0
C  C97  1  0.66023756  0.17868035  0.70200863  1  -0.047091  0  -0.075167  -0.080016  0  3.649526  0
C  C98  1  0.63284280  0.18448928  0.62582886  1  0.09167  0  0.001608  0.111169  0  3.808039  0
C  C99  1  0.58535955  0.08895110  0.66211707  1  -0.035043  0  -0.074304  -0.066606  0  3.656311  0
C  C100  1  0.63830530  0.05146376  0.63827953  1  0.101058  0  -0.000701  0.082358  0  3.832253  0
C  C101  1  0.73813529  0.51249359  0.40284485  1  0.142918  0  -0.038228  -0.032382  0  4.202502  0
C  C102  1  0.55768971  0.09340913  0.58659784  1  -0.056364  0  -0.083594  -0.160436  0  3.65509  0
C  C103  1  0.61114663  0.05796066  0.56265317  1  0.57201  0  0.087143  0.184266  0  3.697785  0
C  C104  1  0.62453125  0.24768594  0.61217048  1  -0.095975  0  -0.069556  -0.148857  0  4.143435  0
C  C105  1  0.63590954  0.97867844  0.63790769  1  0.130709  0  -0.070471  -0.149806  0  4.151951  0
C  C106  1  0.38706060  0.52551313  0.21809208  1  -0.018301  0  -0.001844  0.108737  0  4.018203  0
C  C107  1  0.35587054  0.41093898  0.63311039  1  0.429241  0  0.009755  -0.054281  0  3.999384  0
C  C108  1  0.32121498  0.45782577  0.14911982  1  -0.011202  0  -0.093135  -0.130277  0  3.986133  0
C  C109  1  0.30639844  0.46140126  0.08156455  1  -0.109611  0  -0.090004  -0.145201  0  3.990107  0
C  C110  1  0.35507276  0.53470233  0.08142512  1  0.331757  0  0.077302  0.161538  0  4.071015  0
C  C111  1  0.41216266  0.60617078  0.15072288  1  -0.064808  0  -0.087708  -0.142536  0  3.988436  0
C  C112  1  0.46667223  0.57687354  0.36078831  1  0.411235  0  0.011208  -0.037548  0  3.982759  0
C  C113  1  0.42888081  0.60112485  0.21781442  1  0.017566  0  -0.096662  -0.13508  0  3.990953  0
C  C114  1  0.34463517  0.53652523  0.87751382  1  -0.054227  0  -0.091876  -0.149594  0  3.989384  0
C  C115  1  0.35587571  0.53287373  0.81381753  1  -0.051828  0  -0.095259  -0.126654  0  4.019417  0
C  C116  1  0.33972079  0.47325441  0.89678770  1  0.363952  0  0.077553  0.17048  0  4.088682  0
C  C117  1  0.36428693  0.46861767  0.76858161  1  0.039296  0  -0.008426  0.02854  0  3.983014  0
C  C118  1  0.35845512  0.40441932  0.78768962  1  -0.058696  0  -0.011744  0.126033  0  3.953953  0
C  C119  1  0.72539348  0.57795640  0.43687905  1  0.422468  0  0.011964  -0.053166  0  3.999058  0
C  C120  1  0.34472994  0.40747996  0.85061720  1  0.006879  0  -0.088183  -0.20649  0  3.941641  0
C  C121  1  0.79814606  0.65709389  0.76973615  1  -0.008529  0  -0.000448  0.101037  0  4.023913  0
C  C122  1  0.79515028  0.67896036  0.84025622  1  -0.015921  0  -0.093425  -0.127877  0  3.983688  0
C  C123  1  0.29255978  0.44787913  0.40901921  1  0.394522  0  0.016972  -0.035847  0  3.923036  0
C  C124  1  0.86491560  0.73450547  0.90772988  1  -0.076645  0  -0.085908  -0.132209  0  3.966896  0
C  C125  1  0.94128704  0.77020523  0.90717716  1  0.317649  0  0.078788  0.160192  0  4.066343  0
C  C126  1  0.94580873  0.74318144  0.83804846  1  0.000284  0  -0.084384  -0.135457  0  3.987798  0
C  C127  1  0.87552859  0.68724069  0.77058066  1  -0.032125  0  -0.096982  -0.137523  0  3.994337  0
C  C128  1  0.13843148  0.99195524  0.07980301  1  -0.010252  0  -0.087302  -0.134659  0  3.972377  0
C  C129  1  0.20031244  0.06808188  0.14004798  1  -0.074613  0  -0.096746  -0.133772  0  3.993534  0
C  C130  1  0.07651945  0.93831215  0.09035723  1  0.378927  0  0.078188  0.16207  0  4.068883  0
C  C131  1  0.59683230  0.37591664  0.51896562  1  0.431217  0  0.010832  -0.048969  0  3.967184  0
C  C132  1  0.20363844  0.09337645  0.21300234  1  -0.033975  0  -0.009768  0.107458  0  4.044324  0
C  C133  1  0.14228748  0.03862147  0.22321715  1  -0.032313  0  -0.097999  -0.142319  0  4.004173  0
C  C134  1  0.57790262  0.78092821  0.64150578  1  0.518503  0  0.095813  0.223155  0  4.016719  0
C  C135  1  0.07920262  0.96281689  0.16268199  1  -0.03462  0  -0.087029  -0.141867  0  3.987578  0
C  C136  1  0.64341847  0.58733205  0.69076317  1  0.40065  0  0.010204  -0.042667  0  3.95271  0
C  C137  1  0.72392685  0.61505052  0.69971357  1  0.029789  0  -0.035851  -0.047806  0  4.070917  0
C  C138  1  0.54994482  0.80305546  0.70063734  1  -0.075851  0  -0.228493  -0.418599  0  3.987447  0
C  C139  1  0.13666951  0.20986576  0.31064611  1  0.362982  0  -0.133509  -0.166949  0  3.897579  0
C  C140  1  0.66186752  0.85304407  0.48970285  1  0.393766  0  -0.133103  -0.166058  0  3.891234  0
C  C141  1  0.37980061  0.35932933  0.22048915  1  -0.051598  0  -0.234515  -0.421295  0  3.988763  0
C  C142  1  0.98952466  0.38726848  0.46314983  1  0.368029  0  -0.139203  -0.16451  0  3.965736  0
C  C143  1  0.45524280  0.29944480  0.59710047  1  -0.070773  0  -0.230821  -0.417899  0  3.982565  0
C  C144  1  0.74473957  0.18317921  0.57219877  1  0.008109  0  -0.23767  -0.399313  0  4.013938  0
C  C145  1  0.34917278  0.21862556  0.28635238  1  0.450109  0  0.007365  -0.043408  0  4.041292  0
C  C146  1  0.55152733  0.00102738  0.43002225  1  0.362504  0  -0.138943  -0.169543  0  3.956212  0
C  C147  1  0.37092169  0.33600704  0.74517474  1  -0.090823  0  -0.237104  -0.399351  0  3.98441  0
C  C148  1  0.64359000  0.35202419  0.34298925  1  -0.037462  0  -0.228805  -0.418664  0  3.999535  0
C  C149  1  0.26849765  0.22668411  0.34015389  1  1.006097  0  0.178754  0.282673  0  4.099663  0
N  N150  1  0.64006592  0.58229012  0.58294159  1  -0.792782  0  -0.277259  -0.179409  0  3.622023  0
N  N151  1  0.33390528  0.47079246  0.96204710  1  -0.511532  0  -0.161666  -0.153231  0  3.309034  0
N  N152  1  0.01362531  0.83722505  0.96985443  1  -0.510354  0  -0.164367  -0.155034  0  3.322498  0
N  N153  1  0.48718061  0.37617920  0.52433437  1  -0.787969  0  -0.277139  -0.238749  0  3.577732  0
N  N154  1  0.00776720  0.86333748  0.03137097  1  -0.496615  0  -0.166279  -0.158669  0  3.307293  0
N  N155  1  0.43781155  0.52782548  0.63990557  1  -0.799092  0  -0.273746  -0.172137  0  3.577024  0
N  N156  1  0.61480276  0.46257278  0.40169535  1  -0.794814  0  -0.268571  -0.239475  0  3.499801  0
N  N157  1  0.38859563  0.44372741  0.59386032  1  -0.785725  0  -0.265027  -0.175166  0  3.516105  0
N  N158  1  0.65158969  0.54766867  0.43578932  1  -0.80329  0  -0.270943  -0.177028  0  3.563753  0
N  N159  1  0.54231756  0.39914266  0.49663855  1  -0.802009  0  -0.284571  -0.192199  0  3.654257  0
N  N160  1  0.59435846  0.56872228  0.62096943  1  -0.784093  0  -0.28394  -0.186014  0  3.610821  0
N  N161  1  0.36638243  0.46748562  0.45678568  1  -0.792836  0  -0.280187  -0.189582  0  3.629647  0
N  N162  1  0.49252842  0.54390660  0.40264829  1  -0.786765  0  -0.283389  -0.184555  0  3.643887  0
N  N163  1  0.57294201  0.70716034  0.61051079  1  -0.809035  0  -0.278535  -0.235851  0  3.522798  0
N  N164  1  0.39301616  0.28969830  0.35177306  1  -0.811463  0  -0.271605  -0.174964  0  3.539113  0
N  N165  1  0.34224888  0.29493935  0.38494836  1  -0.807547  0  -0.274439  -0.275553  0  3.507282  0
N  N166  1  0.60246343  0.70456923  0.55706877  1  -0.821899  0  -0.287988  -0.289529  0  3.543056  0
N  N167  1  0.46072443  0.46195452  0.35617850  1  -0.793225  0  -0.282073  -0.241737  0  3.575816  0
N  N168  1  0.40957014  0.55056630  0.50350043  1  -0.789268  0  -0.282415  -0.180466  0  3.660821  0
N  N169  1  0.35590210  0.53999469  0.01562601  1  -0.482703  0  -0.162332  -0.152517  0  3.275968  0
O  O170  1  0.20868033  0.21887589  0.36312034  1  -1.09537  0  -0.20831  -0.21465  0  2.536263  0
O  O171  1  0.65655213  0.78615799  0.50649612  1  -1.08982  0  -0.193827  -0.191546  0  2.563241  0
O  O172  1  0.04387186  0.42620272  0.43604574  1  -1.07345  0  -0.2156  -0.20758  0  2.526208  0
O  O173  1  0.58699101  0.99215876  0.49453679  1  -1.07218  0  -0.211798  -0.205729  0  2.53098  0
