# generated using pymatgen
data_ZnH8C24I4N2O7
_symmetry_space_group_name_H-M   'P 1'
_cell_length_a   9.92973107
_cell_length_b   9.58106935
_cell_length_c   28.06394587
_cell_angle_alpha   109.46443092
_cell_angle_beta   95.92951660
_cell_angle_gamma   95.05729629
_symmetry_Int_Tables_number   1
_chemical_formula_structural   ZnH8C24I4N2O7
_chemical_formula_sum   'Zn2 H16 C48 I8 N4 O14'
_cell_volume   2482.39319777
_cell_formula_units_Z   2
loop_
 _symmetry_equiv_pos_site_id
 _symmetry_equiv_pos_as_xyz
  1  'x, y, z'
loop_
 _atom_site_type_symbol
 _atom_site_label
 _atom_site_symmetry_multiplicity
 _atom_site_fract_x
 _atom_site_fract_y
 _atom_site_fract_z
 _atom_site_occupancy
 _atom_site_pbe_bader_charge
 _atom_site_pbe_bader_spin_density
 _atom_site_pbe_cm5_charge
 _atom_site_pbe_ddec_charge
 _atom_site_pbe_ddec_spin_density
 _atom_site_pbe_ddec_sum_bond_order
 _atom_site_pbe_magmom
Zn  Zn0  1  0.53831632  0.35452802  0.48717287  1  1.29885  0  0.681385  0.854606  0  2.404673  0
Zn  Zn1  1  0.48430948  0.65851048  0.52631279  1  1.291529  0  0.683173  0.854082  0  2.340212  0
H  H2  1  0.60655285  0.31247008  0.33392062  1  0.118161  0  0.101589  0.11258  0  1.017734  0
H  H3  1  0.39075818  0.70108556  0.28525388  1  0.099148  0  0.109891  0.127647  0  0.986033  0
H  H4  1  0.82949813  0.61178918  0.99482118  1  0.084783  0  0.09912  0.105803  0  1.037162  0
H  H5  1  0.14625444  0.41120460  0.01645896  1  0.081623  0  0.099592  0.105712  0  1.037677  0
H  H6  1  0.83206795  0.61633336  0.06407100  1  0.069723  0  0.102972  0.10404  0  1.019798  0
H  H7  1  0.14425597  0.40356863  0.94698503  1  0.073813  0  0.102975  0.103736  0  1.019116  0
H  H8  1  0.68692634  0.14412011  0.41524928  1  0.127788  0  0.118784  0.051075  0  0.98622  0
H  H9  1  0.34458281  0.91429479  0.59310012  1  0.121665  0  0.130494  0.05697  0  0.933635  0
H  H10  1  0.37578298  0.67841538  0.66934101  1  0.098174  0  0.11332  0.117364  0  0.984591  0
H  H11  1  0.43970298  0.13936605  0.52413119  1  0.207107  0  0.128059  0.111618  0  1.02949  0
H  H12  1  0.58208666  0.85426757  0.47770551  1  0.220286  0  0.128223  0.117215  0  1.025661  0
H  H13  1  0.60179018  0.31369634  0.24467262  1  0.083124  0  0.111826  0.122827  0  0.971404  0
H  H14  1  0.36286380  0.68230727  0.75823876  1  0.074202  0  0.114177  0.123529  0  0.974857  0
H  H15  1  0.82834596  0.61684844  0.15180816  1  0.131931  0  0.109927  0.117133  0  1.002169  0
H  H16  1  0.14857284  0.39954851  0.85888718  1  0.127794  0  0.11029  0.117478  0  1.0004  0
H  H17  1  0.59822241  0.31381695  0.73019164  1  0.090087  0  0.108811  0.126274  0  0.988491  0
C  C18  1  0.76382514  0.60220238  0.51829749  1  1.608078  0  0.197528  0.607746  0  4.189771  0
C  C19  1  0.61164187  0.54791582  0.88589079  1  0.040009  0  -0.017507  -0.111101  0  3.960327  0
C  C20  1  0.50796425  0.50728249  0.36041767  1  0.032678  0  -0.020356  -0.068009  0  3.948165  0
C  C21  1  0.49010860  0.49322190  0.64914153  1  0.053005  0  -0.010662  -0.054622  0  3.920792  0
C  C22  1  0.61275405  0.54860764  0.98820145  1  0.008431  0  0.007322  0.061319  0  3.970822  0
C  C23  1  0.36315951  0.47388854  0.02309739  1  0.012235  0  0.007121  0.060928  0  3.966688  0
C  C24  1  0.36178842  0.47191992  0.97060901  1  0.016661  0  0.005031  0.04423  0  3.959906  0
C  C25  1  0.61420336  0.54996878  0.04062769  1  -0.010591  0  0.005746  0.046627  0  3.958786  0
C  C26  1  0.48704078  0.51005360  0.95427947  1  -0.053807  0  0.00327  -0.003836  0  3.920738  0
C  C27  1  0.48890169  0.51218229  0.05699988  1  0.009323  0  0.003446  -0.00291  0  3.91878  0
C  C28  1  0.73199608  0.58349319  0.97009838  1  0.015247  0  -0.092511  -0.164652  0  3.972456  0
C  C29  1  0.26010543  0.42569184  0.46564595  1  1.644471  0  0.193617  0.599035  0  4.228169  0
C  C30  1  0.24375553  0.43931400  0.04118482  1  0.002595  0  -0.092208  -0.163449  0  3.971563  0
C  C31  1  0.73280798  0.58369118  0.92012119  1  -0.226347  0  -0.032052  0.063552  0  3.892227  0
C  C32  1  0.24285922  0.43890804  0.09112436  1  -0.204334  0  -0.033327  0.061476  0  3.895552  0
C  C33  1  0.52268929  0.49735251  0.41294833  1  1.589321  0  0.208547  0.587228  0  4.176193  0
C  C34  1  0.49123870  0.50109358  0.59666345  1  1.600493  0  0.222412  0.61227  0  4.148215  0
C  C35  1  0.73473233  0.58718666  0.07526995  1  -0.04418  0  -0.084162  -0.122649  0  3.977124  0
C  C36  1  0.24149404  0.43318618  0.93582151  1  -0.040262  0  -0.083089  -0.119781  0  3.974935  0
C  C37  1  0.89146069  0.60675140  0.49407065  1  -0.133002  0  -0.066465  -0.132736  0  3.774816  0
C  C38  1  0.14807155  0.40278247  0.42182649  1  -0.150175  0  -0.066596  -0.115736  0  3.813925  0
C  C39  1  0.95895599  0.48829138  0.47299528  1  -0.14813  0  -0.043196  0.05108  0  3.850114  0
C  C40  1  0.48804582  0.51210772  0.10801424  1  0.017595  0  0.006831  0.048637  0  3.975567  0
C  C41  1  0.02641478  0.45577989  0.42732109  1  -0.20173  0  -0.07048  -0.010689  0  3.952441  0
C  C42  1  0.50899535  0.91967195  0.49856982  1  0.576407  0  0.089856  0.117182  0  3.853045  0
C  C43  1  0.50110197  0.07042861  0.49789958  1  0.612933  0  0.096256  0.128051  0  3.827554  0
C  C44  1  0.62068292  0.55115426  0.19438821  1  1.377288  0  0.240184  0.438593  0  4.118134  0
C  C45  1  0.35653784  0.46272266  0.81590764  1  1.332249  0  0.24064  0.437951  0  4.118641  0
C  C46  1  0.36779184  0.47184487  0.17796002  1  1.332156  0  0.237537  0.443114  0  4.084533  0
C  C47  1  0.60797544  0.54972923  0.83313550  1  1.307559  0  0.238358  0.443455  0  4.081133  0
C  C48  1  0.44044640  0.61739382  0.29626003  1  0.087932  0  -0.086328  -0.180809  0  3.940439  0
C  C49  1  0.54754890  0.39218009  0.71643549  1  0.047943  0  -0.089343  -0.189817  0  3.962869  0
C  C50  1  0.44299834  0.61468410  0.34586721  1  -0.220513  0  -0.030532  0.063936  0  3.826794  0
C  C51  1  0.48793035  0.50947862  0.90318848  1  0.027596  0  0.007307  0.050465  0  3.975183  0
C  C52  1  0.55186137  0.38914636  0.66651582  1  -0.206889  0  -0.033971  0.060744  0  3.857357  0
C  C53  1  0.56226782  0.39874318  0.32273684  1  -0.028559  0  -0.086583  -0.068755  0  3.98938  0
C  C54  1  0.42294238  0.59801580  0.68311246  1  -0.064956  0  -0.070718  -0.05847  0  3.951264  0
C  C55  1  0.55856579  0.39881104  0.27317783  1  -0.042289  0  -0.085058  -0.146362  0  3.954239  0
C  C56  1  0.41658650  0.60102406  0.73266131  1  0.045212  0  -0.080663  -0.150445  0  3.972873  0
C  C57  1  0.49898882  0.51039554  0.26046476  1  0.307515  0  0.095927  0.220236  0  4.000708  0
C  C58  1  0.48055128  0.49819088  0.74914373  1  0.300847  0  0.094229  0.214366  0  4.007379  0
C  C59  1  0.64188241  0.06437450  0.43182498  1  1.287971  0  0.179578  0.376732  0  4.021023  0
C  C60  1  0.34571047  0.93751000  0.55698276  1  1.323448  0  0.193797  0.393016  0  4.028518  0
C  C61  1  0.61337409  0.55005494  0.14147602  1  -0.075146  0  -0.012396  -0.073909  0  3.992343  0
C  C62  1  0.36303317  0.46896103  0.86943506  1  -0.018879  0  -0.011154  -0.071088  0  3.990262  0
C  C63  1  0.73414664  0.58747122  0.12492209  1  0.025711  0  -0.071076  -0.065837  0  3.973292  0
C  C64  1  0.24240246  0.43112790  0.88597946  1  -0.033783  0  -0.071473  -0.067588  0  3.974168  0
C  C65  1  0.36409721  0.47427342  0.12531616  1  -0.002891  0  -0.016925  -0.109695  0  3.963793  0
I  I66  1  0.19986112  0.28215885  0.35046379  1  0.176087  0  0.098651  0.039923  0  1.651879  0
I  I67  1  0.94627708  0.80550754  0.48023811  1  0.202163  0  0.113418  0.076536  0  1.616779  0
I  I68  1  0.66663567  0.22885516  0.62344171  1  0.155565  0  0.113054  0.020852  0  1.480663  0
I  I69  1  0.32625987  0.76742647  0.39126747  1  0.264962  0  0.192922  0.118299  0  1.674276  0
I  I70  1  0.92873548  0.63681716  0.90345577  1  0.177012  0  0.109055  0.011412  0  1.482239  0
I  I71  1  0.04715040  0.38448918  0.10771129  1  0.179879  0  0.110518  0.01342  0  1.487734  0
I  I72  1  0.89641237  0.45670971  0.36242882  1  0.151372  0  0.090199  -0.002314  0  1.733812  0
I  I73  1  0.95375710  0.30432671  0.50057551  1  0.181625  0  0.126166  0.06884  0  1.521316  0
N  N74  1  0.49557613  0.51370025  0.20936184  1  -1.182315  0  -0.231361  -0.22169  0  3.58796  0
N  N75  1  0.48126678  0.50198948  0.80104126  1  -1.163567  0  -0.230472  -0.221284  0  3.582939  0
N  N76  1  0.44630663  0.86702405  0.52902031  1  -1.214081  0  -0.327175  -0.288278  0  3.480845  0
N  N77  1  0.56577586  0.13641353  0.47133625  1  -1.219039  0  -0.325267  -0.282337  0  3.457012  0
O  O78  1  0.72110492  0.47842427  0.52298806  1  -1.170306  0  -0.327102  -0.559936  0  2.432353  0
O  O79  1  0.25014560  0.42557497  0.78565852  1  -1.095259  0  -0.276476  -0.430792  0  2.063169  0
O  O80  1  0.70855710  0.59062541  0.81667334  1  -1.093427  0  -0.268852  -0.416471  0  2.166169  0
O  O81  1  0.26666922  0.43438423  0.19492169  1  -1.098634  0  -0.270006  -0.419861  0  2.167483  0
O  O82  1  0.65218974  0.93129191  0.41631551  1  -1.067132  0  -0.24585  -0.362603  0  2.216185  0
O  O83  1  0.26507285  0.00921475  0.54275487  1  -1.072815  0  -0.246592  -0.35964  0  2.161371  0
O  O84  1  0.27700064  0.55116957  0.50157898  1  -1.15946  0  -0.319336  -0.535201  0  2.246047  0
O  O85  1  0.69899564  0.71449645  0.52808455  1  -1.159722  0  -0.315699  -0.530289  0  2.295365  0
O  O86  1  0.33460477  0.32176831  0.46031661  1  -1.16666  0  -0.326984  -0.546757  0  2.375457  0
O  O87  1  0.57400213  0.38665050  0.41936303  1  -1.157099  0  -0.312496  -0.53851  0  2.322332  0
O  O88  1  0.49199506  0.63129566  0.59349447  1  -1.145198  0  -0.315035  -0.53422  0  2.311172  0
O  O89  1  0.48244641  0.60127588  0.44790277  1  -1.178738  0  -0.305427  -0.541153  0  2.46843  0
O  O90  1  0.48987475  0.38053333  0.55999389  1  -1.171538  0  -0.304335  -0.536615  0  2.415414  0
O  O91  1  0.72789733  0.58190792  0.22405174  1  -1.109911  0  -0.275838  -0.430043  0  2.066827  0
