# generated using pymatgen
data_CdH34C26(NO)2
_symmetry_space_group_name_H-M   'P 1'
_cell_length_a   8.36576492
_cell_length_b   13.26976351
_cell_length_c   25.77196656
_cell_angle_alpha   89.99881641
_cell_angle_beta   92.77700973
_cell_angle_gamma   89.99988230
_symmetry_Int_Tables_number   1
_chemical_formula_structural   CdH34C26(NO)2
_chemical_formula_sum   'Cd4 H136 C104 N8 O8'
_cell_volume   2857.63060623
_cell_formula_units_Z   4
loop_
 _symmetry_equiv_pos_site_id
 _symmetry_equiv_pos_as_xyz
  1  'x, y, z'
loop_
 _atom_site_type_symbol
 _atom_site_label
 _atom_site_symmetry_multiplicity
 _atom_site_fract_x
 _atom_site_fract_y
 _atom_site_fract_z
 _atom_site_occupancy
 _atom_site_pbe_bader_charge
 _atom_site_pbe_bader_spin_density
 _atom_site_pbe_cm5_charge
 _atom_site_pbe_ddec_charge
 _atom_site_pbe_ddec_spin_density
 _atom_site_pbe_ddec_sum_bond_order
 _atom_site_pbe_magmom
Cd  Cd0  1  0.21791082  0.67389276  0.26012476  1  0.796381  0  0.532412  0.573826  0  2.170451  0
Cd  Cd1  1  0.78207171  0.17390571  0.23985769  1  0.796461  0  0.532423  0.573746  0  2.170606  0
Cd  Cd2  1  0.78208019  0.32611073  0.73986727  1  0.796414  0  0.532336  0.573649  0  2.170432  0
Cd  Cd3  1  0.21794686  0.82610682  0.76013980  1  0.796368  0  0.532369  0.573637  0  2.170544  0
H  H4  1  0.71951273  0.48462440  0.33973630  1  0.016938  0  0.083687  0.108239  0  1.066853  0
H  H5  1  0.28047686  0.98461845  0.16025388  1  0.017323  0  0.08371  0.108338  0  1.066833  0
H  H6  1  0.28048672  0.51537908  0.66026439  1  0.016941  0  0.08365  0.108222  0  1.067057  0
H  H7  1  0.71953334  0.01538428  0.83974426  1  0.017357  0  0.083734  0.108369  0  1.066984  0
H  H8  1  0.74728743  0.41008986  0.39677087  1  0.044052  0  0.100292  0.143017  0  0.973722  0
H  H9  1  0.25270606  0.91007648  0.10321588  1  0.043592  0  0.100349  0.143107  0  0.973691  0
H  H10  1  0.25273352  0.58991438  0.60322433  1  0.043928  0  0.100234  0.142964  0  0.973677  0
H  H11  1  0.74731134  0.08992851  0.89678431  1  0.043608  0  0.100328  0.143064  0  0.973706  0
H  H12  1  0.68561311  0.35259275  0.33638458  1  0.061904  0  0.091782  0.137308  0  1.021674  0
H  H13  1  0.31436278  0.85257305  0.16361414  1  0.062378  0  0.091753  0.137317  0  1.021623  0
H  H14  1  0.31441393  0.64742204  0.66362429  1  0.061504  0  0.091792  0.137434  0  1.021366  0
H  H15  1  0.68562829  0.14741989  0.83638526  1  0.062407  0  0.091783  0.137361  0  1.02165  0
H  H16  1  0.90842630  0.23073039  0.34595209  1  0.025737  0  0.081247  0.107338  0  1.055314  0
H  H17  1  0.09158850  0.73074154  0.15405896  1  0.025659  0  0.081244  0.107505  0  1.055395  0
H  H18  1  0.09159471  0.76927234  0.65405203  1  0.025742  0  0.081249  0.107503  0  1.05559  0
H  H19  1  0.90842290  0.26926948  0.84593919  1  0.02574  0  0.081238  0.107445  0  1.055424  0
H  H20  1  0.98295878  0.28675499  0.40543868  1  0.022878  0  0.092482  0.132851  0  1.00553  0
H  H21  1  0.01703778  0.78671818  0.09456531  1  0.022913  0  0.092519  0.132973  0  1.005442  0
H  H22  1  0.01705869  0.71327110  0.59457082  1  0.022948  0  0.092566  0.133045  0  1.005809  0
H  H23  1  0.98297238  0.21328003  0.90542624  1  0.023123  0  0.092501  0.132907  0  1.005818  0
H  H24  1  0.11121646  0.27013694  0.35310732  1  0.030237  0  0.087389  0.123023  0  0.998383  0
H  H25  1  0.88877900  0.77012388  0.14689955  1  0.0299  0  0.087509  0.123261  0  0.998507  0
H  H26  1  0.88882727  0.72988388  0.64689288  1  0.030381  0  0.08746  0.123133  0  0.998678  0
H  H27  1  0.11120962  0.22988337  0.85309245  1  0.029956  0  0.08749  0.123239  0  0.998587  0
H  H28  1  0.84334933  0.66746372  0.24484674  1  0.054311  0  0.090571  0.136861  0  1.016808  0
H  H29  1  0.15665112  0.16748071  0.25512673  1  0.055201  0  0.090533  0.136949  0  1.016367  0
H  H30  1  0.15665610  0.33253750  0.75515288  1  0.054282  0  0.090588  0.136903  0  1.016779  0
H  H31  1  0.84334704  0.83251298  0.74486036  1  0.054882  0  0.090572  0.136973  0  1.016242  0
H  H32  1  0.88644286  0.72370762  0.30543142  1  0.053239  0  0.092026  0.143447  0  1.016882  0
H  H33  1  0.11354536  0.22370076  0.19454051  1  0.053051  0  0.092205  0.143663  0  1.016759  0
H  H34  1  0.11353624  0.27630190  0.69456780  1  0.053682  0  0.091968  0.143336  0  1.017008  0
H  H35  1  0.88648874  0.77629292  0.80545333  1  0.053587  0  0.09213  0.143597  0  1.016676  0
H  H36  1  0.76056702  0.61484526  0.30135636  1  -0.005702  0  0.076448  0.101151  0  1.055566  0
H  H37  1  0.23941569  0.11484786  0.19861391  1  -0.006088  0  0.076555  0.101223  0  1.055375  0
H  H38  1  0.23942528  0.38516274  0.69864849  1  -0.005949  0  0.076392  0.101075  0  1.055626  0
H  H39  1  0.76057772  0.88515788  0.80137816  1  -0.006055  0  0.076446  0.101029  0  1.055176  0
H  H40  1  0.54285107  0.68869096  0.25385294  1  0.008858  0  0.060231  0.14934  0  1.095678  0
H  H41  1  0.45714826  0.18871316  0.24614280  1  0.008262  0  0.060182  0.149254  0  1.09573  0
H  H42  1  0.45713879  0.31128314  0.74614489  1  0.008211  0  0.060164  0.149245  0  1.095728  0
H  H43  1  0.54287163  0.81128505  0.75387023  1  0.007746  0  0.060096  0.149085  0  1.095908  0
H  H44  1  0.45145122  0.80408762  0.23311825  1  -0.015449  0  0.06229  0.150708  0  1.090202  0
H  H45  1  0.54857156  0.30409378  0.26688246  1  -0.015884  0  0.062236  0.150686  0  1.090362  0
H  H46  1  0.54855061  0.19589551  0.76688093  1  -0.015853  0  0.062207  0.150573  0  1.090348  0
H  H47  1  0.45144952  0.69590970  0.73312981  1  -0.015737  0  0.062249  0.150554  0  1.090494  0
H  H48  1  0.44911553  0.69822979  0.19039048  1  -0.020792  0  0.057852  0.140032  0  1.08705  0
H  H49  1  0.55092078  0.19822892  0.30959679  1  -0.020371  0  0.057821  0.139938  0  1.087257  0
H  H50  1  0.55089702  0.30175937  0.80960149  1  -0.020448  0  0.057825  0.139918  0  1.087144  0
H  H51  1  0.44912782  0.80176401  0.69041589  1  -0.020045  0  0.057845  0.139947  0  1.087533  0
H  H52  1  0.08536513  0.85758565  0.44487912  1  0.057193  0  0.09502  0.102071  0  1.028283  0
H  H53  1  0.91450057  0.35758862  0.05510937  1  0.056847  0  0.095107  0.102196  0  1.02805  0
H  H54  1  0.91464748  0.14242914  0.55511983  1  0.057153  0  0.095067  0.102176  0  1.028291  0
H  H55  1  0.08541868  0.64243370  0.94488780  1  0.056702  0  0.095103  0.102233  0  1.028287  0
H  H56  1  0.52599133  0.72191386  0.40173658  1  0.044758  0  0.09653  0.107397  0  1.017909  0
H  H57  1  0.47394330  0.22187576  0.09826832  1  0.043953  0  0.096558  0.107501  0  1.017696  0
H  H58  1  0.47399853  0.27810846  0.59826086  1  0.044736  0  0.096506  0.107327  0  1.01799  0
H  H59  1  0.52600124  0.77810587  0.90175018  1  0.044439  0  0.096504  0.10732  0  1.01812  0
H  H60  1  0.85597152  0.72321787  0.44974806  1  0.072527  0  0.097521  0.138006  0  0.978857  0
H  H61  1  0.14394376  0.22323721  0.05023016  1  0.071872  0  0.097564  0.137989  0  0.978898  0
H  H62  1  0.14404472  0.27680219  0.55025677  1  0.072659  0  0.09756  0.138084  0  0.978924  0
H  H63  1  0.85599941  0.77678812  0.94976465  1  0.07191  0  0.097594  0.138145  0  0.978721  0
H  H64  1  0.82788531  0.64666228  0.39374331  1  0.044963  0  0.092991  0.129096  0  1.022484  0
H  H65  1  0.17207696  0.14667553  0.10623253  1  0.044326  0  0.093077  0.129357  0  1.022555  0
H  H66  1  0.17210698  0.35335326  0.60625883  1  0.044716  0  0.092982  0.12915  0  1.022382  0
H  H67  1  0.82789255  0.85334755  0.89376461  1  0.044201  0  0.093047  0.12924  0  1.022527  0
H  H68  1  0.82398433  0.78040480  0.38781900  1  0.040325  0  0.08718  0.117838  0  1.025711  0
H  H69  1  0.17592231  0.28043363  0.11215849  1  0.040489  0  0.08718  0.117897  0  1.025923  0
H  H70  1  0.17602709  0.21960923  0.61218188  1  0.039973  0  0.087203  0.1179  0  1.025904  0
H  H71  1  0.82406754  0.71959020  0.88783857  1  0.040724  0  0.087222  0.117934  0  1.025872  0
H  H72  1  0.34824681  0.95882311  0.44626152  1  0.027862  0  0.08641  0.11522  0  1.029136  0
H  H73  1  0.65162696  0.45879260  0.05374660  1  0.027854  0  0.086181  0.114736  0  1.029369  0
H  H74  1  0.65176937  0.04119244  0.55373632  1  0.027497  0  0.086311  0.115003  0  1.029133  0
H  H75  1  0.34826975  0.54120561  0.94627701  1  0.027759  0  0.086303  0.114905  0  1.029171  0
H  H76  1  0.52880355  0.89377007  0.43388440  1  0.04126  0  0.086938  0.116092  0  1.027385  0
H  H77  1  0.47108343  0.39371596  0.06609200  1  0.041037  0  0.086614  0.11572  0  1.027621  0
H  H78  1  0.47123901  0.10623492  0.56612043  1  0.040877  0  0.086926  0.116054  0  1.027418  0
H  H79  1  0.52881904  0.60624382  0.93390143  1  0.040809  0  0.086846  0.115979  0  1.027607  0
H  H80  1  0.43135247  0.87244679  0.49241232  1  0.057194  0  0.091698  0.127263  0  0.996089  0
H  H81  1  0.56856818  0.37243788  0.00757295  1  0.056853  0  0.091621  0.127102  0  0.996048  0
H  H82  1  0.56863741  0.12755067  0.50758862  1  0.057346  0  0.091692  0.127248  0  0.995921  0
H  H83  1  0.43140615  0.62757013  0.99242853  1  0.056972  0  0.091712  0.127344  0  0.995969  0
H  H84  1  0.41849523  0.49617392  0.38936743  1  0.05552  0  0.102369  0.154923  0  0.962471  0
H  H85  1  0.58152300  0.99614545  0.11061917  1  0.056355  0  0.10244  0.155052  0  0.962151  0
H  H86  1  0.58153160  0.50382655  0.61061389  1  0.055873  0  0.102446  0.155012  0  0.962333  0
H  H87  1  0.41850168  0.00385200  0.88939509  1  0.056217  0  0.102466  0.155003  0  0.962107  0
H  H88  1  0.52059309  0.57673004  0.34653304  1  0.002192  0  0.086055  0.11609  0  1.038857  0
H  H89  1  0.47938400  0.07667159  0.15346354  1  0.002419  0  0.086152  0.116261  0  1.038734  0
H  H90  1  0.47939784  0.42328324  0.65344852  1  0.002464  0  0.086112  0.116251  0  1.03868  0
H  H91  1  0.52063477  0.92330250  0.84656033  1  0.002592  0  0.086115  0.116197  0  1.038695  0
H  H92  1  0.33965560  0.51563607  0.32548073  1  0.036298  0  0.084692  0.107512  0  1.076818  0
H  H93  1  0.66035520  0.01559157  0.17450769  1  0.036466  0  0.084731  0.107599  0  1.076753  0
H  H94  1  0.66031746  0.48439681  0.67451143  1  0.036583  0  0.084649  0.107503  0  1.076753  0
H  H95  1  0.33971253  0.98439533  0.82550257  1  0.036781  0  0.084695  0.107586  0  1.076525  0
H  H96  1  0.83862771  0.56004363  0.09447384  1  0.045907  0  0.098089  0.10143  0  1.007938  0
H  H97  1  0.16138882  0.06006804  0.40550682  1  0.046438  0  0.098066  0.10137  0  1.008225  0
H  H98  1  0.16136325  0.43992670  0.90551121  1  0.045817  0  0.098059  0.101388  0  1.008113  0
H  H99  1  0.83861179  0.93993017  0.59448962  1  0.045623  0  0.098075  0.101425  0  1.008119  0
H  H100  1  0.33287632  0.48831329  0.12894499  1  0.023299  0  0.09726  0.105548  0  1.013688  0
H  H101  1  0.66711335  0.98838560  0.37105717  1  0.023426  0  0.097213  0.105651  0  1.013727  0
H  H102  1  0.66712075  0.51162161  0.87105644  1  0.023357  0  0.097251  0.105611  0  1.01394  0
H  H103  1  0.33290648  0.01161637  0.62894771  1  0.022937  0  0.097308  0.105779  0  1.013786  0
H  H104  1  0.66898949  0.44490982  0.16844364  1  0.037219  0  0.094168  0.134322  0  0.997884  0
H  H105  1  0.33098477  0.94491790  0.33155293  1  0.037683  0  0.094188  0.134305  0  0.997795  0
H  H106  1  0.33100401  0.55509442  0.83156085  1  0.037465  0  0.094155  0.134326  0  0.997699  0
H  H107  1  0.66902308  0.05507503  0.66845177  1  0.037815  0  0.094176  0.134242  0  0.99782  0
H  H108  1  0.65740884  0.57845169  0.17221951  1  0.032701  0  0.091949  0.128866  0  1.007081  0
H  H109  1  0.34259571  0.07845339  0.32777048  1  0.032548  0  0.091978  0.128885  0  1.007066  0
H  H110  1  0.34258344  0.42154200  0.82778225  1  0.032963  0  0.09196  0.12887  0  1.006922  0
H  H111  1  0.65741089  0.92154707  0.67222605  1  0.032364  0  0.092005  0.128949  0  1.007026  0
H  H112  1  0.70964950  0.50634070  0.22860080  1  0.069113  0  0.092519  0.12897  0  1.026926  0
H  H113  1  0.29036373  0.00633649  0.27138775  1  0.069034  0  0.092526  0.128996  0  1.027122  0
H  H114  1  0.29036068  0.49366203  0.77139501  1  0.069187  0  0.092541  0.129003  0  1.02666  0
H  H115  1  0.70962850  0.99365267  0.72860779  1  0.069155  0  0.092588  0.129057  0  1.026801  0
H  H116  1  0.19176394  0.63739373  0.05241798  1  0.027637  0  0.097295  0.138569  0  0.984741  0
H  H117  1  0.80826432  0.13743283  0.44757679  1  0.027275  0  0.097307  0.13849  0  0.985245  0
H  H118  1  0.80821386  0.36255927  0.94756726  1  0.02723  0  0.097188  0.13839  0  0.985199  0
H  H119  1  0.19176148  0.86257141  0.55242779  1  0.027142  0  0.097247  0.138449  0  0.985217  0
H  H120  1  0.02318234  0.57087623  0.02647779  1  0.048166  0  0.090035  0.121277  0  1.024913  0
H  H121  1  0.97681868  0.07091178  0.47351416  1  0.048084  0  0.089976  0.12111  0  1.024853  0
H  H122  1  0.97679911  0.42905189  0.97351565  1  0.048522  0  0.090002  0.121132  0  1.024844  0
H  H123  1  0.02319634  0.92908266  0.52648793  1  0.048349  0  0.089922  0.121035  0  1.024994  0
H  H124  1  0.21205373  0.50934582  0.03464524  1  0.037584  0  0.089322  0.120699  0  1.013924  0
H  H125  1  0.78793553  0.00937896  0.46533904  1  0.037988  0  0.089304  0.120466  0  1.013778  0
H  H126  1  0.78792289  0.49060566  0.96534309  1  0.038144  0  0.089304  0.120477  0  1.01379  0
H  H127  1  0.21208069  0.99061699  0.53466385  1  0.038045  0  0.089318  0.120503  0  1.013684  0
H  H128  1  0.36817977  0.37230053  0.20880503  1  0.067409  0  0.09812  0.145743  0  0.987645  0
H  H129  1  0.63183079  0.87233621  0.29120176  1  0.067688  0  0.098029  0.14554  0  0.987864  0
H  H130  1  0.63180655  0.62768713  0.79119973  1  0.067459  0  0.098125  0.145735  0  0.987712  0
H  H131  1  0.36815197  0.12768084  0.70880644  1  0.067217  0  0.098089  0.145717  0  0.987762  0
H  H132  1  0.26808121  0.40691499  0.26485672  1  0.036286  0  0.094711  0.135347  0  1.013407  0
H  H133  1  0.73191481  0.90692870  0.23514717  1  0.036139  0  0.094631  0.135074  0  1.013424  0
H  H134  1  0.73190630  0.59308472  0.73514807  1  0.035536  0  0.094719  0.135371  0  1.013368  0
H  H135  1  0.26810021  0.09305519  0.76485531  1  0.035747  0  0.094657  0.135203  0  1.013657  0
H  H136  1  0.40593205  0.49147989  0.23739571  1  0.035335  0  0.090485  0.127893  0  1.023  0
H  H137  1  0.59404199  0.99149041  0.26259843  1  0.035204  0  0.090561  0.127915  0  1.022933  0
H  H138  1  0.59404586  0.50851229  0.76260505  1  0.03516  0  0.090501  0.127899  0  1.023014  0
H  H139  1  0.40597178  0.00852136  0.73739627  1  0.035296  0  0.09055  0.127967  0  1.023055  0
C  C140  1  0.01702194  0.58522070  0.29351349  1  0.449957  0  0.051495  0.050042  0  3.791216  0
C  C141  1  0.98295738  0.08522720  0.20646752  1  0.449683  0  0.051578  0.049994  0  3.791601  0
C  C142  1  0.98297873  0.41479031  0.70649072  1  0.449694  0  0.051452  0.050295  0  3.790502  0
C  C143  1  0.01704805  0.91477176  0.79353366  1  0.448928  0  0.05158  0.050028  0  3.791402  0
C  C144  1  0.03806253  0.47360064  0.37332330  1  1.370151  0  0.231407  0.419755  0  4.05915  0
C  C145  1  0.96192950  0.97360338  0.12666664  1  1.370128  0  0.231335  0.419947  0  4.059188  0
C  C146  1  0.96194161  0.52641264  0.62666427  1  1.369899  0  0.231436  0.420211  0  4.060296  0
C  C147  1  0.03807712  0.02641141  0.87333222  1  1.369943  0  0.231267  0.41986  0  4.059711  0
C  C148  1  0.93859363  0.39322691  0.34334260  1  -0.003062  0  -0.010718  0.019903  0  3.859509  0
C  C149  1  0.06139759  0.89323649  0.15665127  1  -0.002693  0  -0.010443  0.020177  0  3.859299  0
C  C150  1  0.06142738  0.60675999  0.65666075  1  -0.003081  0  -0.010666  0.020068  0  3.85885  0
C  C151  1  0.93860662  0.10676172  0.84334639  1  -0.002969  0  -0.010549  0.02042  0  3.858916  0
C  C152  1  0.95871705  0.39927040  0.28498874  1  1.366683  0  0.241794  0.427338  0  4.02434  0
C  C153  1  0.04126573  0.89926933  0.21500029  1  1.366513  0  0.24167  0.426918  0  4.024165  0
C  C154  1  0.04126208  0.60074891  0.71501398  1  1.36747  0  0.24207  0.427809  0  4.023961  0
C  C155  1  0.95873611  0.10073189  0.78500005  1  1.366227  0  0.241917  0.427421  0  4.024044  0
C  C156  1  0.76113881  0.41147808  0.35461662  1  -0.067178  0  -0.235812  -0.391772  0  3.863252  0
C  C157  1  0.23886668  0.91147279  0.14537533  1  -0.0677  0  -0.235881  -0.391929  0  3.863024  0
C  C158  1  0.23887860  0.58852767  0.64538473  1  -0.066593  0  -0.235761  -0.391987  0  3.863403  0
C  C159  1  0.76113397  0.08852617  0.85462538  1  -0.067717  0  -0.235899  -0.392039  0  3.86299  0
C  C160  1  0.98848724  0.28845897  0.36306381  1  -0.010418  0  -0.245568  -0.399619  0  3.94918  0
C  C161  1  0.01150092  0.78843627  0.13693887  1  -0.010271  0  -0.245802  -0.400238  0  3.949271  0
C  C162  1  0.01153854  0.71156486  0.63693767  1  -0.010853  0  -0.245877  -0.400322  0  3.949743  0
C  C163  1  0.98849969  0.21155893  0.86305641  1  -0.010587  0  -0.245789  -0.400265  0  3.949795  0
C  C164  1  0.86749023  0.65089286  0.28614837  1  -0.072526  0  -0.260266  -0.446612  0  3.997423  0
C  C165  1  0.13248999  0.15089198  0.21383002  1  -0.072724  0  -0.260648  -0.44714  0  3.997301  0
C  C166  1  0.13249967  0.34911891  0.71385528  1  -0.072452  0  -0.260211  -0.446605  0  3.997742  0
C  C167  1  0.86752616  0.84911075  0.78616200  1  -0.072868  0  -0.260437  -0.446883  0  3.996772  0
C  C168  1  0.44199973  0.72183225  0.23107728  1  -0.318904  0  -0.420523  -0.753223  0  3.836028  0
C  C169  1  0.55801018  0.22184283  0.26891323  1  -0.318257  0  -0.420418  -0.752959  0  3.836285  0
C  C170  1  0.55799848  0.27814787  0.76891680  1  -0.318227  0  -0.420346  -0.752836  0  3.835951  0
C  C171  1  0.44202047  0.77815538  0.73109802  1  -0.318188  0  -0.420353  -0.752636  0  3.83672  0
C  C172  1  0.14282793  0.64239627  0.37713103  1  0.238448  0  0.078158  0.04917  0  3.958889  0
C  C173  1  0.85713455  0.14241163  0.12287086  1  0.237704  0  0.077995  0.048818  0  3.958606  0
C  C174  1  0.85718473  0.35759667  0.62287530  1  0.238303  0  0.07792  0.048892  0  3.959201  0
C  C175  1  0.14286020  0.85759487  0.87714102  1  0.238081  0  0.078123  0.049065  0  3.958622  0
C  C176  1  0.06052163  0.71843559  0.40286238  1  0.044887  0  -0.001796  0.125703  0  3.946613  0
C  C177  1  0.93941403  0.21845188  0.09711852  1  0.047039  0  -0.00173  0.125775  0  3.946404  0
C  C178  1  0.93948138  0.28156940  0.59713487  1  0.044635  0  -0.001755  0.125739  0  3.947048  0
C  C179  1  0.06056265  0.78155763  0.90287757  1  0.046598  0  -0.00174  0.125765  0  3.946736  0
C  C180  1  0.14975492  0.79757814  0.42582001  1  -0.028343  0  -0.099363  -0.210916  0  3.935089  0
C  C181  1  0.85016004  0.29756686  0.07415936  1  -0.027915  0  -0.099633  -0.211212  0  3.935295  0
C  C182  1  0.85025647  0.20243740  0.57417698  1  -0.028067  0  -0.099381  -0.211103  0  3.9353  0
C  C183  1  0.14978673  0.70243587  0.92583705  1  -0.027287  0  -0.099543  -0.211234  0  3.935795  0
C  C184  1  0.31643926  0.80175596  0.42490333  1  -0.03624  0  -0.016074  0.171076  0  4.031844  0
C  C185  1  0.68346037  0.30174789  0.07510914  1  -0.034799  0  -0.015726  0.171474  0  4.031115  0
C  C186  1  0.68356751  0.19824074  0.57511610  1  -0.035484  0  -0.016167  0.171224  0  4.031435  0
C  C187  1  0.31648410  0.69825031  0.92489966  1  -0.035772  0  -0.016001  0.171263  0  4.031321  0
C  C188  1  0.39530884  0.72212346  0.40142352  1  -0.040288  0  -0.104419  -0.219328  0  3.954843  0
C  C189  1  0.60461734  0.22208516  0.09857233  1  -0.040191  0  -0.104619  -0.219797  0  3.954505  0
C  C190  1  0.60467146  0.27789434  0.59857689  1  -0.040203  0  -0.104352  -0.219282  0  3.954283  0
C  C191  1  0.39534740  0.77789421  0.90142668  1  -0.039756  0  -0.104449  -0.219385  0  3.954544  0
C  C192  1  0.31155453  0.64142700  0.37825949  1  0.032032  0  -0.014417  0.097779  0  4.028817  0
C  C193  1  0.68841497  0.14139593  0.12172156  1  0.031091  0  -0.014272  0.098404  0  4.028995  0
C  C194  1  0.68844605  0.35859984  0.62173268  1  0.031928  0  -0.014287  0.098006  0  4.028627  0
C  C195  1  0.31157967  0.85860529  0.87827596  1  0.030871  0  -0.01433  0.098125  0  4.029  0
C  C196  1  0.88224816  0.71666017  0.40850322  1  -0.109488  0  -0.237544  -0.400855  0  3.962723  0
C  C197  1  0.11771857  0.21668164  0.09147079  1  -0.108976  0  -0.237679  -0.401094  0  3.962553  0
C  C198  1  0.11777164  0.28335084  0.59149856  1  -0.108972  0  -0.2376  -0.400994  0  3.962607  0
C  C199  1  0.88225690  0.78334747  0.90852295  1  -0.109497  0  -0.237755  -0.401212  0  3.962418  0
C  C200  1  0.41093090  0.88635070  0.45049735  1  -0.102377  0  -0.237575  -0.407331  0  3.979553  0
C  C201  1  0.58897176  0.38632196  0.04949061  1  -0.102762  0  -0.237041  -0.406348  0  3.97918  0
C  C202  1  0.58908892  0.11366861  0.54950675  1  -0.10221  0  -0.237533  -0.407214  0  3.979556  0
C  C203  1  0.41097148  0.61366419  0.95051467  1  -0.102349  0  -0.23739  -0.406959  0  3.979123  0
C  C204  1  0.40232892  0.55302185  0.35843781  1  -0.036193  0  -0.243425  -0.413533  0  3.984447  0
C  C205  1  0.59767813  0.05300818  0.14155132  1  -0.03731  0  -0.243621  -0.414125  0  3.98488  0
C  C206  1  0.59767522  0.44698993  0.64155015  1  -0.037311  0  -0.243472  -0.413771  0  3.984624  0
C  C207  1  0.40235016  0.94698551  0.85846533  1  -0.037406  0  -0.243511  -0.41383  0  3.984565  0
C  C208  1  0.02323321  0.49433534  0.20962810  1  0.292825  0  0.077329  0.044054  0  3.960551  0
C  C209  1  0.97676708  0.99436604  0.29035903  1  0.29218  0  0.077312  0.044202  0  3.960122  0
C  C210  1  0.97678659  0.50565534  0.79037368  1  0.292739  0  0.077381  0.044215  0  3.960944  0
C  C211  1  0.02322400  0.00563142  0.70964231  1  0.291571  0  0.077211  0.04418  0  3.960322  0
C  C212  1  0.89702636  0.51664783  0.17345448  1  0.018896  0  -0.003487  0.118807  0  3.966627  0
C  C213  1  0.10297368  0.01666651  0.32653492  1  0.0202  0  -0.003417  0.118949  0  3.96647  0
C  C214  1  0.10297069  0.48334585  0.82654501  1  0.019247  0  -0.003544  0.118763  0  3.967603  0
C  C215  1  0.89704010  0.98333848  0.67346094  1  0.020632  0  -0.003522  0.118907  0  3.966867  0
C  C216  1  0.93502792  0.53803280  0.12228809  1  -0.092564  0  -0.095818  -0.208022  0  3.952095  0
C  C217  1  0.06498517  0.03805246  0.37769896  1  -0.094082  0  -0.095892  -0.208218  0  3.952085  0
C  C218  1  0.06495351  0.46195712  0.87770303  1  -0.092404  0  -0.09594  -0.20819  0  3.952524  0
C  C219  1  0.93503458  0.96194349  0.62229544  1  -0.092335  0  -0.095907  -0.208287  0  3.951743  0
C  C220  1  0.09145686  0.53307585  0.10596959  1  0.082558  0  -0.012763  0.173484  0  4.035726  0
C  C221  1  0.90852996  0.03312152  0.39402255  1  0.083508  0  -0.012612  0.173505  0  4.035443  0
C  C222  1  0.90850903  0.46688694  0.89402400  1  0.082922  0  -0.012789  0.17316  0  4.035801  0
C  C223  1  0.09149345  0.96688121  0.60598122  1  0.083362  0  -0.012676  0.173425  0  4.035557  0
C  C224  1  0.21102559  0.49882349  0.14146454  1  -0.082544  0  -0.103517  -0.222168  0  3.96366  0
C  C225  1  0.78895200  0.99885167  0.35852842  1  -0.084354  0  -0.103701  -0.222568  0  3.963114  0
C  C226  1  0.78894392  0.50114835  0.85853261  1  -0.082717  0  -0.103512  -0.222052  0  3.963694  0
C  C227  1  0.21107379  0.00115483  0.64147422  1  -0.083059  0  -0.103665  -0.2225  0  3.963392  0
C  C228  1  0.17968116  0.47812578  0.19316113  1  -0.003033  0  -0.014742  0.093796  0  4.026412  0
C  C229  1  0.82031325  0.97815904  0.30682841  1  -0.002955  0  -0.014474  0.093806  0  4.025906  0
C  C230  1  0.82031946  0.52186640  0.80683454  1  -0.002884  0  -0.014795  0.093377  0  4.025711  0
C  C231  1  0.17967902  0.02184896  0.69317179  1  -0.003672  0  -0.014555  0.09364  0  4.02581  0
C  C232  1  0.72428820  0.51218867  0.18676328  1  -0.069509  0  -0.238093  -0.404075  0  3.955661  0
C  C233  1  0.27571185  0.01219483  0.31322540  1  -0.069577  0  -0.238149  -0.404037  0  3.95559  0
C  C234  1  0.27569568  0.48780953  0.81323602  1  -0.070084  0  -0.237956  -0.403916  0  3.955168  0
C  C235  1  0.72432946  0.98779508  0.68677127  1  -0.070147  0  -0.238175  -0.404112  0  3.955856  0
C  C236  1  0.13120049  0.56372102  0.05203777  1  -0.080292  0  -0.237123  -0.416706  0  3.975329  0
C  C237  1  0.86880413  0.06376153  0.44795199  1  -0.080897  0  -0.237014  -0.415971  0  3.975641  0
C  C238  1  0.86878215  0.43622519  0.94795375  1  -0.08143  0  -0.236831  -0.415811  0  3.975182  0
C  C239  1  0.13120851  0.93623894  0.55205240  1  -0.081088  0  -0.236873  -0.415859  0  3.975587  0
C  C240  1  0.31158326  0.43558691  0.22831004  1  -0.079329  0  -0.24329  -0.419664  0  3.969021  0
C  C241  1  0.68841741  0.93561878  0.27169168  1  -0.077924  0  -0.243311  -0.419209  0  3.969193  0
C  C242  1  0.68838627  0.56440678  0.77168944  1  -0.078585  0  -0.243271  -0.419471  0  3.968639  0
C  C243  1  0.31159404  0.06438772  0.72831307  1  -0.077301  0  -0.243342  -0.419476  0  3.969271  0
N  N244  1  0.05680584  0.56403907  0.34878407  1  -1.180137  0  -0.270372  -0.20153  0  3.70194  0
N  N245  1  0.94319159  0.06404637  0.15120480  1  -1.179587  0  -0.270189  -0.201459  0  3.702106  0
N  N246  1  0.94320791  0.43597421  0.65120753  1  -1.178643  0  -0.270281  -0.201733  0  3.701555  0
N  N247  1  0.05683422  0.93596691  0.84880094  1  -1.178969  0  -0.270405  -0.201767  0  3.702438  0
N  N248  1  0.99582385  0.48959569  0.26450678  1  -1.180497  0  -0.262318  -0.186341  0  3.724062  0
N  N249  1  0.00418482  0.98960514  0.23547665  1  -1.179973  0  -0.262367  -0.186152  0  3.723384  0
N  N250  1  0.00417203  0.51041910  0.73549619  1  -1.181308  0  -0.262438  -0.186646  0  3.723926  0
N  N251  1  0.99583617  0.01039834  0.76452476  1  -1.179871  0  -0.262271  -0.18625  0  3.72346  0
O  O252  1  0.09333679  0.45775389  0.41797906  1  -1.135419  0  -0.313096  -0.474412  0  2.067019  0
O  O253  1  0.90668642  0.95773140  0.08201074  1  -1.136057  0  -0.31318  -0.474634  0  2.066921  0
O  O254  1  0.90669018  0.54227069  0.58202166  1  -1.13614  0  -0.312982  -0.474492  0  2.068262  0
O  O255  1  0.09335248  0.04227736  0.91798551  1  -1.136128  0  -0.313065  -0.474567  0  2.067118  0
O  O256  1  0.94677291  0.32295690  0.25634394  1  -1.181562  0  -0.308115  -0.48213  0  2.303754  0
O  O257  1  0.05320671  0.82296218  0.24365670  1  -1.181375  0  -0.30813  -0.482044  0  2.303453  0
O  O258  1  0.05325048  0.67703830  0.74365750  1  -1.181596  0  -0.308196  -0.482224  0  2.304044  0
O  O259  1  0.94676401  0.17702925  0.75634202  1  -1.180995  0  -0.308218  -0.482269  0  2.303519  0
