# generated using pymatgen
data_Zn3H32C50(N7O9)2
_symmetry_space_group_name_H-M   'P 1'
_cell_length_a   7.85826397
_cell_length_b   8.78987398
_cell_length_c   18.14202633
_cell_angle_alpha   84.54733318
_cell_angle_beta   84.34094489
_cell_angle_gamma   81.64150337
_symmetry_Int_Tables_number   1
_chemical_formula_structural   Zn3H32C50(N7O9)2
_chemical_formula_sum   'Zn3 H32 C50 N14 O18'
_cell_volume   1229.62320574
_cell_formula_units_Z   1
loop_
 _symmetry_equiv_pos_site_id
 _symmetry_equiv_pos_as_xyz
  1  'x, y, z'
loop_
 _atom_site_type_symbol
 _atom_site_label
 _atom_site_symmetry_multiplicity
 _atom_site_fract_x
 _atom_site_fract_y
 _atom_site_fract_z
 _atom_site_occupancy
 _atom_site_hle17_bader_spin_density
 _atom_site_hle17_ddec_charge
 _atom_site_hle17_ddec_spin_density
 _atom_site_hle17_ddec_sum_bond_order
 _atom_site_hle17_magmom
 _atom_site_hse06_10hf_bader_spin_density
 _atom_site_hse06_10hf_ddec_charge
 _atom_site_hse06_10hf_ddec_spin_density
 _atom_site_hse06_10hf_ddec_sum_bond_order
 _atom_site_hse06_10hf_magmom
 _atom_site_hse06_bader_spin_density
 _atom_site_hse06_ddec_charge
 _atom_site_hse06_ddec_spin_density
 _atom_site_hse06_ddec_sum_bond_order
 _atom_site_hse06_magmom
 _atom_site_pbe_bader_spin_density
 _atom_site_pbe_cm5_charge
 _atom_site_pbe_ddec_charge
 _atom_site_pbe_ddec_spin_density
 _atom_site_pbe_ddec_sum_bond_order
 _atom_site_pbe_magmom
Zn  Zn0  1  0.52280347  0.25143479  0.41850917  1  0  1.108144  0  1.738903  0  0  0.928405  0  2.200928  0  0  0.976306  0  2.143655  0  0  0.709712  0.894292  0  2.24081  0
Zn  Zn1  1  0.47719514  0.74856437  0.58149080  1  0  1.108146  0  1.738862  0  0  0.928414  0  2.200883  0  0  0.976314  0  2.143611  0  0  0.709711  0.894301  0  2.24077  0
Zn  Zn2  1  0.00000019  0.00000023  0.49999965  1  0  1.150566  0  1.779464  0  0  0.988834  0  2.227099  0  0  1.031219  0  2.173188  0  0  0.709302  0.958991  0  2.264517  0
H  H3  1  0.99341134  0.29844123  0.51174833  1  0  0.429665  0  0.87618  0  0  0.395483  0  0.945948  0  0  0.406257  0  0.930262  0  0  0.292539  0.387883  0  0.957013  0
H  H4  1  0.00658693  0.70156024  0.48825099  1  0  0.429704  0  0.876129  0  0  0.395519  0  0.945902  0  0  0.406292  0  0.930216  0  0  0.292531  0.387919  0  0.956966  0
H  H5  1  0.16235245  0.27154886  0.45556235  1  0  0.42202  0  0.882323  0  0  0.388406  0  0.951176  0  0  0.399868  0  0.934301  0  0  0.288822  0.38006  0  0.963557  0
H  H6  1  0.83764599  0.72845146  0.54443758  1  0  0.42211  0  0.882205  0  0  0.388508  0  0.951037  0  0  0.399969  0  0.934163  0  0  0.288854  0.380162  0  0.963417  0
H  H7  1  0.39186018  0.66709932  0.75143001  1  0  0.127708  0  0.956155  0  0  0.136263  0  1.019131  0  0  0.140066  0  1.013879  0  0  0.145866  0.13325  0  1.023219  0
H  H8  1  0.60813860  0.33289869  0.24857166  1  0  0.127734  0  0.956134  0  0  0.136283  0  1.0191  0  0  0.140086  0  1.013851  0  0  0.145874  0.13327  0  1.023187  0
H  H9  1  0.97329572  0.16228359  0.91848523  1  0  0.088961  0  0.977721  0  0  0.097221  0  1.043962  0  0  0.099026  0  1.044728  0  0  0.098731  0.097083  0  1.040908  0
H  H10  1  0.02670853  0.83771210  0.08151521  1  0  0.088978  0  0.977691  0  0  0.097239  0  1.043936  0  0  0.099042  0  1.044705  0  0  0.09873  0.097101  0  1.04088  0
H  H11  1  0.10741252  0.19741636  0.33413556  1  0  0.118708  0  0.92962  0  0  0.127535  0  0.99355  0  0  0.130478  0  0.990239  0  0  0.145748  0.125332  0  0.996021  0
H  H12  1  0.89258703  0.80258510  0.66586371  1  0  0.118691  0  0.929647  0  0  0.127515  0  0.993577  0  0  0.130457  0  0.990267  0  0  0.145745  0.1253  0  0.996062  0
H  H13  1  0.44300505  0.94740967  0.19102046  1  0  0.131524  0  0.938362  0  0  0.137817  0  1.001168  0  0  0.142617  0  0.996575  0  0  0.120128  0.134039  0  1.005159  0
H  H14  1  0.55699850  0.05259063  0.80897924  1  0  0.131549  0  0.938335  0  0  0.137809  0  1.001173  0  0  0.14261  0  0.996579  0  0  0.120111  0.13403  0  1.005163  0
H  H15  1  0.27455391  0.50420552  0.25465551  1  0  0.130132  0  0.931623  0  0  0.134957  0  0.998507  0  0  0.139627  0  0.99397  0  0  0.118583  0.131443  0  1.002252  0
H  H16  1  0.72544453  0.49579480  0.74534497  1  0  0.130247  0  0.931558  0  0  0.13505  0  0.998465  0  0  0.139718  0  0.993926  0  0  0.118599  0.131534  0  1.002211  0
H  H17  1  0.27338514  0.47991774  0.99583764  1  0  0.101069  0  0.956129  0  0  0.10851  0  1.02203  0  0  0.112101  0  1.018998  0  0  0.103842  0.105795  0  1.02465  0
H  H18  1  0.72662294  0.52007792  0.00416043  1  0  0.101047  0  0.95614  0  0  0.108524  0  1.022006  0  0  0.112116  0  1.018971  0  0  0.103824  0.105804  0  1.024634  0
H  H19  1  0.03382613  0.27055661  0.78937168  1  0  0.104272  0  0.997127  0  0  0.103664  0  1.07781  0  0  0.107106  0  1.075805  0  0  0.101429  0.10103  0  1.079659  0
H  H20  1  0.96617358  0.72944371  0.21062819  1  0  0.104284  0  0.997094  0  0  0.103678  0  1.077771  0  0  0.107122  0  1.075763  0  0  0.101433  0.101043  0  1.079621  0
H  H21  1  0.18183121  0.50983500  0.57289399  1  0  0.121626  0  0.954628  0  0  0.127297  0  1.016489  0  0  0.130739  0  1.012926  0  0  0.140467  0.124611  0  1.019342  0
H  H22  1  0.81817090  0.49016646  0.42710628  1  0  0.121634  0  0.954599  0  0  0.127281  0  1.01649  0  0  0.130723  0  1.012928  0  0  0.140453  0.124595  0  1.019344  0
H  H23  1  0.33190892  0.58668294  0.86828127  1  0  0.102554  0  0.954656  0  0  0.116419  0  1.010093  0  0  0.118641  0  1.009749  0  0  0.107234  0.114997  0  1.009743  0
H  H24  1  0.66809097  0.41331622  0.13171755  1  0  0.102554  0  0.954663  0  0  0.116443  0  1.010064  0  0  0.118664  0  1.00972  0  0  0.107239  0.115019  0  1.009712  0
H  H25  1  0.78481434  0.05915122  0.15520945  1  0  0.118578  0  0.940114  0  0  0.128723  0  0.998516  0  0  0.132081  0  0.996622  0  0  0.112503  0.126607  0  0.99887  0
H  H26  1  0.21518520  0.94085024  0.84478928  1  0  0.118537  0  0.940149  0  0  0.128698  0  0.998532  0  0  0.132058  0  0.996635  0  0  0.112479  0.126582  0  0.998887  0
H  H27  1  0.80954971  0.83465930  0.38530037  1  0  0.111772  0  0.931589  0  0  0.118843  0  0.993515  0  0  0.121501  0  0.990632  0  0  0.139667  0.1168  0  0.995793  0
H  H28  1  0.19044727  0.16534218  0.61469901  1  0  0.111877  0  0.931533  0  0  0.118881  0  0.993531  0  0  0.121537  0  0.990648  0  0  0.1397  0.116836  0  0.995811  0
H  H29  1  0.30855342  0.31336286  0.08508373  1  0  0.102539  0  0.949878  0  0  0.116467  0  1.003174  0  0  0.119211  0  1.001343  0  0  0.106927  0.114373  0  1.004788  0
H  H30  1  0.69145065  0.68663398  0.91491611  1  0  0.102529  0  0.94992  0  0  0.116473  0  1.003191  0  0  0.119216  0  1.00136  0  0  0.10692  0.114379  0  1.004805  0
H  H31  1  0.24907030  0.20996522  0.21361111  1  0  0.11493  0  0.987883  0  0  0.124019  0  1.050992  0  0  0.127309  0  1.049133  0  0  0.104458  0.121525  0  1.052574  0
H  H32  1  0.75092780  0.79003741  0.78638927  1  0  0.114934  0  0.987885  0  0  0.124028  0  1.050984  0  0  0.127319  0  1.049125  0  0  0.104462  0.121533  0  1.052568  0
H  H33  1  0.84453464  0.16412941  0.02508035  1  0  0.101119  0  0.94906  0  0  0.11205  0  1.008125  0  0  0.115256  0  1.006076  0  0  0.105056  0.109535  0  1.009528  0
H  H34  1  0.15546729  0.83587320  0.97491822  1  0  0.101125  0  0.949059  0  0  0.112079  0  1.008084  0  0  0.115286  0  1.006033  0  0  0.10506  0.10956  0  1.009492  0
C  C35  1  0.37205226  0.79164602  0.44646253  1  0  0.68192  0  3.886971  0  0  0.623919  0  4.19155  0  0  0.660032  0  4.180725  0  0  0.215804  0.598875  0  4.198615  0
C  C36  1  0.62794745  0.20835429  0.55353734  1  0  0.681967  0  3.886907  0  0  0.62393  0  4.191518  0  0  0.660047  0  4.180686  0  0  0.215804  0.598887  0  4.198582  0
C  C37  1  0.36069528  0.77434049  0.36493447  1  0  -0.00882  0  3.587384  0  0  -0.00991  0  3.824244  0  0  -0.008187  0  3.841112  0  0  0.02161  -0.010735  0  3.812661  0
C  C38  1  0.63930444  0.22565983  0.63506595  1  0  -0.008859  0  3.587551  0  0  -0.009933  0  3.824399  0  0  -0.008212  0  3.841269  0  0  0.021591  -0.010759  0  3.812816  0
C  C39  1  0.30961995  0.63714576  0.34468376  1  0  -0.075286  0  3.693464  0  0  -0.061509  0  3.939107  0  0  -0.070244  0  3.96011  0  0  -0.007444  -0.055505  0  3.92469  0
C  C40  1  0.69037849  0.36285457  0.65531672  1  0  -0.075351  0  3.693586  0  0  -0.061576  0  3.939198  0  0  -0.070314  0  3.960204  0  0  -0.007432  -0.055571  0  3.924781  0
C  C41  1  0.41013145  0.88565042  0.30862635  1  0  -0.065809  0  3.683374  0  0  -0.050866  0  3.926557  0  0  -0.05976  0  3.947601  0  0  -0.007831  -0.045021  0  3.912312  0
C  C42  1  0.58986938  0.11435105  0.69137341  1  0  -0.065848  0  3.683338  0  0  -0.050897  0  3.926503  0  0  -0.059788  0  3.947544  0  0  -0.007833  -0.045053  0  3.91226  0
C  C43  1  0.24821764  0.51790760  0.40269029  1  0  0.674892  0  3.866232  0  0  0.615621  0  4.168669  0  0  0.649557  0  4.160891  0  0  0.222034  0.592413  0  4.173142  0
C  C44  1  0.75178208  0.48209271  0.59731068  1  0  0.674933  0  3.866154  0  0  0.615698  0  4.168536  0  0  0.649636  0  4.160755  0  0  0.222052  0.592488  0  4.173014  0
C  C45  1  0.08192712  0.24730924  0.04463782  1  0  0.050575  0  3.772695  0  0  0.064421  0  4.003585  0  0  0.063999  0  4.028963  0  0  -0.003732  0.064344  0  3.986391  0
C  C46  1  0.91807823  0.75268759  0.95536142  1  0  0.050512  0  3.772721  0  0  0.064289  0  4.003722  0  0  0.063868  0  4.029099  0  0  -0.003835  0.064212  0  3.986527  0
C  C47  1  0.31885432  0.60418650  0.71996992  1  0  0.170458  0  3.625418  0  0  0.088788  0  3.897649  0  0  0.104114  0  3.907643  0  0  0.161785  0.079343  0  3.890876  0
C  C48  1  0.68114668  0.39581382  0.28003100  1  0  0.170453  0  3.625381  0  0  0.088812  0  3.897591  0  0  0.104138  0  3.907582  0  0  0.161796  0.079367  0  3.890819  0
C  C49  1  0.18288561  0.43667560  0.82092568  1  0  0.15305  0  3.783609  0  0  0.133075  0  4.033758  0  0  0.13663  0  4.058074  0  0  0.089965  0.131304  0  4.016581  0
C  C50  1  0.81711190  0.56332241  0.17907440  1  0  0.153112  0  3.783609  0  0  0.133117  0  4.033774  0  0  0.136671  0  4.05809  0  0  0.089958  0.131346  0  4.016594  0
C  C51  1  0.11837876  0.31181945  0.96759316  1  0  0.052023  0  3.767033  0  0  0.065246  0  3.999201  0  0  0.064365  0  4.024397  0  0  -0.004798  0.066249  0  3.981657  0
C  C52  1  0.88162531  0.68817739  0.03240614  1  0  0.052127  0  3.766967  0  0  0.065336  0  3.999192  0  0  0.064453  0  4.02439  0  0  -0.004779  0.066337  0  3.981648  0
C  C53  1  0.05016972  0.25681669  0.90811438  1  0  -0.092134  0  3.73168  0  0  -0.111611  0  3.979352  0  0  -0.11427  0  4.002197  0  0  -0.088728  -0.108879  0  3.960598  0
C  C54  1  0.94983307  0.74318015  0.09188552  1  0  -0.092256  0  3.731736  0  0  -0.111726  0  3.979412  0  0  -0.114387  0  4.002264  0  0  -0.088764  -0.108993  0  3.96066  0
C  C55  1  0.35828862  0.72376569  0.21557354  1  0  0.060975  0  3.713265  0  0  0.054279  0  3.977326  0  0  0.050397  0  3.998304  0  0  0.073081  0.056683  0  3.963423  0
C  C56  1  0.64171237  0.27623462  0.78442572  1  0  0.061029  0  3.713289  0  0  0.05434  0  3.977319  0  0  0.05046  0  3.998298  0  0  0.073092  0.056744  0  3.963417  0
C  C57  1  0.02931897  0.10670291  0.33020100  1  0  0.176296  0  3.615782  0  0  0.099431  0  3.885098  0  0  0.113542  0  3.896642  0  0  0.163028  0.09063  0  3.877022  0
C  C58  1  0.97067929  0.89329857  0.66979888  1  0  0.176318  0  3.615794  0  0  0.099468  0  3.885118  0  0  0.11358  0  3.896664  0  0  0.163046  0.090676  0  3.877048  0
C  C59  1  0.40652824  0.86029054  0.23396731  1  0  -0.072491  0  3.678226  0  0  -0.115908  0  3.94132  0  0  -0.110895  0  3.955684  0  0  -0.065053  -0.119298  0  3.932331  0
C  C60  1  0.59347276  0.13970977  0.76603251  1  0  -0.072578  0  3.678257  0  0  -0.115961  0  3.941333  0  0  -0.110951  0  3.955697  0  0  -0.065092  -0.119353  0  3.932351  0
C  C61  1  0.01041471  0.13154080  0.19216354  1  0  0.153176  0  3.800911  0  0  0.130411  0  4.059055  0  0  0.134487  0  4.082756  0  0  0.089632  0.12755  0  4.043156  0
C  C62  1  0.98958501  0.86845951  0.80783577  1  0  0.15312  0  3.800939  0  0  0.130361  0  4.059083  0  0  0.134438  0  4.082785  0  0  0.08961  0.127501  0  4.043186  0
C  C63  1  0.31140649  0.61080857  0.26993192  1  0  -0.08252  0  3.692491  0  0  -0.124265  0  3.960582  0  0  -0.119231  0  3.974208  0  0  -0.067713  -0.127745  0  3.951985  0
C  C64  1  0.68859417  0.38919404  0.73006781  1  0  -0.082589  0  3.692499  0  0  -0.124336  0  3.960595  0  0  -0.1193  0  3.974222  0  0  -0.06771  -0.127814  0  3.952  0
C  C65  1  0.22115007  0.43122289  0.95126285  1  0  -0.080603  0  3.713342  0  0  -0.100608  0  3.965452  0  0  -0.10264  0  3.986762  0  0  -0.083095  -0.099621  0  3.950682  0
C  C66  1  0.77885511  0.56877509  0.04873634  1  0  -0.080596  0  3.71329  0  0  -0.100617  0  3.965385  0  0  -0.102648  0  3.986696  0  0  -0.083059  -0.09963  0  3.95062  0
C  C67  1  0.08166245  0.31756652  0.83536160  1  0  -0.130082  0  3.745555  0  0  -0.153762  0  4.008963  0  0  -0.157283  0  4.029387  0  0  -0.09316  -0.152108  0  3.994885  0
C  C68  1  0.91833616  0.68243264  0.16463782  1  0  -0.130036  0  3.74553  0  0  -0.15372  0  4.008952  0  0  -0.15724  0  4.029375  0  0  -0.093134  -0.152066  0  3.994873  0
C  C69  1  0.20926394  0.52416316  0.62925288  1  0  0.217381  0  3.654496  0  0  0.16405  0  3.945046  0  0  0.176467  0  3.955516  0  0  0.155551  0.155898  0  3.938048  0
C  C70  1  0.79073817  0.47583830  0.37074793  1  0  0.217405  0  3.654437  0  0  0.164103  0  3.944983  0  0  0.176519  0  3.955452  0  0  0.155574  0.155949  0  3.937987  0
C  C71  1  0.25346394  0.49342932  0.87878796  1  0  -0.148173  0  3.779988  0  0  -0.173096  0  4.043455  0  0  -0.177892  0  4.068195  0  0  -0.095096  -0.169225  0  4.024662  0
C  C72  1  0.74653723  0.50656983  0.12121190  1  0  -0.148232  0  3.779986  0  0  -0.173166  0  4.043461  0  0  -0.177963  0  4.068203  0  0  -0.095122  -0.169289  0  4.024661  0
C  C73  1  0.89878180  0.11560136  0.13881161  1  0  -0.140494  0  3.750721  0  0  -0.16354  0  4.01337  0  0  -0.166602  0  4.033078  0  0  -0.088617  -0.160445  0  3.996292  0
C  C74  1  0.10121920  0.88439894  0.86118710  1  0  -0.140409  0  3.750659  0  0  -0.163466  0  4.013287  0  0  -0.166529  0  4.032996  0  0  -0.08857  -0.160371  0  3.996206  0
C  C75  1  0.87661949  0.92244010  0.35394343  1  0  0.219941  0  3.673526  0  0  0.165556  0  3.964352  0  0  0.177172  0  3.97601  0  0  0.154429  0.15815  0  3.956385  0
C  C76  1  0.12337750  0.07756138  0.64605595  1  0  0.219851  0  3.673611  0  0  0.165516  0  3.96444  0  0  0.177135  0  3.976097  0  0  0.154358  0.15811  0  3.956472  0
C  C77  1  0.19175409  0.26036589  0.09968926  1  0  -0.071402  0  3.708937  0  0  -0.090539  0  3.951221  0  0  -0.092132  0  3.972163  0  0  -0.079483  -0.089442  0  3.938083  0
C  C78  1  0.80825109  0.73963209  0.90031049  1  0  -0.071415  0  3.708842  0  0  -0.090545  0  3.951128  0  0  -0.092137  0  3.972068  0  0  -0.079455  -0.089447  0  3.937989  0
C  C79  1  0.15725464  0.20400266  0.17297543  1  0  -0.152255  0  3.750815  0  0  -0.173371  0  4.009203  0  0  -0.177855  0  4.030968  0  0  -0.095107  -0.170833  0  3.995852  0
C  C80  1  0.84274618  0.79599881  0.82702433  1  0  -0.152173  0  3.75075  0  0  -0.17329  0  4.009128  0  0  -0.177774  0  4.030894  0  0  -0.095058  -0.170747  0  3.995767  0
C  C81  1  0.93519388  0.17323569  0.06574248  1  0  -0.092888  0  3.726758  0  0  -0.110429  0  3.974672  0  0  -0.112767  0  3.995733  0  0  -0.082466  -0.108576  0  3.957911  0
C  C82  1  0.06480857  0.82676346  0.93425677  1  0  -0.092906  0  3.726782  0  0  -0.110424  0  3.974673  0  0  -0.112766  0  3.995738  0  0  -0.082427  -0.108568  0  3.95791  0
C  C83  1  0.46514454  0.03639079  0.32410041  1  0  0.63422  0  3.939319  0  0  0.578615  0  4.244813  0  0  0.612438  0  4.239069  0  0  0.203439  0.555652  0  4.247655  0
C  C84  1  0.53485262  0.96360954  0.67590122  1  0  0.634414  0  3.939055  0  0  0.578794  0  4.244574  0  0  0.612615  0  4.238831  0  0  0.203518  0.555834  0  4.247415  0
N  N85  1  0.96858748  0.01480901  0.38640280  1  0  -0.411144  0  3.238313  0  0  -0.336266  0  3.53338  0  0  -0.357045  0  3.545137  0  0  -0.340136  -0.32226  0  3.524819  0
N  N86  1  0.03141078  0.98519246  0.61359652  1  0  -0.411163  0  3.238325  0  0  -0.336282  0  3.533374  0  0  -0.357061  0  3.54513  0  0  -0.340131  -0.322275  0  3.52481  0
N  N87  1  0.21576767  0.49812658  0.74634566  1  0  0.018512  0  3.582806  0  0  0.13555  0  3.760887  0  0  0.124797  0  3.784892  0  0  -0.112756  0.140948  0  3.747475  0
N  N88  1  0.78423077  0.50187374  0.25365426  1  0  0.018473  0  3.582846  0  0  0.135533  0  3.760886  0  0  0.12478  0  3.78489  0  0  -0.112752  0.14093  0  3.747476  0
N  N89  1  0.97555235  0.06968490  0.26639312  1  0  0.008615  0  3.59443  0  0  0.120795  0  3.781472  0  0  0.109575  0  3.806301  0  0  -0.118633  0.127844  0  3.76536  0
N  N90  1  0.02444447  0.93031774  0.73360621  1  0  0.008648  0  3.594403  0  0  0.120789  0  3.781487  0  0  0.109568  0  3.806318  0  0  -0.11866  0.127837  0  3.765373  0
N  N91  1  0.14418070  0.44667633  0.68893917  1  0  -0.251436  0  2.816917  0  0  -0.247381  0  3.08045  0  0  -0.256333  0  3.094781  0  0  -0.211303  -0.241422  0  3.071428  0
N  N92  1  0.85581902  0.55332399  0.31106125  1  0  -0.25146  0  2.816956  0  0  -0.247417  0  3.080485  0  0  -0.256371  0  3.094816  0  0  -0.211315  -0.241459  0  3.071464  0
N  N93  1  0.35747615  0.69843993  0.13680382  1  0  0.499802  0  3.9119  0  0  0.528498  0  4.212189  0  0  0.549209  0  4.220437  0  0  0.055925  0.514519  0  4.206918  0
N  N94  1  0.64252484  0.30156038  0.86319600  1  0  0.499792  0  3.911679  0  0  0.528485  0  4.211971  0  0  0.549196  0  4.220222  0  0  0.055932  0.514506  0  4.2067  0
N  N95  1  0.87752601  0.95207279  0.28107858  1  0  -0.254262  0  2.854221  0  0  -0.250124  0  3.124464  0  0  -0.258738  0  3.138617  0  0  -0.211424  -0.244538  0  3.11532  0
N  N96  1  0.12246952  0.04792985  0.71892136  1  0  -0.254264  0  2.85426  0  0  -0.250104  0  3.124487  0  0  -0.258718  0  3.138642  0  0  -0.211373  -0.244518  0  3.115342  0
N  N97  1  0.31695218  0.62329256  0.64597720  1  0  -0.428816  0  3.269987  0  0  -0.350466  0  3.58913  0  0  -0.373132  0  3.597035  0  0  -0.350256  -0.335243  0  3.583208  0
N  N98  1  0.68304806  0.37670430  0.35402446  1  0  -0.428833  0  3.269907  0  0  -0.350517  0  3.589076  0  0  -0.373177  0  3.596973  0  0  -0.350277  -0.335293  0  3.583154  0
O  O99  1  0.50361355  0.70959773  0.47381430  1  0  -0.614734  0  1.978575  0  0  -0.544927  0  2.238509  0  0  -0.574708  0  2.225056  0  0  -0.312248  -0.523751  0  2.247033  0
O  O100  1  0.49638489  0.29040259  0.52618618  1  0  -0.61476  0  1.978545  0  0  -0.544933  0  2.23849  0  0  -0.574715  0  2.225036  0  0  -0.312244  -0.523757  0  2.247014  0
O  O101  1  0.28853930  0.37412154  0.38915215  1  0  -0.686955  0  2.057919  0  0  -0.611266  0  2.32034  0  0  -0.639386  0  2.305429  0  0  -0.330697  -0.59174  0  2.33075  0
O  O102  1  0.71146135  0.62588108  0.61084757  1  0  -0.68696  0  2.057888  0  0  -0.611268  0  2.320248  0  0  -0.639384  0  2.305333  0  0  -0.330698  -0.591743  0  2.330661  0
O  O103  1  0.33976465  0.56705741  0.12145912  1  0  -0.369207  0  1.773767  0  0  -0.354284  0  1.99052  0  0  -0.366638  0  1.987476  0  0  -0.125944  -0.346289  0  1.993257  0
O  O104  1  0.66023490  0.43294406  0.87854126  1  0  -0.369232  0  1.773717  0  0  -0.354305  0  1.990474  0  0  -0.366657  0  1.987426  0  0  -0.125963  -0.346311  0  1.993211  0
O  O105  1  0.26013391  0.87358719  0.48527155  1  0  -0.634268  0  2.082923  0  0  -0.57427  0  2.35479  0  0  -0.602608  0  2.341689  0  0  -0.300011  -0.553915  0  2.363427  0
O  O106  1  0.73986342  0.12641199  0.51472903  1  0  -0.634242  0  2.082847  0  0  -0.574232  0  2.354731  0  0  -0.60257  0  2.341629  0  0  -0.300002  -0.553877  0  2.363367  0
O  O107  1  0.08588228  0.21813246  0.49318178  1  0  -0.847745  0  1.9203  0  0  -0.787734  0  2.135098  0  0  -0.807756  0  2.098921  0  0  -0.583972  -0.773719  0  2.160808  0
O  O108  1  0.91411727  0.78186901  0.50681860  1  0  -0.847852  0  1.92016  0  0  -0.787857  0  2.134973  0  0  -0.807879  0  2.098796  0  0  -0.583992  -0.773844  0  2.160685  0
O  O109  1  0.15929181  0.56159970  0.45965527  1  0  -0.587196  0  2.030252  0  0  -0.525629  0  2.250301  0  0  -0.549948  0  2.242442  0  0  -0.28575  -0.508577  0  2.255543  0
O  O110  1  0.84070646  0.43840178  0.54034461  1  0  -0.587227  0  2.030236  0  0  -0.525685  0  2.250279  0  0  -0.550007  0  2.242421  0  0  -0.285777  -0.50863  0  2.255519  0
O  O111  1  0.37324376  0.80906033  0.08994278  1  0  -0.350386  0  1.7067  0  0  -0.335259  0  1.898785  0  0  -0.345088  0  1.895257  0  0  -0.127695  -0.329437  0  1.902315  0
O  O112  1  0.62675741  0.19093883  0.91005819  1  0  -0.350358  0  1.706547  0  0  -0.335225  0  1.898626  0  0  -0.345059  0  1.895101  0  0  -0.127669  -0.329403  0  1.902156  0
O  O113  1  0.49282413  0.04744805  0.39229084  1  0  -0.626323  0  2.077728  0  0  -0.542053  0  2.341843  0  0  -0.57163  0  2.328084  0  0  -0.313289  -0.521568  0  2.351197  0
O  O114  1  0.50716792  0.95255230  0.60771157  1  0  -0.626409  0  2.077596  0  0  -0.54216  0  2.341743  0  0  -0.571734  0  2.327982  0  0  -0.31337  -0.521676  0  2.351098  0
O  O115  1  0.47789975  0.13890559  0.27187774  1  0  -0.607039  0  1.951431  0  0  -0.565704  0  2.183603  0  0  -0.587835  0  2.174197  0  0  -0.316218  -0.54868  0  2.189136  0
O  O116  1  0.52209852  0.86109590  0.72812435  1  0  -0.607082  0  1.951344  0  0  -0.565745  0  2.183542  0  0  -0.587875  0  2.174138  0  0  -0.316206  -0.54872  0  2.189075  0
