# generated using pymatgen
data_NiH11C9NO5
_symmetry_space_group_name_H-M   'P 1'
_cell_length_a   7.32827192
_cell_length_b   9.20967889
_cell_length_c   15.18699887
_cell_angle_alpha   107.91122217
_cell_angle_beta   90.00005057
_cell_angle_gamma   89.99979205
_symmetry_Int_Tables_number   1
_chemical_formula_structural   NiH11C9NO5
_chemical_formula_sum   'Ni4 H44 C36 N4 O20'
_cell_volume   975.30942273
_cell_formula_units_Z   4
loop_
 _symmetry_equiv_pos_site_id
 _symmetry_equiv_pos_as_xyz
  1  'x, y, z'
loop_
 _atom_site_type_symbol
 _atom_site_label
 _atom_site_symmetry_multiplicity
 _atom_site_fract_x
 _atom_site_fract_y
 _atom_site_fract_z
 _atom_site_occupancy
 _atom_site_hle17_ddec_charge
 _atom_site_hle17_ddec_spin_density
 _atom_site_hle17_ddec_sum_bond_order
 _atom_site_hle17_magmom
 _atom_site_hse06_10hf_ddec_charge
 _atom_site_hse06_10hf_ddec_spin_density
 _atom_site_hse06_10hf_ddec_sum_bond_order
 _atom_site_hse06_10hf_magmom
 _atom_site_hse06_ddec_charge
 _atom_site_hse06_ddec_spin_density
 _atom_site_hse06_ddec_sum_bond_order
 _atom_site_hse06_magmom
 _atom_site_pbe_cm5_charge
 _atom_site_pbe_ddec_charge
 _atom_site_pbe_ddec_spin_density
 _atom_site_pbe_ddec_sum_bond_order
 _atom_site_pbe_magmom
Ni  Ni0  1  0.98739899  0.35683754  0.62651363  1  0.962157  1.783905  1.86376  1.533  0.963103  1.834248  2.250754  1.653  1.044092  1.885261  2.18646  1.735  0.649468  0.893234  1.786639  2.311727  1.578
Ni  Ni1  1  0.48740142  0.14316410  0.37348571  1  0.962203  1.783927  1.863787  1.533  0.963176  1.83426  2.250765  1.653  1.044125  1.885269  2.186495  1.735  0.649487  0.893305  1.786652  2.311711  1.578
Ni  Ni2  1  0.01260076  0.64316672  0.37348670  1  0.962251  1.783908  1.863623  1.533  0.963201  1.834258  2.250624  1.653  1.044161  1.885269  2.186351  1.735  0.649518  0.893317  1.786663  2.311564  1.578
Ni  Ni3  1  0.51259970  0.85683447  0.62651427  1  0.9622  1.7839  1.863642  1.533  0.963133  1.83425  2.250645  1.653  1.044125  1.885267  2.186357  1.735  0.649495  0.893261  1.786666  2.3116  1.578
H  H4  1  0.87033748  0.20354073  0.45812534  1  0.421074  -0.000225  0.884964  0.0  0.396103  7.1e-05  0.940519  0.0  0.407136  -3.2e-05  0.924751  0.0  0.296361  0.388048  0.000179  0.951972  0.001
H  H5  1  0.37033953  0.29645677  0.54187651  1  0.421122  -0.000225  0.884893  0.0  0.396169  7.1e-05  0.940432  0.0  0.407188  -3.1e-05  0.924676  0.0  0.29638  0.388108  0.000179  0.951891  0.001
H  H6  1  0.12966091  0.79646130  0.54187656  1  0.421116  -0.000225  0.884898  0.0  0.396155  7.1e-05  0.940452  0.0  0.407175  -3.2e-05  0.924693  0.0  0.296391  0.388096  0.000179  0.951908  0.001
H  H7  1  0.62966296  0.70354407  0.45812321  1  0.421081  -0.000225  0.884943  0.0  0.396122  7.1e-05  0.940491  0.0  0.407141  -3.1e-05  0.924737  0.0  0.296378  0.388063  0.000179  0.951948  0.001
H  H8  1  0.06582192  0.13743779  0.47087786  1  0.424423  0.000369  0.876457  0.0  0.401059  0.000638  0.928622  0.001  0.413046  0.000427  0.911303  0.0  0.293774  0.392187  0.000838  0.941356  0.001
H  H9  1  0.56582611  0.36256290  0.52912444  1  0.4244  0.000369  0.876472  0.0  0.401035  0.000638  0.928656  0.001  0.413022  0.000427  0.911336  0.0  0.293764  0.392158  0.000838  0.941398  0.001
H  H10  1  0.93417374  0.86256310  0.52912384  1  0.424334  0.000369  0.87657  0.0  0.400972  0.000638  0.928749  0.001  0.412959  0.000427  0.911429  0.0  0.293738  0.392092  0.000838  0.941494  0.001
H  H11  1  0.43417638  0.63744024  0.47087635  1  0.424411  0.000369  0.876464  0.0  0.401062  0.000638  0.92862  0.001  0.413049  0.000427  0.911301  0.0  0.293776  0.392187  0.000838  0.941362  0.001
H  H12  1  0.79452914  0.47888736  0.52652606  1  0.421635  -0.000391  0.873225  -0.001  0.389559  0.000191  0.949411  0.0  0.401708  -1e-05  0.932071  0.0  0.297369  0.380662  0.000396  0.961954  0.0
H  H13  1  0.29453095  0.02111375  0.47347509  1  0.421666  -0.000392  0.873177  -0.001  0.389586  0.000191  0.949362  0.0  0.401733  -1.1e-05  0.932026  0.0  0.297392  0.380692  0.000396  0.961891  0.0
H  H14  1  0.20547607  0.52111686  0.47347295  1  0.421687  -0.000391  0.873198  -0.001  0.389603  0.000191  0.949358  0.0  0.401752  -1e-05  0.932019  0.0  0.297385  0.380703  0.000397  0.961935  0.0
H  H15  1  0.70546880  0.97888717  0.52652794  1  0.421637  -0.000391  0.873248  -0.001  0.389566  0.000191  0.949397  0.0  0.401713  -1e-05  0.932062  0.0  0.297378  0.380673  0.000397  0.961955  0.0
H  H16  1  0.70573868  0.55888748  0.62729808  1  0.421141  -0.000142  0.882895  -0.001  0.391827  0.000371  0.9486  0.0  0.404168  0.000136  0.931224  0.0  0.291694  0.382834  0.000605  0.961132  0.001
H  H17  1  0.20574248  0.94111541  0.37270260  1  0.421213  -0.000142  0.882792  -0.001  0.391899  0.000371  0.948497  0.0  0.404236  0.000136  0.931129  0.0  0.291709  0.382909  0.000605  0.961028  0.001
H  H18  1  0.29426107  0.44111566  0.37270271  1  0.421204  -0.000142  0.882834  -0.001  0.391894  0.000371  0.94851  0.0  0.404233  0.000136  0.931139  0.0  0.291712  0.382902  0.000605  0.961043  0.001
H  H19  1  0.79425728  0.05889230  0.62729965  1  0.421141  -0.000142  0.882869  -0.001  0.391827  0.000371  0.948597  0.0  0.404166  0.000136  0.931228  0.0  0.291677  0.382836  0.000605  0.961127  0.001
H  H20  1  0.84006554  0.98199326  0.75390851  1  0.117096  -0.000893  0.965866  0.0  0.122391  -0.000358  1.034211  0.0  0.126672  -0.000325  1.031764  0.0  0.10388  0.119231  -0.000386  1.035852  0.0
H  H21  1  0.34006421  0.51800804  0.24608996  1  0.117107  -0.000893  0.96586  0.0  0.122404  -0.000358  1.034205  0.0  0.126683  -0.000325  1.031759  0.0  0.103882  0.119251  -0.000386  1.035829  0.0
H  H22  1  0.15993558  0.01800635  0.24608770  1  0.117074  -0.000893  0.965975  0.0  0.122382  -0.000358  1.034301  0.0  0.126664  -0.000325  1.031854  0.0  0.103887  0.119233  -0.000386  1.03593  0.0
H  H23  1  0.65992463  0.48198711  0.75390940  1  0.117126  -0.000894  0.965797  0.0  0.122405  -0.000358  1.034164  0.0  0.126681  -0.000325  1.031721  0.0  0.103887  0.119254  -0.000386  1.035779  0.0
H  H24  1  0.94848555  0.96552556  0.90378955  1  0.075729  0.000319  0.962748  0.001  0.090001  0.000124  1.02133  0.0  0.092032  6.7e-05  1.020229  0.0  0.095937  0.088568  0.000153  1.022358  0.0
H  H25  1  0.44848523  0.53447431  0.09621003  1  0.075734  0.000319  0.962702  0.001  0.089986  0.000124  1.021305  0.0  0.092016  6.7e-05  1.020206  0.0  0.095937  0.088555  0.000153  1.022335  0.0
H  H26  1  0.05151420  0.03446952  0.09620717  1  0.075705  0.000319  0.962762  0.001  0.089973  0.000124  1.021346  0.0  0.092005  6.7e-05  1.020243  0.0  0.095958  0.088542  0.000153  1.022368  0.0
H  H27  1  0.55150497  0.46552540  0.90379015  1  0.075735  0.000319  0.962671  0.001  0.089978  0.000124  1.02128  0.0  0.092011  6.7e-05  1.020177  0.0  0.095924  0.08855  0.000153  1.022309  0.0
H  H28  1  0.10533001  0.18986517  0.01670056  1  0.084408  -0.000183  0.971947  0.0  0.095818  2.7e-05  1.033977  0.0  0.098387  1.3e-05  1.034166  0.0  0.092294  0.093869  3.6e-05  1.034108  0.0
H  H29  1  0.60532846  0.31013301  0.98329736  1  0.084438  -0.000182  0.971901  0.0  0.095827  2.7e-05  1.033956  0.0  0.098412  1.3e-05  1.034129  0.0  0.092301  0.093883  3.6e-05  1.034073  0.0
H  H30  1  0.89467248  0.81012643  0.98329357  1  0.084421  -0.000183  0.971982  0.0  0.095879  2.7e-05  1.033955  0.0  0.098437  1.3e-05  1.034159  0.0  0.092295  0.093943  3.6e-05  1.034075  0.0
H  H31  1  0.39466857  0.68986898  0.01670322  1  0.084516  -0.000183  0.971969  0.0  0.095891  2.7e-05  1.034032  0.0  0.098462  1.3e-05  1.03422  0.0  0.092309  0.093948  3.6e-05  1.034149  0.0
H  H32  1  0.14544350  0.42740088  0.97491478  1  0.082909  0.000156  0.968851  0.0  0.094063  9.4e-05  1.033431  0.0  0.095866  5.5e-05  1.033155  0.0  0.096186  0.092948  0.000132  1.034  0.0
H  H33  1  0.64545080  0.07259955  0.02508685  1  0.082912  0.000156  0.968839  0.0  0.094087  9.4e-05  1.033405  0.0  0.09589  5.5e-05  1.033129  0.0  0.096192  0.092969  0.000132  1.033975  0.0
H  H34  1  0.85456171  0.57259196  0.02508286  1  0.08298  0.000155  0.968825  0.0  0.094133  9.4e-05  1.033403  0.0  0.095936  5.5e-05  1.033128  0.0  0.096165  0.093019  0.000132  1.033973  0.0
H  H35  1  0.35456124  0.92740590  0.97491567  1  0.082952  0.000156  0.968852  0.0  0.094103  9.4e-05  1.033441  0.0  0.095907  5.5e-05  1.033164  0.0  0.096152  0.092985  0.000132  1.034011  0.0
H  H36  1  0.11138866  0.57570381  0.88253770  1  0.058474  0.005024  0.952654  0.008  0.069223  0.002911  1.022133  0.004  0.069535  0.002071  1.020312  0.003  0.108829  0.069185  0.003735  1.023647  0.005
H  H37  1  0.61139725  0.92430048  0.11746254  1  0.058489  0.005022  0.952723  0.008  0.069266  0.00291  1.022197  0.004  0.069572  0.00207  1.020385  0.003  0.108846  0.069224  0.003734  1.023716  0.005
H  H38  1  0.88861518  0.42429360  0.11746141  1  0.058512  0.005023  0.952713  0.008  0.069229  0.002911  1.02222  0.004  0.069542  0.002071  1.0204  0.003  0.108855  0.069193  0.003735  1.023731  0.005
H  H39  1  0.38861615  0.07570153  0.88253871  1  0.058521  0.005022  0.952761  0.008  0.069214  0.002911  1.022281  0.004  0.069526  0.00207  1.020461  0.003  0.108865  0.069175  0.003734  1.023791  0.005
H  H40  1  0.16873054  0.72519809  0.79397004  1  0.092336  0.00197  0.961791  0.003  0.105952  0.001408  1.025973  0.002  0.10579  0.000991  1.028054  0.001  0.108242  0.106536  0.001799  1.024088  0.002
H  H41  1  0.66873862  0.77480602  0.20602953  1  0.092397  0.00197  0.961766  0.003  0.105994  0.001408  1.025966  0.002  0.105832  0.000991  1.028048  0.001  0.108249  0.106582  0.001799  1.024074  0.002
H  H42  1  0.83126921  0.27480619  0.20603095  1  0.092328  0.00197  0.961782  0.003  0.105943  0.001408  1.025979  0.002  0.105779  0.000991  1.028059  0.001  0.108243  0.106529  0.001799  1.024095  0.002
H  H43  1  0.33125841  0.22518797  0.79396897  1  0.092359  0.00197  0.961802  0.003  0.105955  0.001408  1.026005  0.002  0.105793  0.000991  1.028086  0.001  0.10824  0.106543  0.001799  1.024114  0.002
H  H44  1  0.95120418  0.72685317  0.74149166  1  0.114646  0.000679  0.92533  0.001  0.131867  0.000383  0.981894  0.001  0.133275  0.00033  0.981505  0.001  0.120577  0.130774  0.000459  0.981321  0.001
H  H45  1  0.45121399  0.77315002  0.25850456  1  0.114655  0.000679  0.925341  0.001  0.13191  0.000383  0.981864  0.001  0.133321  0.00033  0.981469  0.001  0.120579  0.130816  0.000459  0.981298  0.001
H  H46  1  0.04879557  0.27314992  0.25850714  1  0.114643  0.000679  0.925346  0.001  0.131878  0.000383  0.981908  0.001  0.133285  0.00033  0.981516  0.001  0.120581  0.130784  0.00046  0.981337  0.001
H  H47  1  0.54878713  0.22685199  0.74149669  1  0.114673  0.000679  0.925349  0.001  0.131916  0.000383  0.98189  0.001  0.133327  0.000331  0.981494  0.001  0.120572  0.130823  0.00046  0.981323  0.001
C  C48  1  0.92835416  0.21443566  0.77613914  1  0.341188  -0.01279  3.820108  -0.01  0.328246  -0.002353  4.083794  -0.001  0.348424  -0.002794  4.098023  -0.002  0.09169  0.315239  -0.002316  4.071002  -0.002
C  C49  1  0.42835293  0.28556615  0.22386021  1  0.341229  -0.012783  3.820053  -0.01  0.328302  -0.002354  4.083739  -0.001  0.348477  -0.002793  4.097965  -0.002  0.091699  0.315295  -0.002317  4.070948  -0.002
C  C50  1  0.07164832  0.78556515  0.22385925  1  0.341317  -0.012778  3.819981  -0.01  0.328404  -0.002354  4.083645  -0.001  0.348574  -0.002792  4.097868  -0.002  0.091733  0.315403  -0.002317  4.070857  -0.002
C  C51  1  0.57164819  0.71443358  0.77614063  1  0.341279  -0.012797  3.819948  -0.01  0.328351  -0.002354  4.083613  -0.001  0.348528  -0.002794  4.09784  -0.002  0.091742  0.315344  -0.002318  4.070818  -0.002
C  C52  1  0.90590991  0.08022711  0.80263837  1  -0.199908  0.010018  3.697104  0.013  -0.220827  0.00324  3.952423  0.005  -0.229432  0.002427  3.970911  0.004  -0.113278  -0.214343  0.004333  3.939257  0.006
C  C53  1  0.40591075  0.41977251  0.19736123  1  -0.199994  0.010012  3.697208  0.013  -0.220913  0.003242  3.952519  0.005  -0.229519  0.002427  3.971013  0.004  -0.113317  -0.214426  0.004333  3.939363  0.006
C  C54  1  0.09409121  0.91977143  0.19736028  1  -0.200045  0.01001  3.69725  0.013  -0.220978  0.003242  3.952567  0.005  -0.229587  0.002427  3.971063  0.004  -0.113333  -0.214503  0.004333  3.939399  0.006
C  C55  1  0.59408355  0.58022492  0.80263854  1  -0.200015  0.010025  3.697169  0.013  -0.220922  0.003242  3.952478  0.005  -0.229526  0.002427  3.970968  0.004  -0.113329  -0.214432  0.004333  3.939327  0.006
C  C56  1  0.96677838  0.07196248  0.88737337  1  -0.029288  -0.012744  3.797971  -0.008  -0.043645  -0.003162  4.050456  -0.001  -0.039761  -0.003286  4.070645  -0.002  -0.092841  -0.048142  -0.003322  4.037988  -0.001
C  C57  1  0.46677629  0.42803350  0.11262429  1  -0.029297  -0.012732  3.798284  -0.008  -0.043636  -0.003164  4.050762  -0.001  -0.039753  -0.003285  4.070958  -0.002  -0.092857  -0.048136  -0.003323  4.038302  -0.001
C  C58  1  0.03322546  0.92803146  0.11262314  1  -0.029154  -0.012725  3.79813  -0.008  -0.043514  -0.003163  4.050641  -0.001  -0.03963  -0.003285  4.070832  -0.002  -0.092848  -0.048012  -0.003322  4.038177  -0.001
C  C59  1  0.53321800  0.57196388  0.88737350  1  -0.029245  -0.012752  3.798151  -0.008  -0.04357  -0.003163  4.05061  -0.001  -0.039685  -0.003287  4.070798  -0.002  -0.092851  -0.048074  -0.003323  4.038158  -0.001
C  C60  1  0.05358060  0.19693905  0.95090012  1  -0.138672  0.005296  3.848073  0.006  -0.156925  0.000912  4.110974  0.001  -0.165045  0.000865  4.135251  0.001  -0.122226  -0.150795  0.001162  4.095437  0.001
C  C61  1  0.55357870  0.30306506  0.04910146  1  -0.13865  0.00529  3.84838  0.006  -0.156884  0.000913  4.111266  0.001  -0.165017  0.000865  4.135542  0.001  -0.122195  -0.150752  0.001162  4.095731  0.001
C  C62  1  0.94642188  0.80305719  0.04909746  1  -0.138689  0.005289  3.848317  0.006  -0.156981  0.000913  4.111227  0.001  -0.165093  0.000865  4.135516  0.001  -0.122207  -0.150861  0.001163  4.095682  0.001
C  C63  1  0.44641832  0.69693811  0.95090065  1  -0.138798  0.005301  3.848385  0.006  -0.157026  0.000913  4.111269  0.001  -0.165148  0.000865  4.135549  0.001  -0.122198  -0.150896  0.001163  4.095739  0.001
C  C64  1  0.07639057  0.32950128  0.92721906  1  -0.091949  -0.011711  3.81099  -0.008  -0.111122  -0.002738  4.060242  -0.002  -0.107832  -0.003026  4.082095  -0.002  -0.094326  -0.11553  -0.002649  4.047187  -0.002
C  C65  1  0.57638932  0.17049813  0.07277906  1  -0.091926  -0.011701  3.81094  -0.008  -0.111113  -0.002741  4.060184  -0.002  -0.107826  -0.003027  4.08204  -0.002  -0.094289  -0.115514  -0.002651  4.047126  -0.002
C  C66  1  0.92361874  0.67049152  0.07277725  1  -0.092052  -0.011696  3.811008  -0.008  -0.111224  -0.002739  4.060287  -0.002  -0.107941  -0.003025  4.08213  -0.002  -0.094262  -0.115626  -0.002649  4.047242  -0.002
C  C67  1  0.42361590  0.82950617  0.92722259  1  -0.091939  -0.011721  3.811059  -0.008  -0.111116  -0.002739  4.0603  -0.002  -0.107826  -0.003026  4.082154  -0.002  -0.094262  -0.115518  -0.00265  4.047239  -0.002
C  C68  1  0.01593964  0.34251781  0.84152332  1  -0.120964  0.007617  3.808853  0.012  -0.104087  0.002316  4.049488  0.004  -0.118193  0.001771  4.074925  0.004  -0.038815  -0.093889  0.003199  4.032111  0.006
C  C69  1  0.51594271  0.15748409  0.15847654  1  -0.120981  0.00761  3.808836  0.012  -0.104121  0.002316  4.049536  0.004  -0.118217  0.001772  4.074955  0.004  -0.038814  -0.093932  0.003199  4.032165  0.006
C  C70  1  0.98405875  0.65748071  0.15847467  1  -0.121003  0.007611  3.808692  0.012  -0.104153  0.002316  4.049347  0.004  -0.118231  0.001771  4.07475  0.004  -0.03886  -0.093978  0.003199  4.031993  0.006
C  C71  1  0.48406251  0.84251680  0.84152516  1  -0.121034  0.007618  3.808905  0.012  -0.104151  0.002316  4.04953  0.004  -0.118256  0.001772  4.074968  0.004  -0.038806  -0.093957  0.003199  4.03215  0.006
C  C72  1  0.05411747  0.48463236  0.82404514  1  0.161867  -0.039761  3.695446  -0.026  0.123205  -0.014211  3.956788  -0.009  0.143862  -0.014152  3.965884  -0.009  0.073631  0.107662  -0.015344  3.951392  -0.009
C  C73  1  0.55412258  0.01536937  0.17595273  1  0.161886  -0.039753  3.695498  -0.026  0.123165  -0.014215  3.956859  -0.009  0.143823  -0.014155  3.965956  -0.009  0.073565  0.107628  -0.015347  3.951459  -0.009
C  C74  1  0.94588638  0.51536503  0.17595330  1  0.161859  -0.039744  3.695444  -0.026  0.123226  -0.014212  3.956784  -0.009  0.143878  -0.014152  3.965878  -0.009  0.073591  0.107687  -0.015343  3.951388  -0.009
C  C75  1  0.44588536  0.98463150  0.82404832  1  0.161763  -0.039758  3.695736  -0.026  0.123143  -0.014213  3.957056  -0.009  0.143801  -0.014154  3.966153  -0.009  0.073489  0.107599  -0.015346  3.951648  -0.009
C  C76  1  0.07724796  0.65978463  0.73865886  1  -0.148931  0.001331  3.70259  0.0  -0.201429  0.001365  3.958299  0.001  -0.202058  0.000166  3.96807  0.0  -0.067456  -0.200175  0.002412  3.949904  0.002
C  C77  1  0.57725584  0.84021633  0.26134011  1  -0.149019  0.001332  3.702502  0.0  -0.201509  0.001366  3.958212  0.001  -0.202141  0.000167  3.967989  0.0  -0.06745  -0.200256  0.002413  3.949823  0.002
C  C78  1  0.92275453  0.34021849  0.26134127  1  -0.148901  0.001332  3.702511  0.0  -0.20136  0.001365  3.95823  0.001  -0.201977  0.000166  3.967989  0.0  -0.067423  -0.200108  0.002413  3.949841  0.002
C  C79  1  0.42274528  0.15978112  0.73866032  1  -0.149049  0.001334  3.702585  0.0  -0.201523  0.001366  3.958316  0.001  -0.202152  0.000166  3.968089  0.0  -0.067438  -0.200272  0.002414  3.949925  0.002
C  C80  1  0.15984445  0.64548919  0.64461188  1  0.706873  -0.002218  3.778684  -0.001  0.663645  0.003653  4.076914  0.005  0.699645  0.00247  4.068192  0.004  0.230689  0.637757  0.005101  4.08159  0.006
C  C81  1  0.65984289  0.85451045  0.35538952  1  0.706877  -0.002217  3.778632  -0.001  0.663608  0.003653  4.076942  0.005  0.699604  0.00247  4.068226  0.004  0.230623  0.637719  0.005101  4.081623  0.006
C  C82  1  0.84016758  0.35451969  0.35539124  1  0.706948  -0.002216  3.778415  -0.001  0.663619  0.003655  4.076824  0.005  0.699617  0.002471  4.068104  0.004  0.230689  0.637734  0.005103  4.081506  0.006
C  C83  1  0.34015686  0.14547903  0.64461016  1  0.706968  -0.002214  3.778552  -0.001  0.663666  0.003655  4.076893  0.005  0.699666  0.002472  4.068174  0.004  0.230664  0.637783  0.005103  4.081575  0.006
N  N84  1  0.03030818  0.51150428  0.74616497  1  -0.309174  0.072885  3.346465  0.113  -0.273504  0.04081  3.658735  0.065  -0.302749  0.03239  3.674061  0.054  -0.365169  -0.252655  0.04805  3.649165  0.073
N  N85  1  0.53030991  0.98849686  0.25383599  1  -0.309264  0.07288  3.346366  0.113  -0.273559  0.040812  3.658621  0.065  -0.302795  0.032392  3.673942  0.054  -0.365169  -0.252707  0.048052  3.649044  0.073
N  N86  1  0.96969567  0.48849655  0.25383475  1  -0.309272  0.072877  3.346409  0.113  -0.273592  0.040811  3.658674  0.065  -0.302845  0.03239  3.674007  0.054  -0.365187  -0.252738  0.048049  3.649086  0.073
N  N87  1  0.46969121  0.01150289  0.74616551  1  -0.309145  0.072887  3.346434  0.113  -0.273457  0.040812  3.658664  0.065  -0.302706  0.032392  3.673996  0.054  -0.365141  -0.252608  0.048051  3.649079  0.073
O  O88  1  0.95466577  0.18667560  0.50529880  1  -0.80541  0.030491  1.96183  0.051  -0.77001  0.021191  2.159875  0.035  -0.796958  0.016345  2.123287  0.029  -0.584531  -0.748359  0.025471  2.186749  0.04
O  O89  1  0.45467311  0.31331826  0.49470375  1  -0.805444  0.030488  1.961843  0.051  -0.770033  0.021189  2.159751  0.035  -0.796959  0.016344  2.123191  0.029  -0.584536  -0.748386  0.025469  2.186647  0.04
O  O90  1  0.04532580  0.81332420  0.49470468  1  -0.805412  0.030487  1.961893  0.051  -0.769994  0.021189  2.159803  0.035  -0.79692  0.016344  2.123242  0.029  -0.584545  -0.74835  0.025469  2.186696  0.04
O  O91  1  0.54533211  0.68667919  0.50529668  1  -0.80541  0.030488  1.96182  0.051  -0.770011  0.021189  2.159741  0.035  -0.796945  0.016344  2.123184  0.029  -0.584547  -0.748373  0.025468  2.186637  0.04
O  O92  1  0.75245930  0.45731778  0.58435437  1  -0.811434  0.041693  1.975664  0.071  -0.773979  0.029748  2.189443  0.052  -0.806406  0.021207  2.153823  0.04  -0.554047  -0.746945  0.038232  2.214508  0.063
O  O93  1  0.25246227  0.04268457  0.41564566  1  -0.811518  0.041692  1.975555  0.071  -0.774063  0.029749  2.189365  0.052  -0.806481  0.021207  2.153745  0.04  -0.55406  -0.747031  0.038232  2.214418  0.063
O  O94  1  0.24754182  0.54268536  0.41564642  1  -0.811529  0.041694  1.975619  0.071  -0.774103  0.029749  2.189385  0.052  -0.806518  0.021207  2.15375  0.04  -0.554082  -0.747066  0.038232  2.214477  0.063
O  O95  1  0.74753749  0.95731971  0.58435533  1  -0.811419  0.041697  1.975668  0.071  -0.77397  0.029751  2.189477  0.052  -0.806398  0.021209  2.153851  0.04  -0.554025  -0.746941  0.038234  2.214553  0.063
O  O96  1  0.86873293  0.21707550  0.69470222  1  -0.593358  0.050011  2.102267  0.086  -0.559118  0.030853  2.364486  0.055  -0.596254  0.021756  2.358553  0.041  -0.319341  -0.529144  0.039635  2.366634  0.067
O  O97  1  0.36873323  0.28292654  0.30529911  1  -0.593397  0.050015  2.102213  0.086  -0.55918  0.030853  2.364438  0.055  -0.59631  0.021755  2.358504  0.041  -0.319353  -0.529201  0.039637  2.36658  0.067
O  O98  1  0.13126546  0.78292530  0.30529617  1  -0.593405  0.050017  2.102217  0.086  -0.559184  0.030855  2.364436  0.055  -0.596315  0.021756  2.358501  0.041  -0.319371  -0.529203  0.039637  2.36657  0.067
O  O99  1  0.63126653  0.71707207  0.69470218  1  -0.593354  0.050017  2.102165  0.086  -0.559134  0.030856  2.364393  0.055  -0.596273  0.021757  2.358458  0.041  -0.319359  -0.529159  0.039638  2.366533  0.067
O  O100  1  0.13795412  0.51998477  0.57994864  1  -0.596474  0.047543  2.076991  0.08  -0.550043  0.032411  2.321967  0.056  -0.585465  0.023631  2.31197  0.043  -0.284608  -0.522665  0.040633  2.328409  0.067
O  O101  1  0.63795483  0.98001713  0.42004986  1  -0.596339  0.047542  2.076964  0.08  -0.549981  0.032411  2.322037  0.056  -0.585379  0.023631  2.312022  0.043  -0.28456  -0.522602  0.040632  2.328474  0.067
O  O102  1  0.86204973  0.48001947  0.42005103  1  -0.596361  0.047534  2.077195  0.08  -0.549943  0.032408  2.322272  0.056  -0.58535  0.02363  2.312262  0.043  -0.284553  -0.52256  0.040626  2.328704  0.067
O  O103  1  0.36204492  0.01998485  0.57995006  1  -0.596395  0.04753  2.077223  0.08  -0.549944  0.032407  2.322231  0.056  -0.585362  0.023629  2.312234  0.043  -0.284546  -0.52257  0.040623  2.328668  0.067
O  O104  1  0.23441291  0.76341688  0.63420255  1  -0.640431  0.021735  2.062888  0.034  -0.601397  0.015851  2.314987  0.023  -0.633512  0.01124  2.304434  0.017  -0.314003  -0.576118  0.020805  2.322161  0.03
O  O105  1  0.73441327  0.73658480  0.36579859  1  -0.640466  0.021734  2.062859  0.034  -0.601382  0.01585  2.314944  0.023  -0.633495  0.01124  2.3044  0.017  -0.313981  -0.576102  0.020805  2.322115  0.03
O  O106  1  0.76558275  0.23658403  0.36579982  1  -0.640565  0.021741  2.06244  0.034  -0.601495  0.015853  2.314585  0.023  -0.633613  0.011241  2.304041  0.017  -0.314078  -0.576213  0.020809  2.321761  0.03
O  O107  1  0.26558102  0.26341833  0.63420220  1  -0.640543  0.021743  2.06256  0.034  -0.601491  0.015854  2.31469  0.023  -0.63361  0.011241  2.304144  0.017  -0.314042  -0.576209  0.02081  2.321867  0.03
