# generated using pymatgen
data_AlH11C15S2NO5
_symmetry_space_group_name_H-M   'P 1'
_cell_length_a   6.65222882
_cell_length_b   14.74676428
_cell_length_c   15.08900000
_cell_angle_alpha   90.00000000
_cell_angle_beta   90.00000000
_cell_angle_gamma   90.90465676
_symmetry_Int_Tables_number   1
_chemical_formula_structural   AlH11C15S2NO5
_chemical_formula_sum   'Al4 H44 C60 S8 N4 O20'
_cell_volume   1480.02904732
_cell_formula_units_Z   4
loop_
 _symmetry_equiv_pos_site_id
 _symmetry_equiv_pos_as_xyz
  1  'x, y, z'
loop_
 _atom_site_type_symbol
 _atom_site_label
 _atom_site_symmetry_multiplicity
 _atom_site_fract_x
 _atom_site_fract_y
 _atom_site_fract_z
 _atom_site_occupancy
 _atom_site_hle17_bader_spin_density
 _atom_site_hle17_ddec_charge
 _atom_site_hle17_ddec_spin_density
 _atom_site_hle17_ddec_sum_bond_order
 _atom_site_hle17_magmom
 _atom_site_hse06_10hf_bader_spin_density
 _atom_site_hse06_10hf_ddec_charge
 _atom_site_hse06_10hf_ddec_spin_density
 _atom_site_hse06_10hf_ddec_sum_bond_order
 _atom_site_hse06_10hf_magmom
 _atom_site_hse06_bader_spin_density
 _atom_site_hse06_ddec_charge
 _atom_site_hse06_ddec_spin_density
 _atom_site_hse06_ddec_sum_bond_order
 _atom_site_hse06_magmom
 _atom_site_pbe_bader_charge
 _atom_site_pbe_bader_spin_density
 _atom_site_pbe_cm5_charge
 _atom_site_pbe_ddec_charge
 _atom_site_pbe_ddec_spin_density
 _atom_site_pbe_ddec_sum_bond_order
 _atom_site_pbe_magmom
Al  Al0  1  0.99999406  0.99999484  0.00000000  1  0  1.806677  0  2.208148  0  0  1.667458  0  2.538866  0  0  1.70278  0  2.49067  0  2.501614  0  0.390419  1.641977  0  2.573064  0
Al  Al1  1  0.50001064  0.49999979  0.50000265  1  0  1.806628  0  2.208252  0  0  1.667496  0  2.538898  0  0  1.702821  0  2.490704  0  2.501564  0  0.390427  1.642026  0  2.573081  0
Al  Al2  1  0.49999771  0.99999416  0.99999867  1  0  1.811488  0  2.218405  0  0  1.675766  0  2.545362  0  0  1.710667  0  2.497447  0  2.49731  0  0.384566  1.650574  0  2.57932  0
Al  Al3  1  0.00000066  0.49999640  0.49999934  1  0  1.811314  0  2.218552  0  0  1.675612  0  2.545609  0  0  1.710505  0  2.497703  0  2.497192  0  0.384473  1.650424  0  2.579557  0
H  H4  1  0.25381139  0.11914878  0.02230764  1  0  0.440426  0  0.843606  0  0  0.404122  0  0.921766  0  0  0.41385  0  0.907307  0  0.660032  0  0.320356  0.397255  0  0.931959  0
H  H5  1  0.24619598  0.38084355  0.52229637  1  0  0.440607  0  0.843575  0  0  0.404301  0  0.921594  0  0  0.414015  0  0.907141  0  0.659991  0  0.320395  0.39744  0  0.931787  0
H  H6  1  0.74620044  0.88083859  0.97769899  1  0  0.440517  0  0.843606  0  0  0.404203  0  0.92171  0  0  0.413918  0  0.907254  0  0.659891  0  0.320335  0.397337  0  0.931913  0
H  H7  1  0.75380421  0.61915468  0.47770230  1  0  0.440555  0  0.843556  0  0  0.40431  0  0.921546  0  0  0.414023  0  0.907092  0  0.660002  0  0.320411  0.397442  0  0.931751  0
H  H8  1  0.56077732  0.72842277  0.65791239  1  0  0.103527  0  0.953535  0  0  0.109643  0  1.019594  0  0  0.11339  0  1.017108  0  0.101243  0  0.10424  0.106918  0  1.021507  0
H  H9  1  0.93921674  0.77156846  0.15791769  1  0  0.103572  0  0.953485  0  0  0.109732  0  1.019472  0  0  0.113479  0  1.016986  0  0.101106  0  0.104256  0.107006  0  1.02139  0
H  H10  1  0.43922180  0.27158766  0.34207038  1  0  0.103677  0  0.95351  0  0  0.109792  0  1.019561  0  0  0.113523  0  1.017112  0  0.10121  0  0.10432  0.107086  0  1.021424  0
H  H11  1  0.06077483  0.22844129  0.84209954  1  0  0.103443  0  0.953651  0  0  0.109643  0  1.01959  0  0  0.113392  0  1.017102  0  0.101344  0  0.104258  0.106917  0  1.021501  0
H  H12  1  0.55791422  0.84994458  0.77545364  1  0  0.113742  0  0.931629  0  0  0.124015  0  0.988977  0  0  0.12769  0  0.986864  0  0.117436  0  0.110454  0.121346  0  0.990662  0
H  H13  1  0.94206515  0.65005616  0.27546292  1  0  0.113744  0  0.931631  0  0  0.123965  0  0.989031  0  0  0.127632  0  0.986935  0  0.117439  0  0.110428  0.121297  0  0.990714  0
H  H14  1  0.44208053  0.15006993  0.22452780  1  0  0.113612  0  0.931826  0  0  0.123845  0  0.989214  0  0  0.127513  0  0.987116  0  0.117414  0  0.110302  0.121174  0  0.990898  0
H  H15  1  0.05792486  0.34995157  0.72454835  1  0  0.113707  0  0.931518  0  0  0.123981  0  0.98888  0  0  0.12766  0  0.986759  0  0.117342  0  0.110397  0.121309  0  0.990566  0
H  H16  1  0.93035269  0.67890133  0.69907615  1  0  0.111841  0  0.944235  0  0  0.123692  0  1.00059  0  0  0.127152  0  0.998465  0  0.068897  0  0.11027  0.121168  0  1.002275  0
H  H17  1  0.56964980  0.82107295  0.19906952  1  0  0.111955  0  0.944118  0  0  0.123716  0  1.000574  0  0  0.127172  0  0.998447  0  0.069239  0  0.110253  0.121194  0  1.002256  0
H  H18  1  0.06967564  0.32108469  0.30092054  1  0  0.111906  0  0.943987  0  0  0.12379  0  1.000309  0  0  0.127256  0  0.998178  0  0.068835  0  0.110254  0.12126  0  1.002006  0
H  H19  1  0.43035407  0.17890154  0.80092253  1  0  0.111895  0  0.944182  0  0  0.123733  0  1.00055  0  0  0.127195  0  0.998424  0  0.068947  0  0.110266  0.121207  0  1.002237  0
H  H20  1  0.92502880  0.80162694  0.81522102  1  0  0.109456  0  0.957421  0  0  0.114075  0  1.025366  0  0  0.118055  0  1.022644  0  0.148372  0  0.105179  0.11119  0  1.027459  0
H  H21  1  0.57496190  0.69835413  0.31521970  1  0  0.109543  0  0.957513  0  0  0.114191  0  1.025407  0  0  0.118165  0  1.022685  0  0.148477  0  0.105192  0.111307  0  1.027498  0
H  H22  1  0.07497383  0.19835501  0.18477699  1  0  0.109407  0  0.95767  0  0  0.11405  0  1.025563  0  0  0.118026  0  1.022837  0  0.148345  0  0.105135  0.111165  0  1.027653  0
H  H23  1  0.42504046  0.30162036  0.68476572  1  0  0.109474  0  0.957368  0  0  0.114088  0  1.025315  0  0  0.118067  0  1.022591  0  0.148634  0  0.105189  0.111202  0  1.027406  0
H  H24  1  0.76298826  0.08475051  0.39429386  1  0  0.096882  0  0.969253  0  0  0.107532  0  1.035444  0  0  0.109952  0  1.035405  0  0.078718  0  0.095848  0.105749  0  1.035677  0
H  H25  1  0.73698963  0.41525335  0.89431109  1  0  0.096869  0  0.969435  0  0  0.107542  0  1.035592  0  0  0.109964  0  1.035552  0  0.078911  0  0.095894  0.10576  0  1.035823  0
H  H26  1  0.23696719  0.91525789  0.60569952  1  0  0.097011  0  0.969159  0  0  0.107684  0  1.035333  0  0  0.110108  0  1.035291  0  0.079171  0  0.095889  0.105894  0  1.035572  0
H  H27  1  0.26304585  0.58476522  0.10569819  1  0  0.096927  0  0.969212  0  0  0.107606  0  1.035403  0  0  0.11003  0  1.035355  0  0.079384  0  0.095912  0.105845  0  1.035585  0
H  H28  1  0.25007666  0.91026363  0.32131619  1  0  0.092986  0  0.977916  0  0  0.102054  0  1.044302  0  0  0.103907  0  1.045314  0  0.09955  0  0.094764  0.100744  0  1.043664  0
H  H29  1  0.24987845  0.58973642  0.82135595  1  0  0.09296  0  0.977842  0  0  0.102154  0  1.044154  0  0  0.104036  0  1.045088  0  0.100227  0  0.094743  0.100838  0  1.043533  0
H  H30  1  0.74985190  0.08974952  0.67864471  1  0  0.092838  0  0.977929  0  0  0.101964  0  1.044324  0  0  0.103818  0  1.045346  0  0.100418  0  0.094729  0.100658  0  1.043683  0
H  H31  1  0.75012799  0.41026859  0.17867586  1  0  0.092819  0  0.978007  0  0  0.102003  0  1.044339  0  0  0.103864  0  1.045326  0  0.099903  0  0.09473  0.100695  0  1.043696  0
H  H32  1  0.48791349  0.00327367  0.40922062  1  0  0.085347  0  0.99717  0  0  0.093441  0  1.068564  0  0  0.096266  0  1.067371  0  0.082302  0  0.092407  0.091399  0  1.069506  0
H  H33  1  0.01207901  0.49672341  0.90926370  1  0  0.085612  0  0.997082  0  0  0.093525  0  1.068624  0  0  0.096345  0  1.06744  0  0.081227  0  0.092461  0.09149  0  1.06955  0
H  H34  1  0.51203442  0.99673405  0.59074823  1  0  0.085263  0  0.99713  0  0  0.093307  0  1.068602  0  0  0.09613  0  1.067413  0  0.082409  0  0.092416  0.091287  0  1.069497  0
H  H35  1  0.98795709  0.50327007  0.09076943  1  0  0.085209  0  0.997139  0  0  0.093312  0  1.068557  0  0  0.09613  0  1.067374  0  0.082445  0  0.092415  0.091283  0  1.069467  0
H  H36  1  0.84263949  0.86556826  0.31299622  1  0  0.10332  0  0.984572  0  0  0.11844  0  1.058476  0  0  0.119073  0  1.060444  0  0.061521  0  0.083538  0.118013  0  1.057013  0
H  H37  1  0.65734135  0.63443180  0.81300550  1  0  0.103425  0  0.984578  0  0  0.11851  0  1.058504  0  0  0.119145  0  1.060474  0  0.061843  0  0.083596  0.118083  0  1.057042  0
H  H38  1  0.15731911  0.13444421  0.68699848  1  0  0.103516  0  0.984427  0  0  0.11858  0  1.058366  0  0  0.119213  0  1.060334  0  0.062  0  0.083659  0.118154  0  1.056895  0
H  H39  1  0.34267766  0.36558881  0.18700245  1  0  0.103429  0  0.984414  0  0  0.118576  0  1.058287  0  0  0.119215  0  1.060251  0  0.060769  0  0.083592  0.118151  0  1.056816  0
H  H40  1  0.90302672  0.93815187  0.22308172  1  0  0.13412  0  0.944733  0  0  0.154918  0  1.001834  0  0  0.156723  0  1.001445  0  0.083922  0  0.099473  0.153597  0  1.00218  0
H  H41  1  0.59695966  0.56183462  0.72310027  1  0  0.134151  0  0.94455  0  0  0.15496  0  1.001654  0  0  0.156764  0  1.00127  0  0.083865  0  0.099503  0.153638  0  1.002003  0
H  H42  1  0.09694042  0.06184704  0.77690834  1  0  0.134127  0  0.944647  0  0  0.154964  0  1.001706  0  0  0.156773  0  1.001308  0  0.084087  0  0.099478  0.15364  0  1.002059  0
H  H43  1  0.40304970  0.43816767  0.27692226  1  0  0.134154  0  0.944793  0  0  0.155038  0  1.001778  0  0  0.15685  0  1.001377  0  0.083866  0  0.099477  0.153713  0  1.002134  0
H  H44  1  0.69745764  0.96386783  0.29321360  1  0  0.107664  0  0.94931  0  0  0.130492  0  1.008273  0  0  0.131926  0  1.008017  0  0.025639  0  0.088488  0.129428  0  1.008502  0
H  H45  1  0.80252005  0.53612815  0.79324674  1  0  0.10765  0  0.949241  0  0  0.130525  0  1.008186  0  0  0.131968  0  1.007917  0  0.025777  0  0.088448  0.129461  0  1.008418  0
H  H46  1  0.30249614  0.03613582  0.70675591  1  0  0.107515  0  0.949288  0  0  0.130412  0  1.00823  0  0  0.131858  0  1.007964  0  0.026154  0  0.088396  0.129347  0  1.008459  0
H  H47  1  0.19749448  0.46389313  0.20677977  1  0  0.107623  0  0.949194  0  0  0.130517  0  1.008134  0  0  0.131956  0  1.007872  0  0.025826  0  0.088433  0.129451  0  1.008366  0
C  C48  1  0.24673274  0.62127880  0.60766651  1  0  0.698907  0  3.83519  0  0  0.638014  0  4.137972  0  0  0.673294  0  4.126243  0  1.575606  0  0.257913  0.614075  0  4.145375  0
C  C49  1  0.25324867  0.87869955  0.10765922  1  0  0.698462  0  3.835585  0  0  0.637519  0  4.138506  0  0  0.672782  0  4.126787  0  1.575737  0  0.257819  0.613585  0  4.145898  0
C  C50  1  0.75327466  0.37871061  0.39233746  1  0  0.698483  0  3.835655  0  0  0.63769  0  4.138358  0  0  0.672969  0  4.126626  0  1.575851  0  0.25779  0.613753  0  4.145753  0
C  C51  1  0.74673015  0.12128918  0.89234210  1  0  0.698573  0  3.835392  0  0  0.63782  0  4.137957  0  0  0.673091  0  4.126246  0  1.575596  0  0.257906  0.613884  0  4.145341  0
C  C52  1  0.24595890  0.69675086  0.67322619  1  0  -0.077171  0  3.773923  0  0  -0.058886  0  4.016275  0  0  -0.065755  0  4.037904  0  -0.052714  0  -0.01725  -0.054394  0  4.001751  0
C  C53  1  0.25403752  0.80322681  0.17322089  1  0  -0.076661  0  3.773788  0  0  -0.058371  0  4.01608  0  0  -0.065227  0  4.037702  0  -0.053763  0  -0.017149  -0.053883  0  4.001558  0
C  C54  1  0.75405771  0.30324397  0.32676851  1  0  -0.076558  0  3.77362  0  0  -0.058319  0  4.015938  0  0  -0.065171  0  4.037553  0  -0.052057  0  -0.017133  -0.053829  0  4.001398  0
C  C55  1  0.74595640  0.19676396  0.82678309  1  0  -0.076827  0  3.774021  0  0  -0.058554  0  4.016281  0  0  -0.065414  0  4.037908  0  -0.052918  0  -0.017182  -0.054062  0  4.001741  0
C  C56  1  0.42325224  0.74530926  0.69288289  1  0  -0.07879  0  3.75256  0  0  -0.103533  0  4.012263  0  0  -0.104252  0  4.032284  0  -0.008618  0  -0.084289  -0.102987  0  3.998779  0
C  C57  1  0.07673852  0.75467859  0.19288223  1  0  -0.079293  0  3.752422  0  0  -0.104057  0  4.012137  0  0  -0.104779  0  4.032152  0  -0.007636  0  -0.084465  -0.103508  0  3.998659  0
C  C58  1  0.57674213  0.25469439  0.30710451  1  0  -0.079412  0  3.752732  0  0  -0.104154  0  4.01249  0  0  -0.104872  0  4.032486  0  -0.00929  0  -0.084531  -0.103598  0  3.999002  0
C  C59  1  0.92325129  0.24532371  0.80712174  1  0  -0.078975  0  3.753012  0  0  -0.103788  0  4.012714  0  0  -0.104511  0  4.032736  0  -0.008532  0  -0.08437  -0.103237  0  3.999216  0
C  C60  1  0.24095705  0.89954469  0.87435218  1  0  0.709307  0  3.812021  0  0  0.649979  0  4.108124  0  0  0.685313  0  4.096557  0  1.57832  0  0.264348  0.62601  0  4.11541  0
C  C61  1  0.25904766  0.60045536  0.37435947  1  0  0.709123  0  3.812317  0  0  0.650023  0  4.10804  0  0  0.685372  0  4.096452  0  1.578134  0  0.264387  0.62608  0  4.115303  0
C  C62  1  0.75903992  0.10044743  0.12564318  1  0  0.709371  0  3.811899  0  0  0.650044  0  4.107982  0  0  0.685394  0  4.096395  0  1.578817  0  0.264385  0.62608  0  4.115257  0
C  C63  1  0.74096916  0.39954558  0.62563987  1  0  0.709031  0  3.812146  0  0  0.649836  0  4.108158  0  0  0.685171  0  4.096576  0  1.579282  0  0.264343  0.625894  0  4.115431  0
C  C64  1  0.24140279  0.83200688  0.80133674  1  0  -0.065434  0  3.756651  0  0  -0.046325  0  3.99528  0  0  -0.052933  0  4.016961  0  -0.015026  0  -0.013864  -0.04201  0  3.98074  0
C  C65  1  0.25858351  0.66798232  0.30133806  1  0  -0.065519  0  3.757135  0  0  -0.046461  0  3.995693  0  0  -0.053074  0  4.017365  0  -0.014366  0  -0.013952  -0.042157  0  3.981157  0
C  C66  1  0.75860191  0.16799135  0.19865730  1  0  -0.065585  0  3.756899  0  0  -0.046458  0  3.995494  0  0  -0.053072  0  4.017172  0  -0.014825  0  -0.013889  -0.042147  0  3.980953  0
C  C67  1  0.74140125  0.33200438  0.69866061  1  0  -0.065301  0  3.756445  0  0  -0.046354  0  3.995214  0  0  -0.052966  0  4.016899  0  -0.014977  0  -0.013823  -0.042048  0  3.98067  0
C  C68  1  0.42140256  0.81254934  0.75741732  1  0  -0.070336  0  3.71848  0  0  -0.09599  0  3.974029  0  0  -0.096609  0  3.99297  0  -0.083199  0  -0.082645  -0.095544  0  3.961315  0
C  C69  1  0.07858390  0.68744461  0.25742263  1  0  -0.069995  0  3.717998  0  0  -0.095626  0  3.973571  0  0  -0.096242  0  3.992505  0  -0.083399  0  -0.082478  -0.095186  0  3.960868  0
C  C70  1  0.57859653  0.18746042  0.24257141  1  0  -0.069999  0  3.71867  0  0  -0.095607  0  3.974179  0  0  -0.096222  0  3.993112  0  -0.082967  0  -0.08243  -0.095166  0  3.961466  0
C  C71  1  0.92140871  0.31255158  0.74258732  1  0  -0.070137  0  3.718212  0  0  -0.095752  0  3.973814  0  0  -0.096372  0  3.992758  0  -0.083273  0  -0.082563  -0.09531  0  3.961103  0
C  C72  1  0.06559833  0.71758244  0.71619458  1  0  -0.07064  0  3.729028  0  0  -0.09517  0  3.980911  0  0  -0.095539  0  3.999657  0  0.018743  0  -0.082215  -0.094872  0  3.968294  0
C  C73  1  0.43439823  0.78239931  0.21618663  1  0  -0.070669  0  3.728426  0  0  -0.095056  0  3.980255  0  0  -0.095419  0  3.998986  0  0.018815  0  -0.08204  -0.094761  0  3.967645  0
C  C74  1  0.93440771  0.28241105  0.28380940  1  0  -0.070814  0  3.728491  0  0  -0.095333  0  3.980369  0  0  -0.095703  0  3.999101  0  0.018493  0  -0.082079  -0.095036  0  3.967754  0
C  C75  1  0.56560602  0.21758603  0.78380940  1  0  -0.070745  0  3.729079  0  0  -0.095255  0  3.980914  0  0  -0.095625  0  3.999657  0  0.01856  0  -0.08212  -0.094957  0  3.968293  0
C  C76  1  0.06274585  0.78542001  0.77988005  1  0  -0.068877  0  3.72393  0  0  -0.093537  0  3.979205  0  0  -0.094179  0  3.998364  0  -0.125503  0  -0.083287  -0.093124  0  3.966432  0
C  C77  1  0.43725214  0.71455970  0.27988270  1  0  -0.069153  0  3.723984  0  0  -0.093885  0  3.979281  0  0  -0.094513  0  3.99842  0  -0.126407  0  -0.083441  -0.093475  0  3.966518  0
C  C78  1  0.93726301  0.21456805  0.22011001  1  0  -0.068779  0  3.723821  0  0  -0.093489  0  3.979101  0  0  -0.094114  0  3.998241  0  -0.125822  0  -0.083315  -0.093083  0  3.966331  0
C  C79  1  0.56276237  0.28541818  0.72011200  1  0  -0.068928  0  3.724154  0  0  -0.093549  0  3.979463  0  0  -0.094183  0  3.998618  0  -0.126013  0  -0.083373  -0.093138  0  3.966686  0
C  C80  1  0.05304527  0.11703484  0.45095102  1  0  -0.014598  0  3.821403  0  0  0.003569  0  4.072056  0  0  0.005011  0  4.095401  0  -0.146212  0  -0.007897  0.002643  0  4.056162  0
C  C81  1  0.44694729  0.38296360  0.95097289  1  0  -0.014621  0  3.821388  0  0  0.00363  0  4.07196  0  0  0.005067  0  4.095316  0  -0.1477  0  -0.007793  0.0027  0  4.05607  0
C  C82  1  0.94691758  0.88297017  0.54903904  1  0  -0.014433  0  3.82123  0  0  0.003722  0  4.071933  0  0  0.005155  0  4.095303  0  -0.146761  0  -0.007781  0.002802  0  4.056107  0
C  C83  1  0.55310411  0.61703734  0.04903572  1  0  -0.014603  0  3.821552  0  0  0.003598  0  4.07215  0  0  0.005009  0  4.095553  0  -0.147056  0  -0.007817  0.002677  0  4.056325  0
C  C84  1  0.91994156  0.06524821  0.39903373  1  0  -0.163108  0  3.711156  0  0  -0.191009  0  3.959397  0  0  -0.196356  0  3.982154  0  -0.023452  0  -0.098961  -0.187291  0  3.943949  0
C  C85  1  0.58005563  0.43474887  0.89904765  1  0  -0.162949  0  3.71124  0  0  -0.190932  0  3.959412  0  0  -0.196292  0  3.982177  0  -0.022487  0  -0.098957  -0.187221  0  3.943972  0
C  C86  1  0.08001988  0.93475952  0.60096096  1  0  -0.163393  0  3.711036  0  0  -0.191243  0  3.959328  0  0  -0.196604  0  3.982089  0  -0.021729  0  -0.09909  -0.187523  0  3.943898  0
C  C87  1  0.41999414  0.56524868  0.10096163  1  0  -0.163194  0  3.711715  0  0  -0.191047  0  3.960031  0  0  -0.196395  0  3.982811  0  -0.021985  0  -0.099113  -0.187327  0  3.94461  0
C  C88  1  0.98969795  0.99113823  0.35075949  1  0  0.165361  0  3.734154  0  0  0.188281  0  3.976042  0  0  0.190702  0  3.999051  0  -0.005141  0  -0.00529  0.186628  0  3.960226  0
C  C89  1  0.51028461  0.50886793  0.85078799  1  0  0.165646  0  3.733852  0  0  0.188666  0  3.975657  0  0  0.191075  0  3.998703  0  -0.005329  0  -0.00509  0.187012  0  3.959828  0
C  C90  1  0.01024722  0.00887695  0.64922062  1  0  0.165911  0  3.733437  0  0  0.188631  0  3.975627  0  0  0.191044  0  3.998661  0  -0.00703  0  -0.004958  0.186972  0  3.959832  0
C  C91  1  0.48975249  0.49115404  0.14924183  1  0  0.165834  0  3.734061  0  0  0.188434  0  3.97648  0  0  0.190849  0  3.999507  0  -0.006553  0  -0.004957  0.186776  0  3.960695  0
C  C92  1  0.19451298  0.96879427  0.35740937  1  0  -0.121262  0  3.727953  0  0  -0.144414  0  3.982391  0  0  -0.145201  0  4.002776  0  -0.003294  0  -0.096153  -0.143707  0  3.968366  0
C  C93  1  0.30545453  0.53121663  0.85745377  1  0  -0.121374  0  3.727949  0  0  -0.144735  0  3.982304  0  0  -0.145524  0  4.002703  0  -0.002714  0  -0.09627  -0.144044  0  3.968305  0
C  C94  1  0.80542323  0.03122294  0.64256213  1  0  -0.120989  0  3.727432  0  0  -0.144154  0  3.981845  0  0  -0.144953  0  4.002229  0  -0.003935  0  -0.096192  -0.143465  0  3.967862  0
C  C95  1  0.69456291  0.46880194  0.14259262  1  0  -0.120958  0  3.727387  0  0  -0.144123  0  3.981874  0  0  -0.144925  0  4.0023  0  -0.003804  0  -0.096083  -0.143419  0  3.967867  0
C  C96  1  0.33006423  0.02144399  0.40672874  1  0  -0.122158  0  3.799969  0  0  -0.147078  0  4.063123  0  0  -0.150674  0  4.083904  0  -0.060504  0  -0.107774  -0.144383  0  4.048664  0
C  C97  1  0.16993307  0.47856123  0.90677248  1  0  -0.122708  0  3.800353  0  0  -0.147406  0  4.06356  0  0  -0.151025  0  4.084369  0  -0.061032  0  -0.107861  -0.144715  0  4.049102  0
C  C98  1  0.66990486  0.97856781  0.59324806  1  0  -0.122339  0  3.800101  0  0  -0.147163  0  4.063306  0  0  -0.150779  0  4.084109  0  -0.06089  0  -0.107834  -0.14447  0  4.048852  0
C  C99  1  0.83010490  0.52144242  0.09326927  1  0  -0.122075  0  3.799586  0  0  -0.147034  0  4.062886  0  0  -0.150657  0  4.083707  0  -0.061102  0  -0.107885  -0.144337  0  4.048426  0
C  C100  1  0.26056287  0.09712561  0.45286633  1  0  -0.028861  0  3.80965  0  0  -0.010968  0  4.059533  0  0  -0.009652  0  4.081776  0  -0.237813  0  -0.014494  -0.011961  0  4.044631  0
C  C101  1  0.23943885  0.40287689  0.95290278  1  0  -0.028676  0  3.809619  0  0  -0.010872  0  4.059515  0  0  -0.00951  0  4.081668  0  -0.237508  0  -0.014667  -0.011866  0  4.044613  0
C  C102  1  0.73939390  0.90287736  0.54712042  1  0  -0.028975  0  3.809698  0  0  -0.011151  0  4.059684  0  0  -0.009769  0  4.081802  0  -0.238757  0  -0.014613  -0.012146  0  4.044856  0
C  C103  1  0.76061727  0.59713015  0.04712440  1  0  -0.029295  0  3.809869  0  0  -0.011385  0  4.059785  0  0  -0.009968  0  4.081839  0  -0.238521  0  -0.014679  -0.012375  0  4.044957  0
C  C104  1  0.85030547  0.93701860  0.29210286  1  0  -0.347367  0  3.697974  0  0  -0.427164  0  3.933907  0  0  -0.430009  0  3.943002  0  -0.086345  0  -0.245481  -0.424877  0  3.92746  0
C  C105  1  0.64966328  0.56297942  0.79212473  1  0  -0.347715  0  3.69796  0  0  -0.427548  0  3.933819  0  0  -0.430404  0  3.942925  0  -0.086887  0  -0.245685  -0.42526  0  3.927373  0
C  C106  1  0.14962892  0.06298913  0.70787925  1  0  -0.347711  0  3.697782  0  0  -0.427446  0  3.933673  0  0  -0.430302  0  3.942779  0  -0.087607  0  -0.245642  -0.425154  0  3.927233  0
C  C107  1  0.35035862  0.43703779  0.20789648  1  0  -0.347778  0  3.697992  0  0  -0.427615  0  3.933948  0  0  -0.430466  0  3.943042  0  -0.085629  0  -0.245664  -0.425328  0  3.927518  0
S  S108  1  0.99163128  0.20709565  0.51858838  1  0  0.275175  0  2.761718  0  0  0.264221  0  3.124454  0  0  0.269003  0  3.135083  0  0.670034  0  0.233765  0.260718  0  3.118031  0
S  S109  1  0.50838259  0.29290550  0.01861025  1  0  0.275282  0  2.76149  0  0  0.264305  0  3.124204  0  0  0.269006  0  3.134868  0  0.671037  0  0.23375  0.260765  0  3.11779  0
S  S110  1  0.00832739  0.79291886  0.48139638  1  0  0.275157  0  2.761862  0  0  0.264372  0  3.124555  0  0  0.269068  0  3.135227  0  0.671708  0  0.233814  0.260795  0  3.118256  0
S  S111  1  0.49169105  0.70708662  0.98139572  1  0  0.275191  0  2.762033  0  0  0.264375  0  3.124734  0  0  0.269152  0  3.135391  0  0.671532  0  0.233839  0.260836  0  3.118427  0
S  S112  1  0.39979411  0.17425520  0.51600172  1  0  0.23341  0  2.674057  0  0  0.225847  0  3.027853  0  0  0.227741  0  3.035635  0  0.592355  0  0.204484  0.224807  0  3.02298  0
S  S113  1  0.10023013  0.32574663  0.01604215  1  0  0.233471  0  2.673888  0  0  0.22597  0  3.027607  0  0  0.227779  0  3.035414  0  0.592814  0  0.204612  0.224892  0  3.022744  0
S  S114  1  0.60017930  0.82575117  0.48397773  1  0  0.233256  0  2.674244  0  0  0.225894  0  3.027961  0  0  0.227692  0  3.035772  0  0.59242  0  0.204493  0.224783  0  3.02321  0
S  S115  1  0.89984821  0.67425092  0.98398436  1  0  0.233355  0  2.674458  0  0  0.225963  0  3.028152  0  0  0.227826  0  3.035934  0  0.592287  0  0.204562  0.224889  0  3.023391  0
N  N116  1  0.21774028  0.24248612  0.54913646  1  0  -0.439798  0  2.765199  0  0  -0.40174  0  3.083755  0  0  -0.41598  0  3.092592  0  -1.106681  0  -0.326302  -0.391614  0  3.077501  0
N  N117  1  0.28228072  0.25750892  0.04915634  1  0  -0.439795  0  2.764946  0  0  -0.401699  0  3.083523  0  0  -0.416058  0  3.092429  0  -1.107278  0  -0.326242  -0.391634  0  3.077285  0
N  N118  1  0.78223161  0.75751956  0.45085360  1  0  -0.439972  0  2.765504  0  0  -0.401677  0  3.083985  0  0  -0.416041  0  3.092891  0  -1.106977  0  -0.326298  -0.391594  0  3.077852  0
N  N119  1  0.71779423  0.74247778  0.95084697  1  0  -0.439977  0  2.765472  0  0  -0.4017  0  3.084001  0  0  -0.415956  0  3.092868  0  -1.106766  0  -0.326295  -0.391552  0  3.077841  0
O  O120  1  0.25132212  0.05507115  0.00497581  1  0  -1.074355  0  1.971574  0  0  -1.008823  0  2.201127  0  0  -1.026166  0  2.167952  0  -1.475448  0  -0.45707  -0.996193  0  2.224121  0
O  O121  1  0.24868218  0.44491915  0.50497117  1  0  -1.074526  0  1.971614  0  0  -1.00904  0  2.200984  0  0  -1.02635  0  2.167875  0  -1.475512  0  -0.457135  -0.996429  0  2.223947  0
O  O122  1  0.74867330  0.94491962  0.99501955  1  0  -1.074528  0  1.971774  0  0  -1.009032  0  2.201237  0  0  -1.026344  0  2.168123  0  -1.475384  0  -0.457079  -0.996409  0  2.22421  0
O  O123  1  0.75132999  0.55507772  0.49502817  1  0  -1.0745  0  1.971777  0  0  -1.009101  0  2.201124  0  0  -1.02641  0  2.168013  0  -1.475479  0  -0.457115  -0.996482  0  2.2241  0
O  O124  1  0.07177327  0.93077238  0.89767712  1  0  -0.656819  0  2.11331  0  0  -0.592707  0  2.348808  0  0  -0.616152  0  2.336745  0  -1.258155  0  -0.231366  -0.576578  0  2.356877  0
O  O125  1  0.42822078  0.56922360  0.39768043  1  0  -0.656691  0  2.11359  0  0  -0.592681  0  2.348985  0  0  -0.616139  0  2.336921  0  -1.258169  0  -0.231414  -0.57656  0  2.357044  0
O  O126  1  0.92822669  0.06921906  0.10232421  1  0  -0.656816  0  2.113263  0  0  -0.592692  0  2.348754  0  0  -0.616158  0  2.336695  0  -1.258128  0  -0.231337  -0.576553  0  2.356812  0
O  O127  1  0.57177939  0.43077395  0.60232686  1  0  -0.656745  0  2.1136  0  0  -0.592698  0  2.349087  0  0  -0.616123  0  2.337  0  -1.258151  0  -0.231411  -0.576596  0  2.357153  0
O  O128  1  0.07671382  0.58539527  0.58945987  1  0  -0.662735  0  2.145219  0  0  -0.603604  0  2.38632  0  0  -0.62683  0  2.374299  0  -1.260702  0  -0.234316  -0.58748  0  2.394185  0
O  O129  1  0.42329321  0.91458512  0.08945590  1  0  -0.66274  0  2.145006  0  0  -0.603605  0  2.386198  0  0  -0.626828  0  2.374166  0  -1.260379  0  -0.234386  -0.587474  0  2.394063  0
O  O130  1  0.92330270  0.41459685  0.41054278  1  0  -0.662775  0  2.145367  0  0  -0.603752  0  2.386541  0  0  -0.626974  0  2.374505  0  -1.260734  0  -0.234403  -0.587625  0  2.394402  0
O  O131  1  0.57670502  0.08540022  0.91054410  1  0  -0.662723  0  2.145284  0  0  -0.60368  0  2.38639  0  0  -0.6269  0  2.374355  0  -1.260696  0  -0.234361  -0.587549  0  2.394251  0
O  O132  1  0.41048202  0.91860955  0.90929220  1  0  -0.664909  0  2.136903  0  0  -0.601347  0  2.377339  0  0  -0.624609  0  2.364911  0  -1.258099  0  -0.230308  -0.585226  0  2.38557  0
O  O133  1  0.08950451  0.58138643  0.40930214  1  0  -0.664846  0  2.136636  0  0  -0.6013  0  2.376871  0  0  -0.624552  0  2.364423  0  -1.257997  0  -0.230247  -0.585172  0  2.385057  0
O  O134  1  0.58951185  0.08137986  0.09070382  1  0  -0.664921  0  2.136753  0  0  -0.601375  0  2.377213  0  0  -0.624624  0  2.364756  0  -1.258275  0  -0.23034  -0.585262  0  2.385447  0
O  O135  1  0.91050005  0.41860773  0.59069786  1  0  -0.664755  0  2.136821  0  0  -0.601224  0  2.377206  0  0  -0.624487  0  2.364785  0  -1.258408  0  -0.230257  -0.585071  0  2.385333  0
O  O136  1  0.41566899  0.59908472  0.57510107  1  0  -0.663132  0  2.119633  0  0  -0.601706  0  2.363686  0  0  -0.62483  0  2.351336  0  -1.255304  0  -0.23404  -0.585691  0  2.371863  0
O  O137  1  0.08434272  0.90090041  0.07509378  1  0  -0.662884  0  2.120179  0  0  -0.601448  0  2.364262  0  0  -0.624526  0  2.351887  0  -1.255469  0  -0.233981  -0.585437  0  2.37244  0
O  O138  1  0.58435512  0.40090943  0.42490026  1  0  -0.662795  0  2.119874  0  0  -0.601444  0  2.363955  0  0  -0.624561  0  2.351605  0  -1.255405  0  -0.233928  -0.585436  0  2.372129  0
O  O139  1  0.91567381  0.09909239  0.92490622  1  0  -0.66296  0  2.119541  0  0  -0.601614  0  2.363625  0  0  -0.624715  0  2.35125  0  -1.255267  0  -0.234078  -0.5856  0  2.371798  0
