# generated using pymatgen
data_CdH14C20N2(O3F2)2
_symmetry_space_group_name_H-M   'P 1'
_cell_length_a   7.02347084
_cell_length_b   7.83310635
_cell_length_c   9.91083304
_cell_angle_alpha   76.05526971
_cell_angle_beta   68.54610131
_cell_angle_gamma   79.49649966
_symmetry_Int_Tables_number   1
_chemical_formula_structural   CdH14C20N2(O3F2)2
_chemical_formula_sum   'Cd1 H14 C20 N2 O6 F4'
_cell_volume   489.83235990
_cell_formula_units_Z   1
loop_
 _symmetry_equiv_pos_site_id
 _symmetry_equiv_pos_as_xyz
  1  'x, y, z'
loop_
 _atom_site_type_symbol
 _atom_site_label
 _atom_site_symmetry_multiplicity
 _atom_site_fract_x
 _atom_site_fract_y
 _atom_site_fract_z
 _atom_site_occupancy
 _atom_site_hle17_bader_spin_density
 _atom_site_hle17_ddec_charge
 _atom_site_hle17_ddec_spin_density
 _atom_site_hle17_ddec_sum_bond_order
 _atom_site_hle17_magmom
 _atom_site_hse06_10hf_bader_spin_density
 _atom_site_hse06_10hf_ddec_charge
 _atom_site_hse06_10hf_ddec_spin_density
 _atom_site_hse06_10hf_ddec_sum_bond_order
 _atom_site_hse06_10hf_magmom
 _atom_site_hse06_bader_spin_density
 _atom_site_hse06_ddec_charge
 _atom_site_hse06_ddec_spin_density
 _atom_site_hse06_ddec_sum_bond_order
 _atom_site_hse06_magmom
 _atom_site_pbe_bader_spin_density
 _atom_site_pbe_cm5_charge
 _atom_site_pbe_ddec_charge
 _atom_site_pbe_ddec_spin_density
 _atom_site_pbe_ddec_sum_bond_order
 _atom_site_pbe_magmom
Cd  Cd0  1  0.99999830  0.00000038  0.99999935  1  0  1.133813  0  1.671189  0  0  0.947239  0  2.110584  0  0  1.000574  0  2.060319  0  0  0.77404  0.910026  0  2.14391  0
H  H1  1  0.41273566  0.91616258  0.92237076  1  0  0.411818  0  0.892515  0  0  0.379625  0  0.958448  0  0  0.391233  0  0.941598  0  0  0.283221  0.371459  0  0.970287  0
H  H2  1  0.58725048  0.08382374  0.07764505  1  0  0.411859  0  0.892468  0  0  0.379664  0  0.958424  0  0  0.391298  0  0.941506  0  0  0.283212  0.371527  0  0.97019  0
H  H3  1  0.36092277  0.85191371  0.09258075  1  0  0.41738  0  0.881512  0  0  0.386295  0  0.946348  0  0  0.396385  0  0.931656  0  0  0.28724  0.379268  0  0.956521  0
H  H4  1  0.63906892  0.14808686  0.90742819  1  0  0.417502  0  0.881343  0  0  0.386469  0  0.94605  0  0  0.396489  0  0.931524  0  0  0.287278  0.37937  0  0.95639  0
H  H5  1  0.88617304  0.18225401  0.51327730  1  0  0.106673  0  0.957461  0  0  0.115931  0  1.020858  0  0  0.118844  0  1.020481  0  0  0.10579  0.113995  0  1.021584  0
H  H6  1  0.11380742  0.81777107  0.48671675  1  0  0.106582  0  0.957688  0  0  0.115898  0  1.021032  0  0  0.118774  0  1.020694  0  0  0.105819  0.113961  0  1.021749  0
H  H7  1  0.08938005  0.64199694  0.36269014  1  0  0.099491  0  0.941244  0  0  0.112543  0  1.00023  0  0  0.11566  0  0.998316  0  0  0.105546  0.110267  0  1.001626  0
H  H8  1  0.91062764  0.35800970  0.63729681  1  0  0.099423  0  0.941274  0  0  0.112543  0  1.000111  0  0  0.115608  0  0.998333  0  0  0.105528  0.110222  0  1.001635  0
H  H9  1  0.18828596  0.56173109  0.12752791  1  0  0.125138  0  0.952396  0  0  0.134817  0  1.014246  0  0  0.138629  0  1.011801  0  0  0.108832  0.132123  0  1.015198  0
H  H10  1  0.81173127  0.43827248  0.87245435  1  0  0.125175  0  0.952407  0  0  0.134898  0  1.014001  0  0  0.138552  0  1.011964  0  0  0.108799  0.132083  0  1.015319  0
H  H11  1  0.88056404  0.00048596  0.34268024  1  0  0.083368  0  0.957628  0  0  0.087741  0  1.028727  0  0  0.090848  0  1.025683  0  0  0.111735  0.085413  0  1.031021  0
H  H12  1  0.11941822  0.99952708  0.65732160  1  0  0.08335  0  0.957595  0  0  0.087715  0  1.028719  0  0  0.090818  0  1.025669  0  0  0.111684  0.085384  0  1.031005  0
H  H13  1  0.17475689  0.35956187  0.97452894  1  0  0.070274  0  0.974693  0  0  0.074395  0  1.047507  0  0  0.076423  0  1.046089  0  0  0.10882  0.072232  0  1.049578  0
H  H14  1  0.82525759  0.64042321  0.02546836  1  0  0.070277  0  0.974641  0  0  0.073894  0  1.048232  0  0  0.076394  0  1.046101  0  0  0.108789  0.072212  0  1.04956  0
C  C15  1  0.95396337  0.22798843  0.39462821  1  0  -0.159301  0  3.690708  0  0  -0.174596  0  3.935339  0  0  -0.183438  0  3.958504  0  0  -0.082273  -0.171733  0  3.922245  0
C  C16  1  0.04601312  0.77203037  0.60536283  1  0  -0.159171  0  3.690765  0  0  -0.174483  0  3.935342  0  0  -0.183326  0  3.958575  0  0  -0.08231  -0.171653  0  3.922286  0
C  C17  1  0.03364495  0.51516830  0.42540004  1  0  -0.098374  0  3.713659  0  0  -0.120861  0  3.970815  0  0  -0.123997  0  3.991185  0  0  -0.079692  -0.117807  0  3.955054  0
C  C18  1  0.96636901  0.48483806  0.57458349  1  0  -0.098517  0  3.713743  0  0  -0.120849  0  3.970516  0  0  -0.124102  0  3.991223  0  0  -0.079682  -0.117925  0  3.955077  0
C  C19  1  0.11953853  0.43801570  0.18088651  1  0  -0.146396  0  3.657033  0  0  -0.169147  0  3.908059  0  0  -0.175619  0  3.92567  0  0  -0.076735  -0.161078  0  3.891983  0
C  C20  1  0.88046973  0.56198574  0.81909620  1  0  -0.146528  0  3.657413  0  0  -0.168839  0  3.907588  0  0  -0.175651  0  3.926031  0  0  -0.076713  -0.16115  0  3.892325  0
C  C21  1  0.53014051  0.65548160  0.52793611  1  0  0.1967  0  3.814984  0  0  0.157737  0  4.122008  0  0  0.166872  0  4.130826  0  0  0.087176  0.150755  0  4.118024  0
C  C22  1  0.46986023  0.34451579  0.47207634  1  0  0.196714  0  3.815  0  0  0.157116  0  4.123778  0  0  0.166812  0  4.130853  0  0  0.087135  0.150683  0  4.118046  0
C  C23  1  0.03596525  0.39198215  0.33563402  1  0  0.136554  0  3.78846  0  0  0.150243  0  4.023388  0  0  0.155532  0  4.045919  0  0  0.007765  0.147125  0  4.006921  0
C  C24  1  0.96403658  0.60801953  0.66435519  1  0  0.136508  0  3.788798  0  0  0.150353  0  4.023247  0  0  0.155459  0  4.046241  0  0  0.007656  0.147081  0  4.007232  0
C  C25  1  0.61604307  0.80469514  0.25943716  1  0  0.711309  0  3.891213  0  0  0.650222  0  4.206949  0  0  0.686393  0  4.194309  0  0  0.220097  0.625955  0  4.214207  0
C  C26  1  0.38395357  0.19529993  0.74057060  1  0  0.711143  0  3.891145  0  0  0.650416  0  4.206006  0  0  0.686305  0  4.194125  0  0  0.220136  0.625865  0  4.214017  0
C  C27  1  0.95026656  0.12461847  0.30031266  1  0  0.125903  0  3.716815  0  0  0.092432  0  3.9724  0  0  0.100078  0  3.989752  0  0  0.037453  0.088033  0  3.961751  0
C  C28  1  0.04972996  0.87539129  0.69968139  1  0  0.125908  0  3.716689  0  0  0.092497  0  3.97218  0  0  0.100085  0  3.989638  0  0  0.03752  0.08804  0  3.961649  0
C  C29  1  0.52082902  0.48993944  0.35829241  1  0  0.194832  0  3.795027  0  0  0.153787  0  4.105131  0  0  0.165188  0  4.111324  0  0  0.086189  0.1472  0  4.099811  0
C  C30  1  0.47918078  0.51005476  0.64172355  1  0  0.194884  0  3.794971  0  0  0.155564  0  4.103028  0  0  0.165138  0  4.111349  0  0  0.086125  0.147118  0  4.099878  0
C  C31  1  0.11270422  0.32532116  0.09444291  1  0  0.131977  0  3.723955  0  0  0.101464  0  3.97656  0  0  0.109325  0  3.994702  0  0  0.042103  0.096331  0  3.963858  0
C  C32  1  0.88730676  0.67467333  0.90555252  1  0  0.132181  0  3.723806  0  0  0.1016  0  3.976773  0  0  0.10953  0  3.994529  0  0  0.042223  0.096534  0  3.9637  0
C  C33  1  0.55094453  0.64829377  0.38426727  1  0  -0.217794  0  3.7764  0  0  -0.223592  0  4.053847  0  0  -0.228174  0  4.065973  0  0  -0.028868  -0.220372  0  4.044709  0
C  C34  1  0.44906191  0.35171523  0.61573875  1  0  -0.217851  0  3.776441  0  0  -0.223042  0  4.052236  0  0  -0.228204  0  4.066013  0  0  -0.028905  -0.220377  0  4.044731  0
N  N35  1  0.02661185  0.17229695  0.15191392  1  0  -0.342764  0  3.254319  0  0  -0.26058  0  3.51392  0  0  -0.280802  0  3.532153  0  0  -0.334205  -0.248446  0  3.501803  0
N  N36  1  0.97338387  0.82770104  0.84808040  1  0  -0.342779  0  3.254254  0  0  -0.260498  0  3.51357  0  0  -0.280811  0  3.53208  0  0  -0.334163  -0.248453  0  3.501721  0
O  O37  1  0.80646216  0.82183905  0.21505288  1  0  -0.631641  0  1.994568  0  0  -0.566869  0  2.249642  0  0  -0.596325  0  2.238675  0  0  -0.315085  -0.546319  0  2.25608  0
O  O38  1  0.19353891  0.17814015  0.78494760  1  0  -0.631545  0  1.994493  0  0  -0.566753  0  2.249337  0  0  -0.596248  0  2.238561  0  0  -0.315093  -0.546243  0  2.255966  0
O  O39  1  0.47956375  0.90066356  0.21233434  1  0  -0.626834  0  1.946734  0  0  -0.571366  0  2.165217  0  0  -0.596343  0  2.153035  0  0  -0.308377  -0.553681  0  2.172574  0
O  O40  1  0.52042703  0.09932521  0.78767692  1  0  -0.626824  0  1.94681  0  0  -0.571282  0  2.164875  0  0  -0.596381  0  2.153127  0  0  -0.308466  -0.553714  0  2.172664  0
O  O41  1  0.32278926  0.83894313  0.00918447  1  0  -0.823669  0  1.844283  0  0  -0.768763  0  2.025898  0  0  -0.790025  0  1.99222  0  0  -0.590869  -0.753881  0  2.04903  0
O  O42  1  0.67719761  0.16105496  0.99083210  1  0  -0.823877  0  1.84411  0  0  -0.769055  0  2.025868  0  0  -0.790217  0  1.992036  0  0  -0.590912  -0.754079  0  2.048855  0
F  F43  1  0.54364598  0.47588101  0.21909450  1  0  -0.166578  0  1.232722  0  0  -0.103466  0  1.387286  0  0  -0.119457  0  1.386822  0  0  -0.078053  -0.097638  0  1.39324  0
F  F44  1  0.45636356  0.52411714  0.78092183  1  0  -0.166557  0  1.23257  0  0  -0.109758  0  1.394178  0  0  -0.119394  0  1.386682  0  0  -0.078009  -0.097588  0  1.393142  0
F  F45  1  0.56119078  0.80637800  0.55770808  1  0  -0.164857  0  1.227958  0  0  -0.109484  0  1.385452  0  0  -0.117369  0  1.37693  0  0  -0.084752  -0.104064  0  1.391831  0
F  F46  1  0.43883520  0.19360893  0.44229733  1  0  -0.164876  0  1.227814  0  0  -0.109816  0  1.385898  0  0  -0.117362  0  1.376777  0  0  -0.084753  -0.104061  0  1.391685  0
