# generated using pymatgen
data_CuH6C5NO4
_symmetry_space_group_name_H-M   'P 1'
_cell_length_a   7.11881421
_cell_length_b   8.45373493
_cell_length_c   12.56008753
_cell_angle_alpha   92.81814060
_cell_angle_beta   89.99881010
_cell_angle_gamma   114.87283558
_symmetry_Int_Tables_number   1
_chemical_formula_structural   CuH6C5NO4
_chemical_formula_sum   'Cu4 H24 C20 N4 O16'
_cell_volume   684.75370311
_cell_formula_units_Z   4
loop_
 _symmetry_equiv_pos_site_id
 _symmetry_equiv_pos_as_xyz
  1  'x, y, z'
loop_
 _atom_site_type_symbol
 _atom_site_label
 _atom_site_symmetry_multiplicity
 _atom_site_fract_x
 _atom_site_fract_y
 _atom_site_fract_z
 _atom_site_occupancy
 _atom_site_hle17_bader_spin_density
 _atom_site_hle17_ddec_charge
 _atom_site_hle17_ddec_spin_density
 _atom_site_hle17_ddec_sum_bond_order
 _atom_site_hle17_magmom
 _atom_site_hse06_10hf_bader_spin_density
 _atom_site_hse06_10hf_ddec_charge
 _atom_site_hse06_10hf_ddec_spin_density
 _atom_site_hse06_10hf_ddec_sum_bond_order
 _atom_site_hse06_10hf_magmom
 _atom_site_hse06_bader_spin_density
 _atom_site_hse06_ddec_charge
 _atom_site_hse06_ddec_spin_density
 _atom_site_hse06_ddec_sum_bond_order
 _atom_site_hse06_magmom
 _atom_site_pbe_bader_spin_density
 _atom_site_pbe_cm5_charge
 _atom_site_pbe_ddec_charge
 _atom_site_pbe_ddec_spin_density
 _atom_site_pbe_ddec_sum_bond_order
 _atom_site_pbe_magmom
Cu  Cu0  1  0.48102612  0.34904647  0.95192892  1  0  0.789658  0  1.878195  0  0  0.727356  0  2.306207  0  0  0.769606  0  2.241974  0  0  0.650563  0.700798  0  2.349463  0
Cu  Cu1  1  0.13208720  0.65083134  0.54814127  1  0  0.789939  0  1.877299  0  0  0.727173  0  2.305806  0  0  0.769691  0  2.241305  0  0  0.650673  0.700409  0  2.349516  0
Cu  Cu2  1  0.51899301  0.65090418  0.04805384  1  0  0.789653  0  1.877695  0  0  0.727278  0  2.306076  0  0  0.769671  0  2.241793  0  0  0.650669  0.700761  0  2.349289  0
Cu  Cu3  1  0.86809507  0.34932490  0.45188638  1  0  0.789238  0  1.878215  0  0  0.727086  0  2.306197  0  0  0.76931  0  2.242018  0  0  0.65071  0.700588  0  2.349359  0
H  H4  1  0.23301957  0.59150767  0.77999891  1  0  0.059006  0  0.923511  0  0  0.064517  0  0.991706  0  0  0.063386  0  0.989356  0  0  0.128177  0.064959  0  0.993645  0
H  H5  1  0.64162665  0.40860459  0.72007131  1  0  0.058585  0  0.923816  0  0  0.064172  0  0.991963  0  0  0.063027  0  0.98962  0  0  0.128009  0.064612  0  0.993935  0
H  H6  1  0.76700203  0.40851820  0.22001395  1  0  0.058981  0  0.923592  0  0  0.064528  0  0.99176  0  0  0.063405  0  0.989396  0  0  0.128167  0.064959  0  0.993728  0
H  H7  1  0.35822923  0.59128642  0.27988914  1  0  0.058549  0  0.923935  0  0  0.064285  0  0.991852  0  0  0.06315  0  0.989497  0  0  0.12811  0.064716  0  0.993837  0
H  H8  1  0.98694002  0.27583068  0.11036760  1  0  0.050094  0  0.909211  0  0  0.056917  0  0.977294  0  0  0.055475  0  0.974953  0  0  0.127095  0.057547  0  0.979206  0
H  H9  1  0.71152453  0.72481475  0.38978513  1  0  0.050018  0  0.908847  0  0  0.057023  0  0.976717  0  0  0.055607  0  0.974346  0  0  0.127129  0.057648  0  0.978625  0
H  H10  1  0.01308862  0.72421208  0.88965071  1  0  0.050149  0  0.909103  0  0  0.056989  0  0.977174  0  0  0.05555  0  0.974825  0  0  0.127098  0.057622  0  0.979083  0
H  H11  1  0.28837339  0.27504516  0.61016133  1  0  0.050111  0  0.908851  0  0  0.057127  0  0.976715  0  0  0.05572  0  0.974338  0  0  0.12712  0.057736  0  0.978624  0
H  H12  1  0.11822753  0.10479525  0.83140595  1  0  0.08913  0  0.975784  0  0  0.096103  0  1.043341  0  0  0.098943  0  1.041795  0  0  0.117114  0.093912  0  1.044826  0
H  H13  1  0.01350176  0.89525310  0.66862518  1  0  0.089456  0  0.975573  0  0  0.095936  0  1.043423  0  0  0.098866  0  1.041823  0  0  0.117113  0.09367  0  1.044958  0
H  H14  1  0.88177144  0.89521627  0.16860633  1  0  0.089288  0  0.975638  0  0  0.096177  0  1.043258  0  0  0.099016  0  1.041718  0  0  0.117169  0.094003  0  1.044714  0
H  H15  1  0.98647223  0.10474779  0.33139622  1  0  0.08942  0  0.975734  0  0  0.09592  0  1.043592  0  0  0.098777  0  1.042074  0  0  0.117129  0.093655  0  1.045132  0
H  H16  1  0.76726545  0.19461512  0.92157381  1  0  0.137058  0  0.953927  0  0  0.155733  0  1.015703  0  0  0.158482  0  1.013698  0  0  0.099769  0.153657  0  1.017261  0
H  H17  1  0.57217471  0.80491854  0.57834157  1  0  0.13712  0  0.953666  0  0  0.155929  0  1.015307  0  0  0.158655  0  1.013339  0  0  0.099895  0.153853  0  1.016881  0
H  H18  1  0.23272295  0.80538367  0.07842043  1  0  0.137074  0  0.953892  0  0  0.155697  0  1.015714  0  0  0.15844  0  1.013723  0  0  0.099751  0.153629  0  1.017267  0
H  H19  1  0.42781952  0.19509191  0.42165792  1  0  0.137113  0  0.953568  0  0  0.155949  0  1.015198  0  0  0.158651  0  1.013252  0  0  0.099926  0.153875  0  1.016775  0
H  H20  1  0.87821683  0.19133457  0.79488879  1  0  0.121047  0  0.934334  0  0  0.145915  0  0.989784  0  0  0.146649  0  0.990211  0  0  0.097957  0.145254  0  0.989643  0
H  H21  1  0.68671776  0.80814931  0.70494373  1  0  0.121516  0  0.933985  0  0  0.146347  0  0.989507  0  0  0.147118  0  0.989895  0  0  0.098078  0.145723  0  0.989322  0
H  H22  1  0.12177618  0.80867344  0.20510185  1  0  0.121068  0  0.934356  0  0  0.145915  0  0.989811  0  0  0.146658  0  0.990231  0  0  0.09797  0.145252  0  0.989676  0
H  H23  1  0.31327510  0.19186120  0.29505258  1  0  0.121395  0  0.934058  0  0  0.146218  0  0.989613  0  0  0.14699  0  0.989994  0  0  0.098014  0.145598  0  0.989426  0
H  H24  1  0.78158979  0.00010447  0.86958389  1  0  0.130939  0  0.949583  0  0  0.151756  0  1.011108  0  0  0.153256  0  1.011029  0  0  0.098925  0.150581  0  1.0113  0
H  H25  1  0.78106321  0.99933944  0.63018014  1  0  0.131735  0  0.948664  0  0  0.152342  0  1.010537  0  0  0.153842  0  1.010473  0  0  0.099118  0.151225  0  1.010648  0
H  H26  1  0.21839841  0.99989954  0.13041136  1  0  0.130885  0  0.94965  0  0  0.151762  0  1.011105  0  0  0.153283  0  1.010998  0  0  0.098939  0.150574  0  1.011312  0
H  H27  1  0.21892083  0.00068156  0.36981500  1  0  0.131694  0  0.948746  0  0  0.152301  0  1.010618  0  0  0.153807  0  1.010535  0  0  0.099059  0.151188  0  1.010727  0
C  C28  1  0.31937186  0.57224525  0.84752610  1  0  0.55391  0  3.868297  0  0  0.492325  0  4.177339  0  0  0.527801  0  4.170298  0  0  0.147338  0.468427  0  4.181533  0
C  C29  1  0.74723058  0.42791216  0.65254328  1  0  0.554977  0  3.868145  0  0  0.492892  0  4.177938  0  0  0.528392  0  4.170885  0  0  0.147472  0.468986  0  4.182103  0
C  C30  1  0.68064690  0.42774682  0.15247743  1  0  0.554112  0  3.868216  0  0  0.492497  0  4.177242  0  0  0.527974  0  4.17019  0  0  0.147435  0.468596  0  4.18144  0
C  C31  1  0.25273777  0.57207742  0.34745458  1  0  0.555009  0  3.868121  0  0  0.492918  0  4.177853  0  0  0.528411  0  4.170783  0  0  0.147566  0.469021  0  4.182019  0
C  C32  1  0.14405491  0.34155395  0.07799168  1  0  0.55771  0  3.874508  0  0  0.494571  0  4.184333  0  0  0.530519  0  4.1766  0  0  0.150292  0.470434  0  4.18898  0
C  C33  1  0.80278697  0.65889977  0.42214234  1  0  0.557562  0  3.873665  0  0  0.494448  0  4.183335  0  0  0.530356  0  4.175645  0  0  0.150587  0.470335  0  4.18793  0
C  C34  1  0.85597214  0.65844066  0.92201593  1  0  0.557638  0  3.8742  0  0  0.494485  0  4.184024  0  0  0.530432  0  4.176296  0  0  0.150209  0.470347  0  4.188667  0
C  C35  1  0.19720484  0.34108334  0.57785207  1  0  0.557234  0  3.873852  0  0  0.494084  0  4.183546  0  0  0.529985  0  4.175881  0  0  0.150434  0.469994  0  4.188107  0
C  C36  1  0.54736268  0.05672287  0.79667733  1  0  0.232807  0  3.658753  0  0  0.239768  0  3.905936  0  0  0.244352  0  3.925238  0  0  0.135621  0.236523  0  3.893057  0
C  C37  1  0.49052271  0.94303219  0.70324863  1  0  0.23298  0  3.658582  0  0  0.239943  0  3.905878  0  0  0.244538  0  3.925197  0  0  0.135668  0.236689  0  3.893013  0
C  C38  1  0.45263528  0.94328099  0.20332509  1  0  0.232852  0  3.658481  0  0  0.239752  0  3.905683  0  0  0.24433  0  3.925001  0  0  0.135565  0.236516  0  3.89279  0
C  C39  1  0.50946204  0.05696772  0.29675522  1  0  0.233036  0  3.658749  0  0  0.24004  0  3.906053  0  0  0.244631  0  3.925366  0  0  0.135729  0.236782  0  3.893186  0
C  C40  1  0.22380045  0.05683262  0.79460139  1  0  0.062958  0  3.724435  0  0  0.03215  0  3.992253  0  0  0.033798  0  4.009626  0  0  0.036225  0.030789  0  3.981416  0
C  C41  1  0.16697140  0.94312175  0.70541259  1  0  0.063401  0  3.725079  0  0  0.033611  0  3.992034  0  0  0.035174  0  4.009387  0  0  0.036564  0.032356  0  3.981161  0
C  C42  1  0.77619791  0.94317766  0.20540686  1  0  0.062607  0  3.724891  0  0  0.031846  0  3.992739  0  0  0.033498  0  4.010096  0  0  0.03606  0.030481  0  3.981913  0
C  C43  1  0.83300184  0.05688322  0.29460022  1  0  0.06347  0  3.725541  0  0  0.033645  0  3.992476  0  0  0.035265  0  4.009838  0  0  0.03662  0.032385  0  3.981622  0
C  C44  1  0.75541241  0.11429401  0.84881359  1  0  -0.363818  0  3.683941  0  0  -0.44738  0  3.917484  0  0  -0.450322  0  3.925669  0  0  -0.238535  -0.444928  0  3.912  0
C  C45  1  0.64082397  0.88524577  0.65106272  1  0  -0.365302  0  3.682942  0  0  -0.448753  0  3.916749  0  0  -0.451717  0  3.924903  0  0  -0.238826  -0.446369  0  3.911255  0
C  C46  1  0.24457655  0.88570871  0.15118082  1  0  -0.363889  0  3.683617  0  0  -0.447443  0  3.91724  0  0  -0.450399  0  3.925407  0  0  -0.238583  -0.444985  0  3.911787  0
C  C47  1  0.35916475  0.11476209  0.34893588  1  0  -0.365185  0  3.683067  0  0  -0.448656  0  3.916859  0  0  -0.451594  0  3.925031  0  0  -0.238743  -0.446269  0  3.911355  0
N  N48  1  0.41382295  0.11409647  0.84017164  1  0  -0.309366  0  3.166284  0  0  -0.265987  0  3.443626  0  0  -0.276246  0  3.453165  0  0  -0.317564  -0.259577  0  3.437896  0
N  N49  1  0.29965639  0.88575519  0.65979742  1  0  -0.309252  0  3.167611  0  0  -0.265777  0  3.444629  0  0  -0.276093  0  3.454236  0  0  -0.317292  -0.259325  0  3.438875  0
N  N50  1  0.58618182  0.88591258  0.15983258  1  0  -0.309397  0  3.166251  0  0  -0.265908  0  3.443501  0  0  -0.276175  0  3.453059  0  0  -0.317519  -0.259498  0  3.43776  0
N  N51  1  0.70031900  0.11424848  0.34021534  1  0  -0.309193  0  3.167314  0  0  -0.265851  0  3.444376  0  0  -0.276117  0  3.453955  0  0  -0.317257  -0.25942  0  3.438565  0
O  O52  1  0.34529392  0.43270954  0.83999215  1  0  -0.547551  0  2.159209  0  0  -0.504817  0  2.439587  0  0  -0.533328  0  2.427928  0  0  -0.3114  -0.485544  0  2.447004  0
O  O53  1  0.91275910  0.56729077  0.66013435  1  0  -0.548453  0  2.158511  0  0  -0.505497  0  2.43909  0  0  -0.534069  0  2.42749  0  0  -0.311678  -0.486175  0  2.446508  0
O  O54  1  0.65473793  0.56728906  0.16001164  1  0  -0.547684  0  2.159191  0  0  -0.50488  0  2.439633  0  0  -0.533428  0  2.428048  0  0  -0.311439  -0.485618  0  2.447051  0
O  O55  1  0.08721176  0.43274320  0.33986609  1  0  -0.548286  0  2.159551  0  0  -0.505375  0  2.440196  0  0  -0.53392  0  2.428653  0  0  -0.311779  -0.486088  0  2.447529  0
O  O56  1  0.20688019  0.24351366  0.02381938  1  0  -0.516978  0  2.113843  0  0  -0.474684  0  2.385888  0  0  -0.501926  0  2.37332  0  0  -0.306036  -0.456413  0  2.393968  0
O  O57  1  0.96357264  0.75675871  0.47636822  1  0  -0.517106  0  2.113745  0  0  -0.474989  0  2.385851  0  0  -0.502303  0  2.373399  0  0  -0.306436  -0.456674  0  2.393915  0
O  O58  1  0.79312034  0.75648129  0.97617073  1  0  -0.517045  0  2.11375  0  0  -0.47465  0  2.385835  0  0  -0.50189  0  2.373262  0  0  -0.306049  -0.456395  0  2.393929  0
O  O59  1  0.03643658  0.24326206  0.52363806  1  0  -0.516685  0  2.114489  0  0  -0.474542  0  2.386573  0  0  -0.501805  0  2.37412  0  0  -0.30625  -0.456276  0  2.394581  0
O  O60  1  0.37850492  0.69207878  0.92114351  1  0  -0.515828  0  2.110641  0  0  -0.476537  0  2.385561  0  0  -0.504756  0  2.374951  0  0  -0.307462  -0.45754  0  2.392403  0
O  O61  1  0.68644407  0.30826398  0.57882107  1  0  -0.515555  0  2.110239  0  0  -0.4762  0  2.38534  0  0  -0.504346  0  2.37458  0  0  -0.307075  -0.457219  0  2.392228  0
O  O62  1  0.62150193  0.30791475  0.07885212  1  0  -0.515894  0  2.110557  0  0  -0.476698  0  2.385495  0  0  -0.504916  0  2.374885  0  0  -0.307528  -0.45769  0  2.392343  0
O  O63  1  0.31360638  0.69174373  0.42118468  1  0  -0.515578  0  2.109966  0  0  -0.476286  0  2.385164  0  0  -0.504496  0  2.374455  0  0  -0.307169  -0.457256  0  2.392074  0
O  O64  1  0.23491129  0.50444711  0.10014806  1  0  -0.531121  0  2.15432  0  0  -0.488255  0  2.43336  0  0  -0.516292  0  2.421137  0  0  -0.30851  -0.469467  0  2.441194  0
O  O65  1  0.73075838  0.49605483  0.39983811  1  0  -0.530903  0  2.153722  0  0  -0.487902  0  2.432486  0  0  -0.515905  0  2.420276  0  0  -0.308625  -0.469163  0  2.440406  0
O  O66  1  0.76513896  0.49554333  0.89987213  1  0  -0.531018  0  2.154064  0  0  -0.488245  0  2.433045  0  0  -0.516286  0  2.420834  0  0  -0.308439  -0.46945  0  2.440888  0
O  O67  1  0.26930539  0.50395704  0.60015507  1  0  -0.531097  0  2.153138  0  0  -0.488113  0  2.431983  0  0  -0.516164  0  2.41977  0  0  -0.308634  -0.469324  0  2.439935  0
