# generated using pymatgen
data_ZnH7C12NO4
_symmetry_space_group_name_H-M   'P 1'
_cell_length_a   9.73467265
_cell_length_b   11.08385271
_cell_length_c   14.13812214
_cell_angle_alpha   88.58885061
_cell_angle_beta   98.72831859
_cell_angle_gamma   89.93619518
_symmetry_Int_Tables_number   1
_chemical_formula_structural   ZnH7C12NO4
_chemical_formula_sum   'Zn2 H14 C24 N2 O8'
_cell_volume   1507.32862685
_cell_formula_units_Z   2
loop_
 _symmetry_equiv_pos_site_id
 _symmetry_equiv_pos_as_xyz
  1  'x, y, z'
loop_
 _atom_site_type_symbol
 _atom_site_label
 _atom_site_symmetry_multiplicity
 _atom_site_fract_x
 _atom_site_fract_y
 _atom_site_fract_z
 _atom_site_occupancy
 _atom_site_pbe_bader_charge
 _atom_site_pbe_bader_spin_density
 _atom_site_pbe_cm5_charge
 _atom_site_pbe_ddec_charge
 _atom_site_pbe_ddec_spin_density
 _atom_site_pbe_ddec_sum_bond_order
 _atom_site_pbe_magmom
Zn  Zn0  1  0.63745792  0.50418400  0.50522240  1  1.278351  0  0.664903  0.808648  0  2.438347  0
Zn  Zn1  1  0.35045290  0.50432178  0.49365166  1  1.27819  0  0.665946  0.81464  0  2.431474  0
H  H2  1  0.65889747  0.49257396  0.02295084  1  0.096979  0  0.120122  0.122079  0  0.958279  0
H  H3  1  0.82993896  0.11718348  0.50290996  1  0.030659  0  0.094567  0.104373  0  0.985364  0
H  H4  1  0.09225485  0.61067503  0.37304206  1  0.155404  0  0.138985  0.122816  0  0.961191  0
H  H5  1  0.83359454  0.61121237  0.37674013  1  0.152677  0  0.137916  0.121365  0  0.966628  0
H  H6  1  0.91746047  0.41843353  0.71954368  1  0.094323  0  0.113617  0.140062  0  0.965179  0
H  H7  1  0.79931764  0.10575373  0.62435833  1  0.029842  0  0.093145  0.097543  0  1.000177  0
H  H8  1  0.89936219  0.28583167  0.64972071  1  0.082263  0  0.110189  0.128262  0  0.99909  0
H  H9  1  0.17901443  0.41626281  0.71551068  1  0.09675  0  0.113239  0.138808  0  0.970056  0
H  H10  1  0.15929888  0.28342549  0.64589284  1  0.090761  0  0.115018  0.138877  0  0.960266  0
H  H11  1  0.33874503  0.50511750  0.97649405  1  0.080961  0  0.117719  0.118007  0  0.960412  0
H  H12  1  0.27249927  0.11996707  0.45252499  1  0.112915  0  0.100652  0.10637  0  1.004186  0
H  H13  1  0.27010311  0.89577334  0.44967080  1  0.093763  0  0.099994  0.104503  0  1.004974  0
H  H14  1  0.79954440  0.88010707  0.61698811  1  0.039054  0  0.096747  0.106695  0  0.981351  0
H  H15  1  0.82645924  0.88968357  0.49506316  1  0.066484  0  0.092733  0.099194  0  0.989829  0
C  C16  1  0.49258720  0.26872221  0.50082595  1  1.548308  0  0.215203  0.598424  0  4.174847  0
C  C17  1  0.76949193  0.07042151  0.55217060  1  -0.033489  0  -0.154837  -0.20162  0  3.893976  0
C  C18  1  0.08208122  0.44923092  0.56575288  1  0.574897  0  0.14858  0.200328  0  3.856695  0
C  C19  1  0.53487468  0.50112395  0.68840130  1  1.659195  0  0.217168  0.659708  0  4.254195  0
C  C20  1  0.04830350  0.56399243  0.43014902  1  0.445057  0  0.068077  0.043986  0  3.866442  0
C  C21  1  0.90551669  0.56462453  0.43229015  1  0.486748  0  0.068971  0.04813  0  3.868716  0
C  C22  1  0.93933079  0.45025802  0.56802583  1  0.546362  0  0.149036  0.200603  0  3.860889  0
C  C23  1  0.95127600  0.37353874  0.65862571  1  0.002886  0  -0.136787  -0.227437  0  3.818233  0
C  C24  1  0.11422443  0.37209365  0.65607278  1  -0.036822  0  -0.135259  -0.226845  0  3.815204  0
C  C25  1  0.48895562  0.73963810  0.49368718  1  1.587713  0  0.213861  0.59763  0  4.177304  0
C  C26  1  0.45946964  0.50532912  0.31077826  1  1.665901  0  0.215848  0.660903  0  4.247784  0
C  C27  1  0.54619752  0.49777926  0.79161235  1  0.095043  0  -0.042334  -0.185806  0  3.952383  0
C  C28  1  0.44859291  0.50452418  0.20767886  1  0.128072  0  -0.039553  -0.176293  0  3.941431  0
C  C29  1  0.44068455  0.50145220  0.02141931  1  0.040429  0  -0.060575  -0.042759  0  4.054489  0
C  C30  1  0.55679314  0.49631029  0.97828416  1  0.163895  0  -0.061248  -0.045711  0  4.053259  0
C  C31  1  0.55120711  0.49651078  0.87848313  1  -0.387007  0  -0.038919  -0.018917  0  4.172565  0
C  C32  1  0.44532393  0.50282453  0.12104959  1  -0.415195  0  -0.038097  -0.018352  0  4.165871  0
C  C33  1  0.61397248  0.06527413  0.51906072  1  -0.044139  0  -0.006154  0.058947  0  3.883296  0
C  C34  1  0.49311735  0.13434928  0.49717993  1  0.020652  0  -0.014843  -0.072624  0  3.972211  0
C  C35  1  0.36908878  0.06909906  0.47131543  1  0.0129  0  -0.089038  -0.107152  0  3.997291  0
C  C36  1  0.36783561  0.94331880  0.46929855  1  -0.119103  0  -0.088588  -0.102676  0  3.996  0
C  C37  1  0.49068696  0.87413608  0.49259314  1  -0.084158  0  -0.015112  -0.074273  0  3.975448  0
C  C38  1  0.61278662  0.93931119  0.51641197  1  0.034521  0  -0.004995  0.06257  0  3.885058  0
C  C39  1  0.76825982  0.92797242  0.54811286  1  -0.013849  0  -0.153082  -0.194728  0  3.889522  0
N  N40  1  0.14008734  0.50493556  0.49774960  1  -1.218574  0  -0.286565  -0.176965  0  3.464004  0
N  N41  1  0.84803207  0.50656429  0.50241889  1  -1.215868  0  -0.287217  -0.178012  0  3.467562  0
O  O42  1  0.61045432  0.32093396  0.50863948  1  -1.158893  0  -0.31513  -0.540796  0  2.30697  0
O  O43  1  0.37509381  0.32137452  0.49600904  1  -1.161915  0  -0.319437  -0.549352  0  2.325012  0
O  O44  1  0.64802834  0.50168429  0.65345670  1  -1.143285  0  -0.311686  -0.537705  0  2.255737  0
O  O45  1  0.41176716  0.50324396  0.64219958  1  -1.150795  0  -0.3101  -0.545582  0  2.267707  0
O  O46  1  0.60685811  0.68668070  0.50197398  1  -1.166975  0  -0.314333  -0.541663  0  2.319361  0
O  O47  1  0.37134420  0.68753492  0.48740469  1  -1.156798  0  -0.319841  -0.549107  0  2.321665  0
O  O48  1  0.58274200  0.50601511  0.35680633  1  -1.1484  0  -0.314226  -0.55043  0  2.267932  0
O  O49  1  0.34644166  0.50487393  0.34580819  1  -1.136688  0  -0.314282  -0.538669  0  2.242783  0
