# generated using pymatgen
data_H14Pb(C4O)4
_symmetry_space_group_name_H-M   'P 1'
_cell_length_a   8.04720834
_cell_length_b   10.13701698
_cell_length_c   10.13787889
_cell_angle_alpha   61.35203301
_cell_angle_beta   76.72503936
_cell_angle_gamma   76.72614154
_symmetry_Int_Tables_number   1
_chemical_formula_structural   H14Pb(C4O)4
_chemical_formula_sum   'H28 Pb2 C32 O8'
_cell_volume   699.41307938
_cell_formula_units_Z   2
loop_
 _symmetry_equiv_pos_site_id
 _symmetry_equiv_pos_as_xyz
  1  'x, y, z'
loop_
 _atom_site_type_symbol
 _atom_site_label
 _atom_site_symmetry_multiplicity
 _atom_site_fract_x
 _atom_site_fract_y
 _atom_site_fract_z
 _atom_site_occupancy
 _atom_site_pbe_bader_spin_density
 _atom_site_pbe_cm5_charge
 _atom_site_pbe_ddec_charge
 _atom_site_pbe_ddec_spin_density
 _atom_site_pbe_ddec_sum_bond_order
 _atom_site_pbe_magmom
H  H0  1  0.39724133  0.39876202  0.04746644  1  0  0.098226  0.099615  0  1.043933  0
H  H1  1  0.10276935  0.95249354  0.60125732  1  0  0.098279  0.099669  0  1.043913  0
H  H2  1  0.60275900  0.60125235  0.95251364  1  0  0.098293  0.099677  0  1.044007  0
H  H3  1  0.89723021  0.04750781  0.39874254  1  0  0.098266  0.099641  0  1.043955  0
H  H4  1  0.19597604  0.61412000  0.54682463  1  0  0.095048  0.095123  0  1.025839  0
H  H5  1  0.30399589  0.45320552  0.38586589  1  0  0.095031  0.095177  0  1.025848  0
H  H6  1  0.80400142  0.38586943  0.45317052  1  0  0.094996  0.095007  0  1.025787  0
H  H7  1  0.69598981  0.54679638  0.61412227  1  0  0.095026  0.095182  0  1.025834  0
H  H8  1  0.43897655  0.39946253  0.61650636  1  0  0.095851  0.092388  0  1.036729  0
H  H9  1  0.06102099  0.38351658  0.60052882  1  0  0.095842  0.092379  0  1.036773  0
H  H10  1  0.56101969  0.60054488  0.38348149  1  0  0.095833  0.092369  0  1.036821  0
H  H11  1  0.93896979  0.61649310  0.39945894  1  0  0.095845  0.092401  0  1.036783  0
H  H12  1  0.15401700  0.54872061  0.12538677  1  0  0.106334  0.131996  0  0.985157  0
H  H13  1  0.34601928  0.87457016  0.45130546  1  0  0.106341  0.13216  0  0.985142  0
H  H14  1  0.84597599  0.45127561  0.87460270  1  0  0.106268  0.131941  0  0.985229  0
H  H15  1  0.65402036  0.12541481  0.54873539  1  0  0.106274  0.131966  0  0.985214  0
H  H16  1  0.99169315  0.65469671  0.00915719  1  0  0.105113  0.125328  0  1.021606  0
H  H17  1  0.50832084  0.99082335  0.34533164  1  0  0.105066  0.125318  0  1.021609  0
H  H18  1  0.00830982  0.34531624  0.99082999  1  0  0.105122  0.125325  0  1.021618  0
H  H19  1  0.49168935  0.00917260  0.65469055  1  0  0.105138  0.125349  0  1.021555  0
H  H20  1  0.53859669  0.29370342  0.86728356  1  0  0.098225  0.10113  0  1.045378  0
H  H21  1  0.96142512  0.13269570  0.70630744  1  0  0.098237  0.101199  0  1.045267  0
H  H22  1  0.46141577  0.70632193  0.13269842  1  0  0.098202  0.101071  0  1.045298  0
H  H23  1  0.03856397  0.86731610  0.29368360  1  0  0.098221  0.10116  0  1.045382  0
H  H24  1  0.05258351  0.71702856  0.72924404  1  0  0.100756  0.109745  0  1.026925  0
H  H25  1  0.44739771  0.27076805  0.28297160  1  0  0.100712  0.109731  0  1.02677  0
H  H26  1  0.94741357  0.28297462  0.27073767  1  0  0.100784  0.109751  0  1.026833  0
H  H27  1  0.55259935  0.72922559  0.71702622  1  0  0.100698  0.109703  0  1.026794  0
Pb  Pb28  1  0.25002708  0.07988303  0.92013904  1  0  0.642  1.066514  0  1.780707  0
Pb  Pb29  1  0.74998571  0.92011467  0.07986614  1  0  0.64199  1.066549  0  1.780827  0
C  C30  1  0.35402958  0.44766041  0.93709954  1  0  -0.090673  -0.133513  0  3.955504  0
C  C31  1  0.14598699  0.06286646  0.55236970  1  0  -0.09079  -0.133763  0  3.955472  0
C  C32  1  0.64598303  0.55237323  0.06286982  1  0  -0.09081  -0.133869  0  3.955441  0
C  C33  1  0.85400709  0.93713712  0.44763109  1  0  -0.090756  -0.133747  0  3.955332  0
C  C34  1  0.24200642  0.56740795  0.65584056  1  0  -0.098552  -0.089124  0  4.032625  0
C  C35  1  0.25798393  0.34417552  0.43258984  1  0  -0.098532  -0.089205  0  4.032587  0
C  C36  1  0.75799370  0.43259957  0.34414361  1  0  -0.098508  -0.088997  0  4.032447  0
C  C37  1  0.74200541  0.65582743  0.56739920  1  0  -0.098591  -0.08929  0  4.03267  0
C  C38  1  0.37769539  0.44738564  0.69483891  1  0  -0.10238  -0.128134  0  4.083674  0
C  C39  1  0.12230266  0.30516218  0.55261886  1  0  -0.102328  -0.128019  0  4.083532  0
C  C40  1  0.62229289  0.55262420  0.30514526  1  0  -0.102454  -0.128209  0  4.083456  0
C  C41  1  0.87768739  0.69484410  0.44737055  1  0  -0.102339  -0.128124  0  4.083629  0
C  C42  1  0.13204844  0.63153350  0.00854529  1  0  -0.157091  -0.350049  0  3.923781  0
C  C43  1  0.36796861  0.99141917  0.36850279  1  0  -0.157107  -0.350355  0  3.923751  0
C  C44  1  0.86795200  0.36847164  0.99144286  1  0  -0.157035  -0.350193  0  3.923627  0
C  C45  1  0.63204864  0.00856421  0.63152580  1  0  -0.157103  -0.350216  0  3.92364  0
C  C46  1  0.21825931  0.56781457  0.89909637  1  0  -0.00674  0.150544  0  3.949405  0
C  C47  1  0.28175155  0.10087480  0.43222095  1  0  -0.006651  0.15074  0  3.949158  0
C  C48  1  0.78174209  0.43220085  0.10088504  1  0  -0.006777  0.150664  0  3.949063  0
C  C49  1  0.71825554  0.89911829  0.56778923  1  0  -0.006739  0.150694  0  3.949221  0
C  C50  1  0.18971255  0.77781943  0.97742246  1  0  0.218049  0.63621  0  4.11771  0
C  C51  1  0.31029478  0.02255426  0.22222585  1  0  0.218196  0.636552  0  4.116873  0
C  C52  1  0.81028257  0.22217559  0.02259777  1  0  0.218302  0.636932  0  4.117238  0
C  C53  1  0.68972209  0.97740769  0.77780945  1  0  0.218171  0.636552  0  4.117335  0
C  C54  1  0.43357284  0.38764541  0.83587857  1  0  -0.102027  -0.112757  0  4.060647  0
C  C55  1  0.06642845  0.16410759  0.61236330  1  0  -0.102085  -0.112791  0  4.060403  0
C  C56  1  0.56642035  0.61236548  0.16410627  1  0  -0.101915  -0.112487  0  4.060065  0
C  C57  1  0.93356706  0.83589642  0.38762619  1  0  -0.101987  -0.112613  0  4.060111  0
C  C58  1  0.16222089  0.62667401  0.75753796  1  0  -0.089363  -0.13249  0  3.924723  0
C  C59  1  0.33776383  0.24246396  0.37333488  1  0  -0.089354  -0.132524  0  3.924422  0
C  C60  1  0.83776647  0.37333356  0.24244737  1  0  -0.0893  -0.132459  0  3.924768  0
C  C61  1  0.66223266  0.75753297  0.62666453  1  0  -0.089267  -0.13242  0  3.924469  0
O  O62  1  0.32223793  0.82624019  0.88570445  1  0  -0.28985  -0.53375  0  2.145096  0
O  O63  1  0.17776776  0.11429004  0.17382541  1  0  -0.289942  -0.533913  0  2.144895  0
O  O64  1  0.67774478  0.17377788  0.11429869  1  0  -0.289949  -0.534044  0  2.144951  0
O  O65  1  0.82224581  0.88567637  0.82621043  1  0  -0.289823  -0.533867  0  2.145146  0
O  O66  1  0.09695848  0.84927469  0.05249695  1  0  -0.30192  -0.595471  0  2.238934  0
O  O67  1  0.40303514  0.94748044  0.15075357  1  0  -0.301964  -0.595575  0  2.238313  0
O  O68  1  0.90304872  0.15069800  0.94755098  1  0  -0.302051  -0.595827  0  2.238821  0
O  O69  1  0.59697215  0.05247839  0.84927785  1  0  -0.301982  -0.595653  0  2.238737  0
