# generated using pymatgen
data_MgH13C17N2O5
_symmetry_space_group_name_H-M   'P 1'
_cell_length_a   12.54772220
_cell_length_b   12.54772583
_cell_length_c   13.49953333
_cell_angle_alpha   62.67560154
_cell_angle_beta   62.67559714
_cell_angle_gamma   87.18517035
_symmetry_Int_Tables_number   1
_chemical_formula_structural   MgH13C17N2O5
_chemical_formula_sum   'Mg4 H52 C68 N8 O20'
_cell_volume   1642.05812618
_cell_formula_units_Z   4
loop_
 _symmetry_equiv_pos_site_id
 _symmetry_equiv_pos_as_xyz
  1  'x, y, z'
loop_
 _atom_site_type_symbol
 _atom_site_label
 _atom_site_symmetry_multiplicity
 _atom_site_fract_x
 _atom_site_fract_y
 _atom_site_fract_z
 _atom_site_occupancy
 _atom_site_pbe_bader_charge
 _atom_site_pbe_bader_spin_density
 _atom_site_pbe_cm5_charge
 _atom_site_pbe_ddec_charge
 _atom_site_pbe_ddec_spin_density
 _atom_site_pbe_ddec_sum_bond_order
 _atom_site_pbe_magmom
Mg  Mg0  1  0.19318096  0.80681926  0.24999939  1  1.696044  0  0.832095  1.388242  0  1.43778  0
Mg  Mg1  1  0.80681876  0.19318120  0.75000060  1  1.696039  0  0.832106  1.38826  0  1.437741  0
Mg  Mg2  1  0.49999992  0.00000024  0.00000016  1  1.698468  0  0.798906  1.357513  0  1.402338  0
Mg  Mg3  1  0.00000048  0.50000045  0.50000015  1  1.698485  0  0.798907  1.357493  0  1.402372  0
H  H4  1  0.60867198  0.54366454  0.08797878  1  0.144553  0  0.116508  0.133821  0  1.016408  0
H  H5  1  0.45633593  0.39132887  0.41202039  1  0.144567  0  0.116515  0.133842  0  1.016387  0
H  H6  1  0.39132666  0.45633501  0.91202133  1  0.144558  0  0.116505  0.133828  0  1.016414  0
H  H7  1  0.54366398  0.60867250  0.58797987  1  0.14457  0  0.116498  0.133822  0  1.01641  0
H  H8  1  0.34350860  0.58923050  0.95482621  1  0.146403  0  0.113724  0.130828  0  1.040289  0
H  H9  1  0.41076894  0.65649203  0.54517341  1  0.146395  0  0.113715  0.130814  0  1.040309  0
H  H10  1  0.65649165  0.41076813  0.04517360  1  0.146417  0  0.113728  0.130844  0  1.040275  0
H  H11  1  0.58923096  0.34350935  0.45482611  1  0.146425  0  0.113734  0.130853  0  1.040267  0
H  H12  1  0.01865659  0.03184841  0.11040609  1  0.127857  0  0.1088  0.113167  0  1.006582  0
H  H13  1  0.96815174  0.98134330  0.38959436  1  0.127861  0  0.108801  0.113158  0  1.006588  0
H  H14  1  0.98134295  0.96815113  0.88959511  1  0.127868  0  0.108803  0.113178  0  1.006587  0
H  H15  1  0.03184888  0.01865716  0.61040599  1  0.127867  0  0.108795  0.113173  0  1.006588  0
H  H16  1  0.54157348  0.71382167  0.13705105  1  0.161274  0  0.138511  0.132534  0  1.004919  0
H  H17  1  0.28617855  0.45842801  0.36294795  1  0.161259  0  0.138512  0.13254  0  1.00492  0
H  H18  1  0.45842785  0.28617788  0.86294791  1  0.161291  0  0.138505  0.13253  0  1.004919  0
H  H19  1  0.71382187  0.54157154  0.63705213  1  0.16126  0  0.138533  0.132581  0  1.004898  0
H  H20  1  0.28891328  0.75233163  0.01420355  1  0.196138  0  0.144468  0.140594  0  0.9946  0
H  H21  1  0.24766806  0.71108716  0.48579611  1  0.196126  0  0.14447  0.140619  0  0.9946  0
H  H22  1  0.71108696  0.24766699  0.98579626  1  0.196128  0  0.144465  0.140601  0  0.994586  0
H  H23  1  0.75233147  0.28891238  0.51420435  1  0.196137  0  0.144475  0.140598  0  0.994577  0
H  H24  1  0.89698747  0.14460489  0.00419265  1  0.080615  0  0.103689  0.105413  0  1.01049  0
H  H25  1  0.85539506  0.10301228  0.49580797  1  0.080615  0  0.103696  0.105394  0  1.010503  0
H  H26  1  0.10301315  0.85539557  0.99580770  1  0.080464  0  0.103695  0.105413  0  1.010498  0
H  H27  1  0.14460448  0.89698726  0.50419249  1  0.080468  0  0.103698  0.10542  0  1.010492  0
H  H28  1  0.35200759  0.26013919  0.76685123  1  0.04594  0  0.096722  0.095856  0  1.029737  0
H  H29  1  0.73986049  0.64799291  0.73314763  1  0.045772  0  0.096711  0.095846  0  1.029725  0
H  H30  1  0.64799284  0.73986035  0.23314811  1  0.045777  0  0.096717  0.095857  0  1.029726  0
H  H31  1  0.26014013  0.35200755  0.26685124  1  0.045924  0  0.096718  0.095858  0  1.029724  0
H  H32  1  0.22980877  0.37582717  0.66327565  1  0.097795  0  0.090727  0.080639  0  1.088071  0
H  H33  1  0.62417296  0.77019106  0.83672329  1  0.097806  0  0.09073  0.080639  0  1.08807  0
H  H34  1  0.77019166  0.62417238  0.33672369  1  0.09775  0  0.090743  0.080679  0  1.088049  0
H  H35  1  0.37582657  0.22980848  0.16327644  1  0.097807  0  0.090732  0.080659  0  1.088061  0
H  H36  1  0.36261880  0.04735150  0.76969651  1  0.092966  0  0.107426  0.09701  0  1.008795  0
H  H37  1  0.95264910  0.63738133  0.73030211  1  0.092964  0  0.10739  0.096924  0  1.00879  0
H  H38  1  0.63738110  0.95264987  0.23030301  1  0.092986  0  0.107402  0.09695  0  1.008803  0
H  H39  1  0.04735043  0.36261822  0.26969687  1  0.092987  0  0.107409  0.09695  0  1.008763  0
H  H40  1  0.48344340  0.89806152  0.76603783  1  0.150926  0  0.109566  0.126788  0  1.065801  0
H  H41  1  0.10193830  0.51655694  0.73396250  1  0.15092  0  0.109562  0.126782  0  1.065812  0
H  H42  1  0.51655542  0.10193895  0.23396402  1  0.150933  0  0.109554  0.126804  0  1.065764  0
H  H43  1  0.89806033  0.48344261  0.26603761  1  0.150922  0  0.109559  0.126805  0  1.06578  0
H  H44  1  0.22153292  0.09771182  0.68742845  1  0.033088  0  0.094115  0.136654  0  0.99813  0
H  H45  1  0.90228788  0.77846660  0.81257081  1  0.033082  0  0.094119  0.13666  0  0.998115  0
H  H46  1  0.77846680  0.90228864  0.31257080  1  0.033097  0  0.094118  0.136663  0  0.99813  0
H  H47  1  0.09771184  0.22153387  0.18742844  1  0.033098  0  0.09412  0.136669  0  0.998119  0
H  H48  1  0.32602987  0.07098557  0.56170125  1  0.039745  0  0.096089  0.138597  0  1.01229  0
H  H49  1  0.92901283  0.67397065  0.93829889  1  0.039724  0  0.096088  0.138589  0  1.012305  0
H  H50  1  0.67396966  0.92901398  0.43829922  1  0.039736  0  0.096092  0.138604  0  1.012298  0
H  H51  1  0.07098509  0.32602981  0.06170113  1  0.03974  0  0.096087  0.138584  0  1.012307  0
H  H52  1  0.20804501  0.94969931  0.70247860  1  0.042933  0  0.094394  0.128749  0  1.012903  0
H  H53  1  0.05029962  0.79195386  0.79752198  1  0.0431  0  0.094412  0.128774  0  1.012892  0
H  H54  1  0.79195363  0.05030023  0.29752224  1  0.043091  0  0.094407  0.128763  0  1.012904  0
H  H55  1  0.94969972  0.20804476  0.20247822  1  0.04293  0  0.094396  0.128745  0  1.012913  0
C  C56  1  0.98535802  0.32662312  0.75925711  1  1.611889  0  0.227641  0.62666  0  4.179626  0
C  C57  1  0.67337701  0.01464178  0.74074334  1  1.611778  0  0.227644  0.626689  0  4.179668  0
C  C58  1  0.01464241  0.67337643  0.24074296  1  1.611829  0  0.227659  0.626687  0  4.179611  0
C  C59  1  0.32662342  0.98535777  0.25925748  1  1.61178  0  0.227629  0.62666  0  4.17958  0
C  C60  1  0.48158407  0.54839681  0.01700406  1  -0.050445  0  0.009569  0.085005  0  3.978491  0
C  C61  1  0.45160369  0.51841754  0.48299476  1  -0.021257  0  0.009578  0.08507  0  3.978431  0
C  C62  1  0.51841744  0.45160365  0.98299516  1  -0.02131  0  0.009567  0.08503  0  3.97846  0
C  C63  1  0.54839711  0.48158384  0.51700363  1  -0.050478  0  0.009584  0.085024  0  3.978476  0
C  C64  1  0.26210245  0.06221414  0.00742082  1  1.610413  0  0.222224  0.611907  0  4.207458  0
C  C65  1  0.93778573  0.73789782  0.49257885  1  1.610407  0  0.222238  0.611936  0  4.207406  0
C  C66  1  0.73789726  0.93778632  0.99257917  1  1.610421  0  0.222224  0.611905  0  4.207496  0
C  C67  1  0.06221380  0.26210172  0.50742235  1  1.610418  0  0.222241  0.611918  0  4.20745  0
C  C68  1  0.53668904  0.58525981  0.06984064  1  0.013963  0  -0.070001  -0.145758  0  3.933861  0
C  C69  1  0.41473975  0.46331230  0.43015871  1  0.013968  0  -0.070016  -0.145797  0  3.933873  0
C  C70  1  0.46331139  0.41473973  0.93015944  1  0.013959  0  -0.069991  -0.145771  0  3.933882  0
C  C71  1  0.58526016  0.53668908  0.56984081  1  0.01396  0  -0.069989  -0.145778  0  3.933907  0
C  C72  1  0.50159112  0.67740698  0.09961572  1  0.355055  0  0.052315  -0.02572  0  3.845358  0
C  C73  1  0.32259312  0.49840949  0.40038371  1  0.354384  0  0.052296  -0.025763  0  3.84538  0
C  C74  1  0.49840860  0.32259349  0.90038427  1  0.355029  0  0.052309  -0.025724  0  3.84537  0
C  C75  1  0.67740570  0.50159097  0.59961667  1  0.354678  0  0.052292  -0.025742  0  3.845355  0
C  C76  1  0.19191349  0.13942553  0.94541067  1  0.065615  0  -0.017205  -0.037763  0  3.951949  0
C  C77  1  0.86057418  0.80808587  0.55459088  1  0.065692  0  -0.017255  -0.037868  0  3.951989  0
C  C78  1  0.80808694  0.86057402  0.05458941  1  0.065634  0  -0.017211  -0.037788  0  3.951982  0
C  C79  1  0.13942625  0.19191368  0.44541142  1  0.065633  0  -0.017213  -0.037791  0  3.952011  0
C  C80  1  0.18461115  0.30144181  0.76167856  1  -0.094948  0  -0.09326  -0.10307  0  4.000464  0
C  C81  1  0.69855740  0.81538846  0.73832086  1  -0.094938  0  -0.093284  -0.103106  0  4.000457  0
C  C82  1  0.81538928  0.69855773  0.23832152  1  -0.094903  0  -0.093275  -0.10313  0  4.000472  0
C  C83  1  0.30144213  0.18461108  0.26167886  1  -0.094947  0  -0.093277  -0.103118  0  4.000472  0
C  C84  1  0.05652129  0.26784486  0.82754075  1  -0.120626  0  -0.015601  -0.038203  0  3.95468  0
C  C85  1  0.73215539  0.94347870  0.67245955  1  -0.120709  0  -0.01558  -0.038203  0  3.954611  0
C  C86  1  0.94347914  0.73215469  0.17245933  1  -0.12068  0  -0.015606  -0.03821  0  3.954649  0
C  C87  1  0.26784415  0.05652085  0.32754165  1  -0.120627  0  -0.015604  -0.038201  0  3.954664  0
C  C88  1  0.99643574  0.17154280  0.95426369  1  0.032884  0  -0.08059  -0.087283  0  3.965582  0
C  C89  1  0.82845771  0.00356443  0.54573571  1  0.032885  0  -0.080575  -0.087208  0  3.965482  0
C  C90  1  0.00356469  0.82845675  0.04573639  1  0.033035  0  -0.080595  -0.087277  0  3.965567  0
C  C91  1  0.17154291  0.99643603  0.45426390  1  0.033031  0  -0.080575  -0.08725  0  3.96559  0
C  C92  1  0.06351462  0.10858111  0.01288005  1  -0.155023  0  -0.079343  -0.088948  0  3.970771  0
C  C93  1  0.89141911  0.93648555  0.48711951  1  -0.155034  0  -0.079354  -0.088947  0  3.970688  0
C  C94  1  0.93648510  0.89141935  0.98711994  1  -0.155058  0  -0.07935  -0.088963  0  3.970785  0
C  C95  1  0.10858061  0.06351491  0.51288048  1  -0.155052  0  -0.079355  -0.088986  0  3.970817  0
C  C96  1  0.25209503  0.23740588  0.81952547  1  -0.014539  0  -0.091417  -0.106358  0  3.991339  0
C  C97  1  0.76259446  0.74790465  0.68047418  1  -0.014373  0  -0.091368  -0.106266  0  3.991342  0
C  C98  1  0.74790540  0.76259366  0.18047461  1  -0.014363  0  -0.091414  -0.106333  0  3.991308  0
C  C99  1  0.23740596  0.25209489  0.31952590  1  -0.014522  0  -0.091394  -0.106323  0  3.991327  0
C  C100  1  0.35876351  0.70218313  0.02653433  1  0.367141  0  0.062122  -0.000149  0  3.812297  0
C  C101  1  0.29781699  0.64123749  0.47346566  1  0.36713  0  0.062097  -0.000231  0  3.812381  0
C  C102  1  0.64123692  0.29781641  0.97346501  1  0.367258  0  0.062116  -0.000167  0  3.81235  0
C  C103  1  0.70218382  0.35876389  0.52653422  1  0.367254  0  0.062112  -0.000169  0  3.812333  0
C  C104  1  0.39111233  0.61021151  0.99595500  1  0.047372  0  -0.068652  -0.142619  0  3.91547  0
C  C105  1  0.38978852  0.60888921  0.50404473  1  0.047353  0  -0.068626  -0.142596  0  3.915503  0
C  C106  1  0.60888899  0.38978804  0.00404470  1  0.047311  0  -0.068667  -0.142675  0  3.915482  0
C  C107  1  0.61021228  0.39111216  0.49595515  1  0.047314  0  -0.068664  -0.142653  0  3.915495  0
C  C108  1  0.43481399  0.84156056  0.66310749  1  0.794712  0  0.186964  0.321522  0  4.047786  0
C  C109  1  0.15843984  0.56518552  0.83689294  1  0.794721  0  0.186989  0.321555  0  4.047751  0
C  C110  1  0.56518483  0.15843991  0.33689436  1  0.794734  0  0.187004  0.321614  0  4.047692  0
C  C111  1  0.84155771  0.43481311  0.16310728  1  0.794761  0  0.187002  0.321566  0  4.047843  0
C  C112  1  0.35613471  0.99827371  0.72282251  1  -0.021703  0  -0.049048  0.078986  0  3.862068  0
C  C113  1  0.00172581  0.64386467  0.77717760  1  -0.021714  0  -0.049026  0.079071  0  3.86199  0
C  C114  1  0.64386411  0.00172675  0.27717786  1  -0.021712  0  -0.049048  0.079019  0  3.862083  0
C  C115  1  0.99827372  0.35613487  0.22282212  1  -0.022088  0  -0.04902  0.07907  0  3.861996  0
C  C116  1  0.42627261  0.91338412  0.72141197  1  0.031859  0  -0.094657  -0.223471  0  4.061214  0
C  C117  1  0.08661576  0.57372724  0.77858779  1  0.031867  0  -0.09466  -0.223489  0  4.061165  0
C  C118  1  0.57372711  0.08661634  0.27858876  1  0.031861  0  -0.094654  -0.223505  0  4.061093  0
C  C119  1  0.91338268  0.42627139  0.22141279  1  0.032268  0  -0.094676  -0.22352  0  4.061101  0
C  C120  1  0.27342992  0.03098169  0.66639423  1  0.001489  0  -0.239588  -0.388995  0  3.983619  0
C  C121  1  0.96901712  0.72656905  0.83360639  1  0.001508  0  -0.239597  -0.389017  0  3.983592  0
C  C122  1  0.72656872  0.96901786  0.33360662  1  0.001492  0  -0.239583  -0.389  0  3.98364  0
C  C123  1  0.03098151  0.27343049  0.16639371  1  0.001489  0  -0.239591  -0.389003  0  3.983632  0
N  N124  1  0.41251683  0.73349318  0.07927223  1  -0.645363  0  -0.105894  0.347664  0  3.931428  0
N  N125  1  0.26650650  0.58748397  0.42072729  1  -0.645028  0  -0.10591  0.347655  0  3.931372  0
N  N126  1  0.58748270  0.26650637  0.92072823  1  -0.645354  0  -0.105883  0.347671  0  3.931389  0
N  N127  1  0.73349322  0.41251649  0.57927270  1  -0.645348  0  -0.105915  0.347637  0  3.93137  0
N  N128  1  0.44746479  0.78065341  0.61540868  1  -1.174723  0  -0.312021  -0.410334  0  2.795765  0
N  N129  1  0.21934517  0.55253411  0.88459206  1  -1.174587  0  -0.312035  -0.410347  0  2.795801  0
N  N130  1  0.55253455  0.21934522  0.38459374  1  -1.174649  0  -0.312049  -0.410407  0  2.795786  0
N  N131  1  0.78065328  0.44746452  0.11540926  1  -1.174825  0  -0.312043  -0.41036  0  2.79596  0
O  O132  1  0.37861475  0.82005753  0.11104415  1  -0.744318  0  -0.25871  -0.604235  0  2.136733  0
O  O133  1  0.17994147  0.62138561  0.38895584  1  -0.744327  0  -0.258697  -0.604203  0  2.136688  0
O  O134  1  0.62138549  0.17994109  0.88895566  1  -0.744354  0  -0.258712  -0.604229  0  2.136645  0
O  O135  1  0.82005806  0.37861394  0.61104462  1  -0.744354  0  -0.258696  -0.604228  0  2.136681  0
O  O136  1  0.19949558  0.97847377  0.12267797  1  -1.244532  0  -0.352533  -0.640819  0  2.296624  0
O  O137  1  0.02152618  0.80050487  0.37732156  1  -1.244537  0  -0.352542  -0.640843  0  2.296629  0
O  O138  1  0.80050485  0.02152577  0.87732211  1  -1.244537  0  -0.352523  -0.640808  0  2.296652  0
O  O139  1  0.97847316  0.19949375  0.62268011  1  -1.244574  0  -0.352568  -0.640848  0  2.296644  0
O  O140  1  0.87389050  0.27411415  0.81590769  1  -1.249444  0  -0.363004  -0.672814  0  2.318014  0
O  O141  1  0.72588724  0.12610891  0.68409313  1  -1.249431  0  -0.362993  -0.672817  0  2.318005  0
O  O142  1  0.12610975  0.72588448  0.18409286  1  -1.249468  0  -0.363031  -0.672851  0  2.318053  0
O  O143  1  0.27411409  0.87389064  0.31590730  1  -1.249462  0  -0.362996  -0.672822  0  2.318008  0
O  O144  1  0.04060736  0.42129605  0.64909445  1  -1.231996  0  -0.344931  -0.632061  0  2.262051  0
O  O145  1  0.57870391  0.95939216  0.85090616  1  -1.231896  0  -0.34493  -0.632073  0  2.262054  0
O  O146  1  0.95939217  0.57870349  0.35090675  1  -1.231902  0  -0.344919  -0.63204  0  2.262031  0
O  O147  1  0.42129562  0.04060739  0.14909430  1  -1.231884  0  -0.344927  -0.632058  0  2.262046  0
O  O148  1  0.37867058  0.08498603  0.93943008  1  -1.256749  0  -0.35462  -0.656662  0  2.265176  0
O  O149  1  0.91501331  0.62132971  0.56056975  1  -1.256742  0  -0.35462  -0.656651  0  2.265142  0
O  O150  1  0.62132985  0.91501352  0.06057000  1  -1.25675  0  -0.354616  -0.656652  0  2.265192  0
O  O151  1  0.08498533  0.37866984  0.43943257  1  -1.256743  0  -0.354601  -0.656626  0  2.265164  0
