# generated using pymatgen
data_CuH24C26(NO)6
_symmetry_space_group_name_H-M   'P 1'
_cell_length_a   9.36457290
_cell_length_b   11.78050800
_cell_length_c   13.20074749
_cell_angle_alpha   114.97078770
_cell_angle_beta   110.79998988
_cell_angle_gamma   89.99313684
_symmetry_Int_Tables_number   1
_chemical_formula_structural   CuH24C26(NO)6
_chemical_formula_sum   'Cu2 H48 C52 N12 O12'
_cell_volume   1214.69580896
_cell_formula_units_Z   2
loop_
 _symmetry_equiv_pos_site_id
 _symmetry_equiv_pos_as_xyz
  1  'x, y, z'
loop_
 _atom_site_type_symbol
 _atom_site_label
 _atom_site_symmetry_multiplicity
 _atom_site_fract_x
 _atom_site_fract_y
 _atom_site_fract_z
 _atom_site_occupancy
 _atom_site_hle17_ddec_charge
 _atom_site_hle17_ddec_spin_density
 _atom_site_hle17_ddec_sum_bond_order
 _atom_site_hle17_magmom
 _atom_site_hse06_10hf_bader_charge
 _atom_site_hse06_10hf_bader_spin_density
 _atom_site_hse06_10hf_ddec_charge
 _atom_site_hse06_10hf_ddec_spin_density
 _atom_site_hse06_10hf_ddec_sum_bond_order
 _atom_site_hse06_10hf_magmom
 _atom_site_hse06_ddec_charge
 _atom_site_hse06_ddec_spin_density
 _atom_site_hse06_ddec_sum_bond_order
 _atom_site_hse06_magmom
 _atom_site_pbe_cm5_charge
 _atom_site_pbe_ddec_charge
 _atom_site_pbe_ddec_spin_density
 _atom_site_pbe_ddec_sum_bond_order
 _atom_site_pbe_magmom
Cu  Cu0  1  0.99999983  0.49999989  0.49999897  1  0.893255  0.686246  1.75116  0.489  1.162879  0.625086  0.883136  0.781561  2.130735  0.622  0.968304  0.853669  2.068907  0.713  0.756005  0.830013  0.728412  2.176834  0.561
Cu  Cu1  1  0.50000033  0.00000093  0.50000150  1  0.893785  0.686551  1.753962  0.49  1.162576  0.625047  0.882864  0.781614  2.134833  0.622  0.968136  0.85367  2.072777  0.713  0.755729  0.828866  0.728046  2.18191  0.56
H  H2  1  0.65648617  0.69277231  0.48502740  1  0.080961  0.005492  0.919788  0.006  0.119804  0.007293  0.093225  0.003702  0.979583  0.004  0.094616  0.002692  0.975909  0.003  0.121235  0.091909  0.004367  0.982442  0.005
H  H3  1  0.17163939  0.80724253  0.51508538  1  0.081226  0.0055  0.920342  0.006  0.127478  0.007294  0.093273  0.003706  0.980212  0.004  0.094709  0.002695  0.976476  0.003  0.12137  0.091922  0.004379  0.983091  0.005
H  H4  1  0.34351420  0.30722694  0.51497015  1  0.080916  0.005492  0.919825  0.006  0.119851  0.007293  0.093177  0.003701  0.979619  0.004  0.094577  0.002692  0.975933  0.003  0.121231  0.091854  0.004367  0.982491  0.005
H  H5  1  0.82836047  0.19275956  0.48491541  1  0.08122  0.005499  0.920298  0.006  0.127483  0.007293  0.093259  0.003706  0.980179  0.004  0.094694  0.002695  0.976442  0.003  0.121373  0.091905  0.004379  0.983063  0.005
H  H6  1  0.86772711  0.10959216  0.93992225  1  0.102256  -1.3e-05  0.958155  0.0  0.092035  -1.6e-05  0.121421  -1.8e-05  1.023678  0.0  0.122432  -1.3e-05  1.023295  0.0  0.103737  0.120548  -1.6e-05  1.024097  0.0
H  H7  1  0.92758897  0.39044122  0.06002938  1  0.102521  -1.3e-05  0.957164  0.0  0.096567  -1.6e-05  0.121072  -1.8e-05  1.023455  0.0  0.122027  -1.3e-05  1.023135  0.0  0.103412  0.120264  -1.7e-05  1.023791  0.0
H  H8  1  0.13227400  0.89040516  0.06007778  1  0.102282  -1.3e-05  0.958111  0.0  0.092079  -1.6e-05  0.121444  -1.8e-05  1.02363  0.0  0.122456  -1.4e-05  1.023248  0.0  0.103769  0.120569  -1.6e-05  1.024053  0.0
H  H9  1  0.07241141  0.60955801  0.93997044  1  0.102511  -1.3e-05  0.957192  0.0  0.096554  -1.6e-05  0.121062  -1.8e-05  1.023472  0.0  0.122019  -1.4e-05  1.023149  0.0  0.103404  0.120254  -1.7e-05  1.023808  0.0
H  H10  1  0.93834398  0.17948294  0.86625893  1  0.102563  6.9e-05  0.932495  0.0  0.046846  2.9e-05  0.122166  1.7e-05  0.997727  0.0  0.122611  1.1e-05  0.997913  0.0  0.104057  0.121872  3.2e-05  0.997405  0.0
H  H11  1  0.07175722  0.32037019  0.13366016  1  0.10276  6.9e-05  0.933337  0.0  0.085266  2.9e-05  0.122139  1.7e-05  0.998529  0.0  0.122603  1.1e-05  0.998674  0.0  0.104268  0.121819  5.1e-05  0.998285  0.0
H  H12  1  0.06165412  0.82051628  0.13374184  1  0.102541  6.9e-05  0.932495  0.0  0.046812  3e-05  0.12214  1.7e-05  0.997738  0.0  0.122583  1.1e-05  0.997925  0.0  0.104038  0.121848  3.2e-05  0.997415  0.0
H  H13  1  0.92824492  0.67963189  0.86634120  1  0.102747  6.9e-05  0.933371  0.0  0.085258  2.8e-05  0.122126  1.6e-05  0.998554  0.0  0.12259  1.1e-05  0.998699  0.0  0.104257  0.121804  5.1e-05  0.99831  0.0
H  H14  1  0.74465418  0.08865160  0.79092660  1  0.115185  -7.3e-05  0.975199  0.0  0.128734  -4.4e-05  0.130955  -6.4e-05  1.041481  0.0  0.133047  -5.3e-05  1.039963  0.0  0.108533  0.129484  -6.9e-05  1.042427  0.0
H  H15  1  0.95365728  0.41143051  0.20903800  1  0.116511  -7.2e-05  0.973662  0.0  0.115081  -4.5e-05  0.131897  -6.4e-05  1.040186  0.0  0.133994  -5.4e-05  1.038651  0.0  0.108894  0.130454  -6.9e-05  1.041112  0.0
H  H16  1  0.25534528  0.91134856  0.20907562  1  0.115172  -7.3e-05  0.975147  0.0  0.128427  -4.4e-05  0.130946  -6.4e-05  1.041428  0.0  0.133037  -5.3e-05  1.03991  0.0  0.108534  0.129477  -6.9e-05  1.042375  0.0
H  H17  1  0.04634309  0.58856873  0.79096106  1  0.116592  -7.2e-05  0.973554  0.0  0.115068  -4.5e-05  0.131927  -6.4e-05  1.040134  0.0  0.134024  -5.3e-05  1.0386  0.0  0.10889  0.130482  -6.9e-05  1.041059  0.0
H  H18  1  0.25889524  0.75853194  0.89587500  1  0.095692  -0.000126  0.945026  0.0  0.062348  -4.6e-05  0.118591  -4.8e-05  1.006869  0.0  0.118525  -4.3e-05  1.007676  0.0  0.103869  0.118528  -3.6e-05  1.006427  0.0
H  H19  1  0.36270518  0.74159378  0.10431923  1  0.095471  -0.000125  0.944646  0.0  0.067485  -4.6e-05  0.118382  -4.8e-05  1.006703  0.0  0.118314  -4.3e-05  1.007511  0.0  0.103841  0.118322  -3.7e-05  1.006243  0.0
H  H20  1  0.74110399  0.24146730  0.10412379  1  0.095681  -0.000126  0.945014  0.0  0.062334  -4.6e-05  0.118584  -4.8e-05  1.006857  0.0  0.118515  -4.3e-05  1.007664  0.0  0.103856  0.118522  -3.6e-05  1.006416  0.0
H  H21  1  0.63729604  0.25840925  0.89568301  1  0.095457  -0.000125  0.944626  0.0  0.067345  -4.6e-05  0.118383  -4.7e-05  1.006672  0.0  0.118318  -4.3e-05  1.00748  0.0  0.103832  0.118319  -3.7e-05  1.006218  0.0
H  H22  1  0.33779443  0.81766337  0.82032186  1  0.103003  3.6e-05  0.966516  0.0  0.091268  3e-05  0.121503  4.9e-05  1.032646  0.0  0.121629  1.7e-05  1.034291  0.0  0.104613  0.121217  8.3e-05  1.031713  0.0
H  H23  1  0.51752747  0.68253350  0.17972287  1  0.102923  3.6e-05  0.967227  0.0  0.085817  3.5e-05  0.121447  4.8e-05  1.033183  0.0  0.121585  1.7e-05  1.034795  0.0  0.104649  0.121164  8.4e-05  1.032264  0.0
H  H24  1  0.66220459  0.18233492  0.17967575  1  0.103064  3.7e-05  0.966446  0.0  0.091417  3e-05  0.121568  4.9e-05  1.032576  0.0  0.121695  1.7e-05  1.034212  0.0  0.104638  0.121281  8.3e-05  1.031643  0.0
H  H25  1  0.48247239  0.31746858  0.82027943  1  0.102904  3.6e-05  0.967244  0.0  0.085836  3.5e-05  0.121463  4.8e-05  1.033161  0.0  0.1216  1.7e-05  1.034774  0.0  0.104673  0.121178  8.4e-05  1.032239  0.0
H  H26  1  0.32153730  0.92653139  0.95944533  1  0.110514  -6.8e-05  0.948356  0.0  0.111533  -3.3e-05  0.13087  -5.6e-05  1.007844  0.0  0.132721  -3.8e-05  1.005915  0.0  0.111644  0.129416  -6.3e-05  1.009342  0.0
H  H27  1  0.36193703  0.57361938  0.04065645  1  0.110142  -6.8e-05  0.94826  0.0  0.095084  -3.3e-05  0.130623  -5.7e-05  1.007714  0.0  0.132428  -3.9e-05  1.005852  0.0  0.111692  0.129185  -6.7e-05  1.0092  0.0
H  H28  1  0.67846421  0.07346786  0.04055251  1  0.110549  -6.8e-05  0.948334  0.0  0.111535  -3.3e-05  0.130883  -5.6e-05  1.007844  0.0  0.132733  -3.9e-05  1.005912  0.0  0.111648  0.129429  -6.3e-05  1.009341  0.0
H  H29  1  0.63806511  0.42638271  0.95934414  1  0.110158  -6.7e-05  0.948282  0.0  0.095042  -3.3e-05  0.130611  -5.7e-05  1.007778  0.0  0.132417  -3.9e-05  1.005916  0.0  0.111684  0.129172  -6.7e-05  1.009265  0.0
H  H30  1  0.62581912  0.38215366  0.46773023  1  0.100553  -0.000865  0.960836  -0.001  0.071278  0.000268  0.109799  8.9e-05  1.025715  0.0  0.111558  4.2e-05  1.026646  0.0  0.099589  0.108463  -1e-06  1.025262  0.0
H  H31  1  0.15813708  0.11799035  0.53235115  1  0.10057  -0.000865  0.961988  -0.001  0.071193  0.000269  0.109543  8.9e-05  1.026991  0.0  0.111362  4.2e-05  1.027838  0.0  0.099475  0.108138  1e-06  1.026672  0.0
H  H32  1  0.37418053  0.61784748  0.53227014  1  0.100552  -0.000866  0.960767  -0.001  0.071295  0.000268  0.109797  8.9e-05  1.025651  0.0  0.111561  4.3e-05  1.026574  0.0  0.099585  0.108461  -1e-06  1.025201  0.0
H  H33  1  0.84186445  0.88200886  0.46765122  1  0.100569  -0.000865  0.961917  -0.001  0.071167  0.000268  0.109528  8.9e-05  1.026952  0.0  0.111349  4.2e-05  1.027797  0.0  0.099464  0.108124  2e-06  1.026634  0.0
H  H34  1  0.39370475  0.22789585  0.29643249  1  0.09177  0.000134  0.979442  0.001  0.067044  1e-06  0.102861  -7.1e-05  1.038446  0.0  0.104601  -5.8e-05  1.03837  0.0  0.096396  0.101798  -7.6e-05  1.038131  0.0
H  H35  1  0.09724861  0.27208096  0.70359484  1  0.091697  0.000135  0.979808  0.001  0.074166  3e-06  0.102865  -7.1e-05  1.038575  0.0  0.104672  -5.7e-05  1.038425  0.0  0.096559  0.101872  -7.3e-05  1.038274  0.0
H  H36  1  0.60629792  0.77210336  0.70357017  1  0.091779  0.000134  0.979415  0.001  0.067079  2e-06  0.102865  -7.1e-05  1.038435  0.0  0.104605  -5.8e-05  1.038357  0.0  0.096402  0.101799  -7.6e-05  1.038119  0.0
H  H37  1  0.90275291  0.72791826  0.29640678  1  0.091682  0.000135  0.979791  0.001  0.074154  3e-06  0.102844  -7.1e-05  1.038568  0.0  0.104651  -5.7e-05  1.038418  0.0  0.096547  0.101853  -7.3e-05  1.038267  0.0
H  H38  1  0.30152555  0.22833402  0.09471430  1  0.103021  -0.001199  0.982719  -0.001  0.112207  1.2e-05  0.11192  -5.3e-05  1.049298  0.0  0.115347  -5.3e-05  1.04718  0.0  0.099576  0.10943  -5e-06  1.050914  0.0
H  H39  1  0.20695574  0.27153487  0.90528142  1  0.102606  -0.001194  0.982182  -0.001  0.113903  1.2e-05  0.11173  -5.2e-05  1.048677  0.0  0.115189  -5.3e-05  1.046479  0.0  0.099695  0.109286  -4.4e-05  1.050258  0.0
H  H40  1  0.69847464  0.77166424  0.90528813  1  0.102952  -0.001199  0.982695  -0.001  0.111874  1.3e-05  0.111866  -5.3e-05  1.049269  0.0  0.115305  -5.3e-05  1.047137  0.0  0.099565  0.109376  -5e-06  1.050885  0.0
H  H41  1  0.79304507  0.72846625  0.09472150  1  0.102672  -0.001194  0.982164  -0.001  0.113916  1.2e-05  0.111807  -5.3e-05  1.048631  0.0  0.115267  -5.3e-05  1.046428  0.0  0.099717  0.109365  -4.4e-05  1.050212  0.0
H  H42  1  0.44578476  0.38186681  0.06529051  1  0.08121  0.00028  0.969646  0.001  0.040972  9.6e-05  0.094159  -1.4e-05  1.028713  0.0  0.096058  -2.1e-05  1.028743  0.0  0.098407  0.092796  -4e-06  1.028847  0.0
H  H43  1  0.38058133  0.11802262  0.93471280  1  0.081769  0.000279  0.969679  0.001  0.045315  9.7e-05  0.094496  -1.4e-05  1.028959  0.0  0.096422  -2.1e-05  1.028934  0.0  0.098507  0.093018  1e-06  1.029171  0.0
H  H44  1  0.55421271  0.61812957  0.93470826  1  0.081216  0.00028  0.969608  0.001  0.041  9.6e-05  0.094165  -1.4e-05  1.028682  0.0  0.096064  -2.1e-05  1.028711  0.0  0.098408  0.092801  -4e-06  1.028818  0.0
H  H45  1  0.61941771  0.88197565  0.06528859  1  0.08171  0.000279  0.969763  0.001  0.045102  9.7e-05  0.09449  -1.4e-05  1.028976  0.0  0.096422  -2.1e-05  1.028956  0.0  0.098482  0.093011  1e-06  1.029192  0.0
H  H46  1  0.68119993  0.53519633  0.23804389  1  0.104398  -0.001157  0.943412  -0.001  0.073386  -4e-06  0.116827  -0.000116  1.00197  0.0  0.119355  -0.000114  1.001701  0.0  0.104053  0.115104  -0.000119  1.002083  0.0
H  H47  1  0.44323390  0.96475220  0.76197280  1  0.104729  -0.001155  0.943184  -0.001  0.078405  -2e-06  0.117243  -0.000116  1.001423  0.0  0.119844  -0.000114  1.001087  0.0  0.104387  0.11553  -0.000117  1.001495  0.0
H  H48  1  0.31879910  0.46480194  0.76195598  1  0.104387  -0.001157  0.943413  -0.001  0.073365  -4e-06  0.116821  -0.000116  1.001968  0.0  0.119349  -0.000114  1.001698  0.0  0.104035  0.115093  -0.000119  1.002083  0.0
H  H49  1  0.55676628  0.03524607  0.23802888  1  0.104679  -0.001155  0.943281  -0.001  0.07844  -2e-06  0.117239  -0.000115  1.001464  0.0  0.11984  -0.000114  1.001129  0.0  0.104402  0.115527  -0.000117  1.001536  0.0
C  C50  1  0.77270194  0.67113842  0.51984381  1  0.22126  -0.016148  3.720993  -0.01  0.670354  -0.005087  0.180679  -0.005851  3.980929  -0.004  0.20534  -0.007262  3.989667  -0.005  0.076392  0.164482  -0.004574  3.975106  -0.003
C  C51  1  0.25283969  0.82889724  0.48015196  1  0.22262  -0.016176  3.720748  -0.01  0.607818  -0.005053  0.181844  -0.005855  3.980292  -0.004  0.206492  -0.007265  3.988996  -0.005  0.076995  0.165707  -0.004593  3.974317  -0.003
C  C52  1  0.22729729  0.32886082  0.48015422  1  0.22139  -0.016162  3.720971  -0.01  0.670313  -0.005086  0.180794  -0.00585  3.980923  -0.004  0.205451  -0.00726  3.989656  -0.005  0.076418  0.164597  -0.004572  3.975095  -0.003
C  C53  1  0.74716017  0.17110486  0.51984807  1  0.222602  -0.016172  3.720718  -0.01  0.607786  -0.005054  0.181861  -0.005856  3.98029  -0.004  0.206509  -0.007267  3.988993  -0.005  0.07699  0.165724  -0.004594  3.974312  -0.003
C  C54  1  0.87844863  0.77278351  0.62808264  1  -0.361656  0.002691  3.854985  0.004  0.005076  0.002318  -0.357018  0.001004  4.133628  0.002  -0.384685  0.00023  4.154401  0.002  -0.069023  -0.339213  0.001745  4.119629  0.003
C  C55  1  0.25038644  0.72720504  0.37196396  1  -0.363737  0.002691  3.853224  0.004  0.031654  0.002286  -0.357448  0.001005  4.130771  0.002  -0.385063  0.000226  4.151442  0.002  -0.068894  -0.3396  0.001789  4.116724  0.003
C  C56  1  0.12155195  0.22721669  0.37191608  1  -0.361636  0.002692  3.854947  0.004  0.005089  0.002322  -0.357037  0.001007  4.133635  0.002  -0.384706  0.00023  4.154407  0.002  -0.069039  -0.33923  0.001745  4.119637  0.003
C  C57  1  0.74961456  0.27279705  0.62803635  1  -0.363642  0.002691  3.853268  0.004  0.032015  0.002287  -0.357442  0.001005  4.130862  0.002  -0.38506  0.000231  4.151539  0.002  -0.068901  -0.339594  0.00179  4.116808  0.003
C  C58  1  0.02920548  0.75885324  0.69192851  1  0.523976  -0.006717  3.839019  -0.007  1.229311  -0.001627  0.473845  -0.00121  4.125918  -0.002  0.509552  -0.001734  4.12763  -0.002  0.228328  0.449871  -0.00053  4.124211  -0.002
C  C59  1  0.33726375  0.74117302  0.30815885  1  0.524755  -0.006724  3.836906  -0.007  1.226456  -0.00161  0.474149  -0.001215  4.123579  -0.002  0.50984  -0.001735  4.12531  -0.002  0.228195  0.450215  -0.000581  4.121811  -0.002
C  C60  1  0.97079510  0.24114697  0.30806946  1  0.523917  -0.006721  3.839084  -0.007  1.229321  -0.001626  0.473792  -0.001209  4.126006  -0.002  0.50951  -0.00173  4.127712  -0.002  0.228269  0.449819  -0.00053  4.124299  -0.002
C  C61  1  0.66273403  0.25883003  0.69184102  1  0.524611  -0.006721  3.837097  -0.007  1.226093  -0.001611  0.474087  -0.001217  4.123686  -0.002  0.509778  -0.001741  4.125413  -0.002  0.228156  0.450153  -0.000581  4.121911  -0.002
C  C62  1  0.05972716  0.96505211  0.86416626  1  0.62974  -0.000188  3.844131  0.0  1.880201  0.000355  0.556923  0.000232  4.149424  0.001  0.592301  0.000173  4.14599  0.0  0.341942  0.533058  0.000305  4.151158  0.001
C  C63  1  0.19577723  0.53482600  0.13589531  1  0.627341  -0.000184  3.845701  0.0  1.874151  0.000356  0.554353  0.000238  4.15126  0.001  0.589802  0.000179  4.147785  0.0  0.34042  0.530478  0.000265  4.152923  0.001
C  C64  1  0.94027415  0.03494617  0.13583267  1  0.629796  -0.000189  3.844191  0.0  1.880287  0.000357  0.556963  0.000235  4.149489  0.001  0.592354  0.000175  4.146043  0.0  0.341941  0.533099  0.000305  4.151225  0.001
C  C65  1  0.80422014  0.46517515  0.86410374  1  0.627299  -0.000183  3.845721  0.0  1.873877  0.000354  0.554304  0.000236  4.151284  0.001  0.589752  0.000177  4.147811  0.0  0.340439  0.530431  0.000265  4.152943  0.001
C  C66  1  0.81894812  0.88733539  0.67890088  1  0.521137  -0.00224  3.874307  -0.002  1.309431  -0.001117  0.47793  -0.001122  4.158248  -0.001  0.510925  -0.001099  4.158152  -0.001  0.225445  0.455854  -0.0011  4.157644  -0.001
C  C67  1  0.14023138  0.61252510  0.32107696  1  0.523169  -0.002238  3.874435  -0.002  1.337313  -0.001108  0.478505  -0.001115  4.159495  -0.001  0.511528  -0.001091  4.159375  -0.001  0.226066  0.456407  -0.001104  4.15893  -0.001
C  C68  1  0.18105111  0.11266385  0.32109790  1  0.521073  -0.002242  3.874339  -0.002  1.309424  -0.001117  0.477897  -0.001121  4.158251  -0.001  0.510893  -0.001099  4.158161  -0.001  0.225437  0.455822  -0.001102  4.157651  -0.001
C  C69  1  0.85976734  0.38747699  0.67892354  1  0.523159  -0.002236  3.874465  -0.002  1.337176  -0.001109  0.47852  -0.001116  4.159524  -0.001  0.511543  -0.001094  4.159401  -0.001  0.226049  0.456423  -0.001105  4.158952  -0.001
C  C70  1  0.86370802  0.09785129  0.85214659  1  -0.150738  2.9e-05  3.636936  0.0  0.241181  1.9e-05  -0.254726  7e-06  3.887415  0.0  -0.249732  0.0  3.894249  0.0  -0.14238  -0.25779  3.2e-05  3.882639  0.0
C  C71  1  0.01142369  0.40211792  0.14778184  1  -0.151941  2.9e-05  3.635652  0.0  0.204286  1.8e-05  -0.255328  5e-06  3.886657  0.0  -0.250253  1e-06  3.893413  0.0  -0.142646  -0.258475  5.2e-05  3.881913  0.0
C  C72  1  0.13629101  0.90214698  0.14785328  1  -0.150702  2.8e-05  3.636852  0.0  0.2415  1.9e-05  -0.254699  6e-06  3.887347  0.0  -0.249708  -0.0  3.894187  0.0  -0.142374  -0.257761  3.2e-05  3.88257  0.0
C  C73  1  0.98857804  0.59788226  0.85221943  1  -0.152012  2.9e-05  3.63567  0.0  0.20427  1.9e-05  -0.255353  6e-06  3.88667  0.0  -0.250276  0.0  3.89342  0.0  -0.142623  -0.258501  5.3e-05  3.881931  0.0
C  C74  1  0.26815563  0.83850039  0.87526385  1  -0.149471  0.000282  3.653962  0.0  0.235402  0.000248  -0.256726  0.000267  3.906682  0.0  -0.251153  0.000128  3.913961  0.0  -0.138902  -0.26024  0.0004  3.901977  0.0
C  C75  1  0.39284526  0.66161579  0.12487762  1  -0.1484  0.000279  3.653127  0.0  0.258198  0.000246  -0.255805  0.000267  3.905796  0.0  -0.250197  0.00013  3.913111  0.0  -0.138927  -0.259339  0.00039  3.901059  0.0
C  C76  1  0.73184339  0.16149791  0.12473301  1  -0.14954  0.000281  3.653956  0.0  0.235248  0.000249  -0.256806  0.000269  3.906674  0.0  -0.251224  0.000131  3.913958  0.0  -0.138923  -0.260316  0.000402  3.901969  0.0
C  C77  1  0.60715481  0.33838724  0.87512433  1  -0.148359  0.000279  3.653083  0.0  0.25835  0.000245  -0.255802  0.000266  3.905776  0.0  -0.250196  0.000131  3.913091  0.0  -0.138929  -0.259332  0.000392  3.901036  0.0
C  C78  1  0.66456814  0.46838406  0.36272219  1  0.222005  -0.008895  3.822594  -0.008  0.329738  -0.00344  0.223578  -0.003988  4.075192  -0.003  0.230236  -0.006371  4.099651  -0.005  0.085046  0.219636  -0.001176  4.057851  -0.001
C  C79  1  0.30205145  0.03170771  0.63735170  1  0.223071  -0.008917  3.822018  -0.008  0.280027  -0.003375  0.224464  -0.003985  4.074455  -0.003  0.231132  -0.006364  4.098913  -0.005  0.084964  0.220567  -0.001129  4.057044  -0.001
C  C80  1  0.33542995  0.53161517  0.63727706  1  0.222065  -0.008898  3.82259  -0.008  0.329738  -0.003443  0.223598  -0.003992  4.075204  -0.003  0.230248  -0.006371  4.09968  -0.005  0.085023  0.219658  -0.001175  4.057856  -0.001
C  C81  1  0.69795162  0.96829342  0.36264876  1  0.223122  -0.008923  3.822044  -0.008  0.280059  -0.003375  0.22451  -0.003986  4.074522  -0.003  0.231178  -0.006363  4.098983  -0.005  0.085006  0.220617  -0.001128  4.057114  -0.001
C  C82  1  0.58473533  0.38151600  0.37923267  1  -0.141559  0.023791  3.71651  0.022  -0.04914  0.011486  -0.167649  0.0072  3.969718  0.007  -0.17301  0.0058  3.992289  0.006  -0.094877  -0.163568  0.009001  3.953983  0.008
C  C83  1  0.20564290  0.11855219  0.62080930  1  -0.140726  0.023779  3.717264  0.022  -0.057243  0.01148  -0.166361  0.007191  3.97  0.007  -0.171751  0.005793  3.992524  0.006  -0.093787  -0.162178  0.008972  3.954255  0.008
C  C84  1  0.41526640  0.61848417  0.62076936  1  -0.141562  0.023796  3.716462  0.022  -0.049104  0.011489  -0.167639  0.007202  3.969667  0.007  -0.173  0.005801  3.99224  0.006  -0.094849  -0.163563  0.009  3.953933  0.008
C  C85  1  0.79435748  0.88144703  0.37919128  1  -0.140733  0.023781  3.717243  0.022  -0.057261  0.01148  -0.166354  0.007191  3.96999  0.007  -0.171744  0.005793  3.992512  0.006  -0.093773  -0.162174  0.008971  3.95425  0.008
C  C86  1  0.45432189  0.29570263  0.28277457  1  -0.068581  -0.021349  3.779792  -0.015  -0.006362  -0.004162  -0.076877  -0.004545  4.028782  -0.003  -0.077743  -0.00516  4.051483  -0.003  -0.097476  -0.076593  -0.003999  4.013156  -0.003
C  C87  1  0.17165383  0.20431852  0.71724066  1  -0.068995  -0.021322  3.781209  -0.015  -0.006124  -0.004168  -0.077417  -0.004543  4.030031  -0.003  -0.078365  -0.005159  4.052731  -0.003  -0.097405  -0.077129  -0.004002  4.014326  -0.003
C  C88  1  0.54567871  0.70429754  0.71722718  1  -0.068606  -0.021355  3.779723  -0.015  -0.006459  -0.004162  -0.0769  -0.004546  4.028726  -0.003  -0.077764  -0.005161  4.051427  -0.003  -0.097505  -0.076612  -0.003999  4.013096  -0.003
C  C89  1  0.82834718  0.79568355  0.28276267  1  -0.068927  -0.021328  3.781301  -0.015  -0.006101  -0.004167  -0.077344  -0.004542  4.030104  -0.003  -0.078291  -0.005158  4.052805  -0.003  -0.097384  -0.077057  -0.004002  4.014406  -0.003
C  C90  1  0.40343669  0.29592710  0.16964057  1  -0.092113  0.031746  3.759324  0.028  -0.12199  0.013594  -0.11694  0.008586  4.019114  0.008  -0.121311  0.006316  4.041697  0.006  -0.102192  -0.11371  0.010265  4.003558  0.009
C  C91  1  0.23399924  0.20408691  0.83036672  1  -0.091618  0.031643  3.7586  0.028  -0.113834  0.013565  -0.11656  0.008567  4.018278  0.008  -0.120944  0.006304  4.040877  0.006  -0.10279  -0.113336  0.010211  4.002683  0.009
C  C92  1  0.59656100  0.70407023  0.83035937  1  -0.092079  0.031751  3.759355  0.028  -0.121563  0.013594  -0.116928  0.008586  4.019168  0.008  -0.121313  0.006316  4.041745  0.006  -0.10222  -0.113698  0.010266  4.003611  0.009
C  C93  1  0.76600364  0.79591326  0.16963484  1  -0.091752  0.03165  3.758647  0.028  -0.113825  0.013565  -0.116701  0.008567  4.018328  0.008  -0.121086  0.006304  4.04093  0.006  -0.102823  -0.113476  0.010211  4.002737  0.009
C  C94  1  0.48495148  0.38205291  0.15354125  1  -0.064245  -0.021852  3.792672  -0.015  -0.020843  -0.004233  -0.074935  -0.004636  4.044805  -0.003  -0.075676  -0.005215  4.067749  -0.003  -0.096939  -0.074043  -0.003787  4.028976  -0.003
C  C95  1  0.33163485  0.11795053  0.84648510  1  -0.06581  -0.021792  3.794003  -0.015  -0.021778  -0.00422  -0.076506  -0.004623  4.046427  -0.003  -0.077267  -0.005204  4.069434  -0.003  -0.09723  -0.075484  -0.003716  4.030576  -0.003
C  C96  1  0.51504641  0.61794537  0.84645835  1  -0.064216  -0.021856  3.792764  -0.015  -0.02091  -0.004232  -0.074917  -0.004636  4.044904  -0.003  -0.075658  -0.005214  4.067852  -0.003  -0.09691  -0.074026  -0.003787  4.029073  -0.003
C  C97  1  0.66836533  0.88204773  0.15351657  1  -0.065748  -0.021803  3.794003  -0.015  -0.021538  -0.004219  -0.076482  -0.004622  4.046417  -0.003  -0.077254  -0.005203  4.069438  -0.003  -0.097179  -0.075459  -0.003716  4.030566  -0.003
C  C98  1  0.61555150  0.46822187  0.24947884  1  -0.147925  0.024481  3.71202  0.022  -0.029284  0.012178  -0.172325  0.007652  3.964321  0.007  -0.177435  0.006077  3.985686  0.006  -0.094231  -0.168867  0.008376  3.949312  0.008
C  C99  1  0.36631097  0.03184383  0.75058572  1  -0.148166  0.024399  3.713601  0.022  0.003961  0.012098  -0.172303  0.007632  3.965466  0.007  -0.177503  0.006064  3.986862  0.006  -0.094412  -0.168818  0.008394  3.95036  0.008
C  C100  1  0.38444660  0.53177737  0.75052041  1  -0.147908  0.024485  3.711994  0.022  -0.029307  0.01218  -0.172307  0.007654  3.964299  0.007  -0.177416  0.006078  3.985663  0.006  -0.094192  -0.168849  0.008376  3.949284  0.008
C  C101  1  0.63368963  0.96815634  0.24941679  1  -0.148119  0.024407  3.713655  0.022  0.003871  0.0121  -0.172297  0.007633  3.965542  0.007  -0.177499  0.006064  3.986943  0.006  -0.094469  -0.168811  0.008395  3.950437  0.008
N  N102  1  0.79662112  0.55642445  0.46239448  1  -0.385664  0.078858  3.258805  0.097  -1.253976  0.075288  -0.344815  0.049347  3.565686  0.066  -0.379927  0.040466  3.581717  0.058  -0.366248  -0.323544  0.053785  3.556407  0.068
N  N103  1  0.33419234  0.94363265  0.53756850  1  -0.386871  0.079024  3.258545  0.097  -1.251415  0.075342  -0.346099  0.049486  3.565856  0.066  -0.381281  0.040587  3.581943  0.058  -0.3667  -0.32461  0.053898  3.556461  0.068
N  N104  1  0.20337946  0.44357575  0.53760424  1  -0.385756  0.078871  3.258744  0.097  -1.253991  0.075288  -0.344839  0.049347  3.565559  0.066  -0.379953  0.040466  3.581596  0.058  -0.36623  -0.323566  0.053785  3.556277  0.068
N  N105  1  0.66581053  0.05636753  0.46243306  1  -0.386891  0.079022  3.258558  0.097  -1.251366  0.075344  -0.346141  0.049487  3.565889  0.066  -0.381323  0.040587  3.581978  0.058  -0.366709  -0.324656  0.053899  3.556494  0.068
N  N106  1  0.11440172  0.85491882  0.80792602  1  -0.269323  0.004868  3.406505  0.007  -1.247214  0.006276  -0.178647  0.00396  3.645089  0.006  -0.203955  0.002702  3.662054  0.004  -0.253699  -0.161633  0.004903  3.633281  0.007
N  N107  1  0.30667050  0.64501808  0.19224969  1  -0.269855  0.004879  3.407368  0.007  -1.254488  0.006276  -0.179168  0.00396  3.646301  0.006  -0.204516  0.002699  3.663241  0.004  -0.254095  -0.162138  0.004926  3.634479  0.007
N  N108  1  0.88559886  0.14508139  0.19207119  1  -0.26941  0.00487  3.406694  0.007  -1.247183  0.006274  -0.178708  0.003959  3.645263  0.006  -0.204034  0.002699  3.662224  0.004  -0.253715  -0.161694  0.004901  3.633458  0.007
N  N109  1  0.69333029  0.35498306  0.80775096  1  -0.269784  0.004878  3.407367  0.007  -1.254464  0.006278  -0.179119  0.003961  3.646292  0.006  -0.204467  0.002702  3.663232  0.004  -0.254085  -0.16209  0.004926  3.634466  0.007
N  N110  1  0.91765092  0.98038062  0.79479432  1  -0.261152  -6.7e-05  3.39522  0.0  -1.247754  -0.000223  -0.16973  -0.000193  3.628306  0.0  -0.194323  -0.000167  3.644766  0.0  -0.252777  -0.15325  -0.000249  3.616594  0.0
N  N111  1  0.12293227  0.51951077  0.20516793  1  -0.260657  -6.7e-05  3.392932  0.0  -1.24293  -0.000223  -0.168556  -0.000193  3.625558  0.0  -0.193248  -0.00017  3.642121  0.0  -0.25233  -0.15204  -0.000239  3.613862  0.0
N  N112  1  0.08234831  0.01961862  0.20520446  1  -0.261167  -6.6e-05  3.39531  0.0  -1.247803  -0.000223  -0.169756  -0.000193  3.628398  0.0  -0.194355  -0.00017  3.644861  0.0  -0.252799  -0.153276  -0.000249  3.616689  0.0
N  N113  1  0.87706988  0.48049132  0.79483266  1  -0.260585  -6.8e-05  3.392925  0.0  -1.242518  -0.000223  -0.168496  -0.000192  3.625541  0.0  -0.193187  -0.000168  3.642105  0.0  -0.252359  -0.151983  -0.00024  3.61384  0.0
O  O114  1  0.09312243  0.66335687  0.65329838  1  -0.539856  0.064687  2.132577  0.086  -1.142802  0.077553  -0.498438  0.049307  2.412196  0.073  -0.534553  0.037027  2.404854  0.059  -0.289951  -0.474625  0.057592  2.416857  0.081
O  O115  1  0.43969797  0.83673730  0.34672311  1  -0.540204  0.064951  2.133846  0.086  -1.143033  0.077548  -0.498623  0.049431  2.413923  0.073  -0.534742  0.037132  2.406515  0.059  -0.289607  -0.474655  0.057813  2.418632  0.081
O  O116  1  0.90687969  0.33664525  0.34669843  1  -0.539787  0.064687  2.13253  0.086  -1.142788  0.077551  -0.498368  0.049306  2.412117  0.073  -0.534483  0.037027  2.404769  0.059  -0.289921  -0.474557  0.057591  2.416781  0.081
O  O117  1  0.56030074  0.16326481  0.65327436  1  -0.540137  0.064946  2.133945  0.086  -1.14302  0.077545  -0.498583  0.049428  2.414009  0.073  -0.534712  0.037131  2.406626  0.059  -0.289561  -0.474617  0.057811  2.418716  0.081
O  O118  1  0.68713270  0.90552295  0.62782267  1  -0.568408  -0.000876  1.994681  0.0  -1.192598  -0.000764  -0.546351  -0.000973  2.249654  0.0  -0.568097  -0.001292  2.238523  0.0  -0.304551  -0.53153  -0.000679  2.25712  0.0
O  O119  1  0.05957566  0.59424472  0.37213477  1  -0.569545  -0.000871  1.994962  0.0  -1.188256  -0.000761  -0.547241  -0.000969  2.250499  0.0  -0.569017  -0.001288  2.239418  0.0  -0.305307  -0.532533  -0.000671  2.258112  0.0
O  O120  1  0.31286592  0.09447342  0.37217713  1  -0.568382  -0.000876  1.99472  0.0  -1.192578  -0.000767  -0.546321  -0.000975  2.249656  0.0  -0.568056  -0.001291  2.238496  0.0  -0.304527  -0.531502  -0.000679  2.257135  0.0
O  O121  1  0.94042514  0.40575641  0.62786739  1  -0.569608  -0.000871  1.994956  0.0  -1.188291  -0.000762  -0.547289  -0.00097  2.250466  0.0  -0.569062  -0.001289  2.239378  0.0  -0.305297  -0.532582  -0.000671  2.258077  0.0
O  O122  1  0.13463616  0.04505440  0.97001622  1  -0.555397  0.001044  1.948921  0.002  -1.1874  0.001197  -0.513589  0.000625  2.180051  0.001  -0.533377  6.6e-05  2.172174  0.0  -0.287953  -0.499913  0.001184  2.18501  0.002
O  O123  1  0.16493280  0.45480852  0.03009465  1  -0.554053  0.001044  1.949459  0.002  -1.182028  0.001195  -0.51212  0.000623  2.180692  0.001  -0.531917  6.5e-05  2.172757  0.0  -0.286811  -0.498419  0.001414  2.18572  0.002
O  O124  1  0.86536503  0.95494868  0.02997998  1  -0.555397  0.001044  1.948882  0.002  -1.187523  0.001195  -0.513568  0.000623  2.180006  0.001  -0.53336  6.6e-05  2.172129  0.0  -0.287907  -0.49989  0.001184  2.184964  0.002
O  O125  1  0.83506477  0.54519359  0.96990255  1  -0.554084  0.001044  1.949555  0.002  -1.181996  0.001196  -0.512098  0.000623  2.180736  0.001  -0.531894  6.6e-05  2.172799  0.0  -0.286806  -0.498399  0.001415  2.185764  0.002
