# generated using pymatgen
data_ZnH19C22(NO2)2
_symmetry_space_group_name_H-M   'P 1'
_cell_length_a   9.55295587
_cell_length_b   10.52524599
_cell_length_c   11.02543458
_cell_angle_alpha   99.03645707
_cell_angle_beta   102.46004635
_cell_angle_gamma   114.24778394
_symmetry_Int_Tables_number   1
_chemical_formula_structural   ZnH19C22(NO2)2
_chemical_formula_sum   'Zn2 H38 C44 N4 O8'
_cell_volume   948.64901425
_cell_formula_units_Z   2
loop_
 _symmetry_equiv_pos_site_id
 _symmetry_equiv_pos_as_xyz
  1  'x, y, z'
loop_
 _atom_site_type_symbol
 _atom_site_label
 _atom_site_symmetry_multiplicity
 _atom_site_fract_x
 _atom_site_fract_y
 _atom_site_fract_z
 _atom_site_occupancy
 _atom_site_hle17_bader_spin_density
 _atom_site_hle17_ddec_charge
 _atom_site_hle17_ddec_spin_density
 _atom_site_hle17_ddec_sum_bond_order
 _atom_site_hle17_magmom
 _atom_site_hse06_10hf_bader_spin_density
 _atom_site_hse06_10hf_ddec_charge
 _atom_site_hse06_10hf_ddec_spin_density
 _atom_site_hse06_10hf_ddec_sum_bond_order
 _atom_site_hse06_10hf_magmom
 _atom_site_hse06_bader_spin_density
 _atom_site_hse06_ddec_charge
 _atom_site_hse06_ddec_spin_density
 _atom_site_hse06_ddec_sum_bond_order
 _atom_site_hse06_magmom
 _atom_site_pbe_bader_spin_density
 _atom_site_pbe_cm5_charge
 _atom_site_pbe_ddec_charge
 _atom_site_pbe_ddec_spin_density
 _atom_site_pbe_ddec_sum_bond_order
 _atom_site_pbe_magmom
Zn  Zn0  1  0.03317860  0.04915737  0.38152512  1  0  1.073852  0  1.82677  0  0  0.897706  0  2.30167  0  0  0.949905  0  2.236151  0  0  0.677663  0.8615  0  2.346502  0
Zn  Zn1  1  0.96682137  0.95084391  0.61847578  1  0  1.073838  0  1.826792  0  0  0.897723  0  2.301693  0  0  0.949922  0  2.236173  0  0  0.677654  0.861523  0  2.346516  0
H  H2  1  0.87988492  0.56074447  0.22235977  1  0  0.104682  0  0.94205  0  0  0.119333  0  1.004738  0  0  0.121174  0  1.004451  0  0  0.097921  0.117702  0  1.005061  0
H  H3  1  0.12011509  0.43925898  0.77764145  1  0  0.104695  0  0.942085  0  0  0.119371  0  1.004766  0  0  0.121216  0  1.004482  0  0  0.097935  0.117741  0  1.005087  0
H  H4  1  0.87276587  0.51716623  0.37089164  1  0  0.111773  0  0.940371  0  0  0.12613  0  0.999503  0  0  0.128194  0  0.998978  0  0  0.100688  0.124111  0  1.000498  0
H  H5  1  0.12723354  0.48283397  0.62910900  1  0  0.111789  0  0.940347  0  0  0.126167  0  0.999483  0  0  0.128236  0  0.998958  0  0  0.100703  0.124152  0  1.000474  0
H  H6  1  0.05260079  0.41042455  0.39835953  1  0  0.098444  0  0.979388  0  0  0.107114  0  1.046119  0  0  0.110266  0  1.044689  0  0  0.096615  0.105019  0  1.046968  0
H  H7  1  0.94739970  0.58957565  0.60164222  1  0  0.098435  0  0.979379  0  0  0.107101  0  1.046118  0  0  0.110255  0  1.044685  0  0  0.096611  0.10501  0  1.046964  0
H  H8  1  0.32698772  0.43647449  0.43844891  1  0  0.086958  0  0.960076  0  0  0.098937  0  1.019962  0  0  0.101545  0  1.018879  0  0  0.096335  0.097069  0  1.02078  0
H  H9  1  0.67301382  0.56352569  0.56155031  1  0  0.086969  0  0.960085  0  0  0.098945  0  1.019966  0  0  0.101546  0  1.018903  0  0  0.096343  0.097079  0  1.02078  0
H  H10  1  0.21298083  0.82712473  0.32133305  1  0  0.103057  0  0.982537  0  0  0.112525  0  1.0482  0  0  0.115486  0  1.047589  0  0  0.097945  0.110576  0  1.048471  0
H  H11  1  0.78701803  0.17287439  0.67866823  1  0  0.103056  0  0.982517  0  0  0.112522  0  1.048184  0  0  0.115483  0  1.047574  0  0  0.09794  0.11057  0  1.048458  0
H  H12  1  0.54928304  0.65807311  0.42151136  1  0  0.094028  0  0.967167  0  0  0.104682  0  1.029101  0  0  0.107678  0  1.027649  0  0  0.096054  0.102676  0  1.030162  0
H  H13  1  0.45071687  0.34192599  0.57848648  1  0  0.093989  0  0.96725  0  0  0.104642  0  1.029178  0  0  0.107636  0  1.027733  0  0  0.096039  0.102641  0  1.030236  0
H  H14  1  0.49619131  0.88282505  0.24503828  1  0  0.106635  0  0.927123  0  0  0.123087  0  0.985797  0  0  0.125361  0  0.984719  0  0  0.100884  0.121532  0  0.986436  0
H  H15  1  0.50380861  0.11717406  0.75496138  1  0  0.10663  0  0.927151  0  0  0.123087  0  0.985815  0  0  0.125361  0  0.984736  0  0  0.10089  0.121533  0  0.986457  0
H  H16  1  0.50374144  0.98627600  0.39007900  1  0  0.11876  0  0.922744  0  0  0.137623  0  0.977401  0  0  0.139264  0  0.977562  0  0  0.109334  0.13653  0  0.977333  0
H  H17  1  0.49625689  0.01372419  0.60991962  1  0  0.118722  0  0.922809  0  0  0.137621  0  0.977419  0  0  0.139261  0  0.977579  0  0  0.10932  0.136527  0  0.977349  0
H  H18  1  0.31816654  0.07779049  0.30164246  1  0  0.157232  0  0.970095  0  0  0.174972  0  1.029288  0  0  0.178202  0  1.027083  0  0  0.107243  0.172549  0  1.031061  0
H  H19  1  0.68183231  0.92220862  0.69835701  1  0  0.157233  0  0.97009  0  0  0.174965  0  1.029299  0  0  0.178196  0  1.027092  0  0  0.107241  0.172541  0  1.031072  0
H  H20  1  0.42855074  0.18727387  0.21402517  1  0  0.132471  0  0.924514  0  0  0.156038  0  0.977175  0  0  0.158198  0  0.976323  0  0  0.104318  0.15485  0  0.977166  0
H  H21  1  0.57144865  0.81272632  0.78597365  1  0  0.132462  0  0.924533  0  0  0.156042  0  0.977182  0  0  0.158204  0  0.976329  0  0  0.104313  0.154852  0  0.977171  0
H  H22  1  0.29060519  0.00119407  0.13634021  1  0  0.130977  0  0.958772  0  0  0.147461  0  1.02585  0  0  0.149149  0  1.02696  0  0  0.099239  0.146483  0  1.025033  0
H  H23  1  0.70939473  0.99880503  0.86365945  1  0  0.13098  0  0.958796  0  0  0.147463  0  1.025878  0  0  0.149151  0  1.026988  0  0  0.099243  0.146485  0  1.025061  0
H  H24  1  0.16370983  0.16894435  0.87490052  1  0  0.106729  0  0.953415  0  0  0.117549  0  1.022926  0  0  0.119333  0  1.021482  0  0  0.117579  0.115915  0  1.024309  0
H  H25  1  0.83629064  0.83105583  0.12509850  1  0  0.106729  0  0.953413  0  0  0.117547  0  1.022934  0  0  0.119329  0  1.021493  0  0  0.117572  0.115908  0  1.024325  0
H  H26  1  0.30484933  0.13481317  0.97746117  1  0  0.086081  0  0.921337  0  0  0.104036  0  0.98151  0  0  0.10434  0  0.981897  0  0  0.116514  0.103442  0  0.981722  0
H  H27  1  0.69515114  0.86518702  0.02253875  1  0  0.086098  0  0.921328  0  0  0.104052  0  0.981501  0  0  0.104357  0  0.981887  0  0  0.116509  0.103454  0  0.981713  0
H  H28  1  0.39378604  0.45412758  0.18432256  1  0  0.091102  0  0.979268  0  0  0.098966  0  1.045628  0  0  0.101337  0  1.045778  0  0  0.096699  0.097152  0  1.045871  0
H  H29  1  0.60621388  0.54587153  0.81567801  1  0  0.091106  0  0.979244  0  0  0.098976  0  1.045608  0  0  0.101348  0  1.045757  0  0  0.096704  0.097165  0  1.045847  0
H  H30  1  0.00723578  0.31440268  0.89416558  1  0  0.111882  0  0.975522  0  0  0.120323  0  1.040355  0  0  0.123331  0  1.038874  0  0  0.10616  0.11829  0  1.04145  0
H  H31  1  0.99276306  0.68559642  0.10583297  1  0  0.111872  0  0.975514  0  0  0.120314  0  1.040345  0  0  0.123323  0  1.038865  0  0  0.106172  0.118282  0  1.04144  0
H  H32  1  0.77152552  0.34411817  0.92870111  1  0  0.090851  0  0.957598  0  0  0.101216  0  1.018795  0  0  0.103189  0  1.019659  0  0  0.098583  0.099701  0  1.018454  0
H  H33  1  0.22847388  0.65588202  0.07129861  1  0  0.09086  0  0.957589  0  0  0.101226  0  1.018785  0  0  0.103201  0  1.019645  0  0  0.098591  0.099711  0  1.01844  0
H  H34  1  0.66315645  0.26622231  0.10387677  1  0  0.081419  0  0.960959  0  0  0.094213  0  1.018653  0  0  0.096627  0  1.018527  0  0  0.094953  0.092491  0  1.01896  0
H  H35  1  0.33684402  0.73377788  0.89612315  1  0  0.081419  0  0.960952  0  0  0.094215  0  1.018647  0  0  0.096629  0  1.01852  0  0  0.094951  0.09249  0  1.018951  0
H  H36  1  0.78873167  0.15783501  0.25218169  1  0  0.120302  0  0.959476  0  0  0.13187  0  1.013735  0  0  0.135456  0  1.011526  0  0  0.107272  0.129314  0  1.015201  0
H  H37  1  0.21126936  0.84216626  0.74781850  1  0  0.120332  0  0.959437  0  0  0.131871  0  1.013722  0  0  0.135457  0  1.011514  0  0  0.107287  0.129317  0  1.015187  0
H  H38  1  0.39115574  0.30386690  0.79690845  1  0  0.099504  0  0.962589  0  0  0.111517  0  1.021909  0  0  0.113481  0  1.022158  0  0  0.10156  0.109883  0  1.022088  0
H  H39  1  0.60884474  0.69613329  0.20309239  1  0  0.099475  0  0.962618  0  0  0.111486  0  1.021941  0  0  0.113451  0  1.02219  0  0  0.101557  0.10985  0  1.022125  0
C  C40  1  0.94144814  0.59865250  0.32724793  1  0  -0.310081  0  3.690631  0  0  -0.355347  0  3.930743  0  0  -0.361021  0  3.93741  0  0  -0.161344  -0.351151  0  3.926275  0
C  C41  1  0.05855128  0.40134770  0.67275362  1  0  -0.310076  0  3.690687  0  0  -0.355431  0  3.930937  0  0  -0.361124  0  3.937635  0  0  -0.16135  -0.351234  0  3.926446  0
C  C42  1  0.94460155  0.74215675  0.38105646  1  0  0.727372  0  3.815682  0  0  0.678644  0  4.111226  0  0  0.713251  0  4.103286  0  0  0.221222  0.654917  0  4.116918  0
C  C43  1  0.05540112  0.25784561  0.61894510  1  0  0.72743  0  3.815518  0  0  0.678704  0  4.111103  0  0  0.713308  0  4.103169  0  0  0.221255  0.654987  0  4.116783  0
C  C44  1  0.11218632  0.61645165  0.35460701  1  0  0.122907  0  3.743354  0  0  0.149477  0  3.972644  0  0  0.150182  0  3.997539  0  0  -0.010724  0.149296  0  3.955067  0
C  C45  1  0.88781472  0.38354963  0.64539409  1  0  0.122863  0  3.743469  0  0  0.149422  0  3.972816  0  0  0.150133  0  3.997714  0  0  -0.010738  0.149236  0  3.95525  0
C  C46  1  0.14676777  0.50760765  0.38895178  1  0  -0.132998  0  3.751218  0  0  -0.157161  0  4.000171  0  0  -0.160242  0  4.021773  0  0  -0.100741  -0.154949  0  3.985086  0
C  C47  1  0.85323215  0.49239147  0.61104970  1  0  -0.13299  0  3.751303  0  0  -0.15713  0  4.000249  0  0  -0.160209  0  4.021848  0  0  -0.100736  -0.154924  0  3.985168  0
C  C48  1  0.30313359  0.52290451  0.41204463  1  0  -0.067244  0  3.800209  0  0  -0.079689  0  4.054097  0  0  -0.080588  0  4.074769  0  0  -0.100887  -0.079057  0  4.039979  0
C  C49  1  0.69686633  0.47709459  0.58795503  1  0  -0.067242  0  3.8002  0  0  -0.07968  0  4.054083  0  0  -0.080583  0  4.074754  0  0  -0.100868  -0.079044  0  4.039961  0
C  C50  1  0.23785624  0.74064547  0.34604746  1  0  -0.191428  0  3.709226  0  0  -0.217025  0  3.948664  0  0  -0.221772  0  3.971102  0  0  -0.10457  -0.213485  0  3.932711  0
C  C51  1  0.76214373  0.25935580  0.65395253  1  0  -0.19139  0  3.709194  0  0  -0.21698  0  3.948641  0  0  -0.221725  0  3.971078  0  0  -0.104552  -0.213432  0  3.932682  0
C  C52  1  0.39513660  0.75748584  0.36895755  1  0  0.117187  0  3.772516  0  0  0.137493  0  4.013183  0  0  0.138529  0  4.037791  0  0  -0.016885  0.137169  0  3.995391  0
C  C53  1  0.60486280  0.24251435  0.63104217  1  0  0.117194  0  3.772484  0  0  0.137497  0  4.013153  0  0  0.138533  0  4.037759  0  0  -0.016881  0.137171  0  3.995364  0
C  C54  1  0.42736984  0.64686748  0.40208263  1  0  -0.143854  0  3.765758  0  0  -0.165318  0  4.014178  0  0  -0.168508  0  4.035254  0  0  -0.103727  -0.162934  0  3.999178  0
C  C55  1  0.57262900  0.35313163  0.59791683  1  0  -0.143848  0  3.765849  0  0  -0.165316  0  4.01427  0  0  -0.168505  0  4.035345  0  0  -0.10374  -0.162933  0  3.999272  0
C  C56  1  0.51885239  0.89192119  0.34900012  1  0  -0.310206  0  3.701416  0  0  -0.355291  0  3.947164  0  0  -0.36095  0  3.954075  0  0  -0.15857  -0.351301  0  3.94187  0
C  C57  1  0.48114702  0.10807900  0.65099961  1  0  -0.310191  0  3.701459  0  0  -0.355291  0  3.947152  0  0  -0.360944  0  3.954062  0  0  -0.158568  -0.351301  0  3.941858  0
C  C58  1  0.69562721  0.93238802  0.40788950  1  0  0.720776  0  3.830502  0  0  0.668589  0  4.133499  0  0  0.703407  0  4.125149  0  0  0.216554  0.644934  0  4.138358  0
C  C59  1  0.30437274  0.06761324  0.59210777  1  0  0.720812  0  3.830449  0  0  0.668653  0  4.133403  0  0  0.703469  0  4.125054  0  0  0.216593  0.645002  0  4.138258  0
C  C60  1  0.31152876  0.09863196  0.20691971  1  0  -0.411076  0  3.690513  0  0  -0.489248  0  3.925298  0  0  -0.494182  0  3.929153  0  0  -0.233161  -0.485828  0  3.921853  0
C  C61  1  0.68847009  0.90136715  0.79307975  1  0  -0.411049  0  3.690592  0  0  -0.489251  0  3.925342  0  0  -0.494187  0  3.929198  0  0  -0.233153  -0.485829  0  3.921893  0
C  C62  1  0.18009665  0.13859630  0.16766904  1  0  0.422336  0  3.658091  0  0  0.393287  0  3.935621  0  0  0.413365  0  3.946951  0  0  0.240111  0.380336  0  3.927315  0
C  C63  1  0.81990112  0.86140280  0.83232932  1  0  0.422329  0  3.658286  0  0  0.39337  0  3.935739  0  0  0.413449  0  3.947064  0  0  0.240124  0.380416  0  3.927435  0
C  C64  1  0.97034112  0.17898119  0.15744124  1  0  0.148602  0  3.820906  0  0  0.144704  0  4.071342  0  0  0.148246  0  4.09533  0  0  0.084873  0.142264  0  4.054912  0
C  C65  1  0.02965935  0.82101900  0.84255869  1  0  0.148529  0  3.820962  0  0  0.144626  0  4.071409  0  0  0.148191  0  4.095364  0  0  0.08485  0.142188  0  4.054983  0
C  C66  1  0.02970557  0.22280004  0.05629879  1  0  0.100964  0  3.784578  0  0  0.08994  0  4.030023  0  0  0.093481  0  4.052901  0  0  0.092245  0.087569  0  4.014771  0
C  C67  1  0.97029434  0.77719906  0.94369997  1  0  0.100898  0  3.78463  0  0  0.089906  0  4.030068  0  0  0.093441  0  4.052941  0  0  0.092158  0.087532  0  4.014815  0
C  C68  1  0.25092630  0.20885380  0.97211254  1  0  -0.035226  0  3.641809  0  0  -0.102697  0  3.893275  0  0  -0.098151  0  3.903305  0  0  -0.046912  -0.10527  0  3.88628  0
C  C69  1  0.74907418  0.79114639  0.02788829  1  0  -0.035353  0  3.641707  0  0  -0.102813  0  3.893202  0  0  -0.098266  0  3.903233  0  0  -0.046967  -0.105375  0  3.886193  0
C  C70  1  0.37866716  0.36102633  0.98925656  1  0  0.064515  0  3.751213  0  0  0.083317  0  3.992302  0  0  0.082752  0  4.01623  0  0  -0.015628  0.083471  0  3.976271  0
C  C71  1  0.62133276  0.63897278  0.01074401  1  0  0.064546  0  3.751136  0  0  0.083318  0  3.992271  0  0  0.082752  0  4.016199  0  0  -0.015642  0.083474  0  3.976232  0
C  C72  1  0.44017252  0.47277304  0.10313132  1  0  -0.126678  0  3.775032  0  0  -0.146157  0  4.022031  0  0  -0.148796  0  4.044117  0  0  -0.098273  -0.144553  0  4.007712  0
C  C73  1  0.55982903  0.52722715  0.89686880  1  0  -0.126671  0  3.774931  0  0  -0.146147  0  4.021948  0  0  -0.148787  0  4.044034  0  0  -0.098284  -0.144546  0  4.007626  0
C  C74  1  0.96097455  0.28266277  0.97227929  1  0  -0.141396  0  3.746568  0  0  -0.159799  0  3.999068  0  0  -0.162609  0  4.01891  0  0  -0.093932  -0.1578  0  3.985631  0
C  C75  1  0.03902592  0.71733742  0.02772063  1  0  -0.141335  0  3.746516  0  0  -0.159747  0  3.999018  0  0  -0.162559  0  4.018859  0  0  -0.093932  -0.15775  0  3.985583  0
C  C76  1  0.82832479  0.29723726  0.99193762  1  0  -0.076564  0  3.788394  0  0  -0.092565  0  4.043632  0  0  -0.094457  0  4.066294  0  0  -0.09845  -0.091352  0  4.028351  0
C  C77  1  0.17167462  0.70276293  0.00806211  1  0  -0.07655  0  3.788389  0  0  -0.092549  0  4.043628  0  0  -0.09444  0  4.066289  0  0  -0.098422  -0.091342  0  4.028347  0
C  C78  1  0.76684613  0.25245941  0.09149390  1  0  -0.088792  0  3.810633  0  0  -0.104178  0  4.065964  0  0  -0.10714  0  4.089075  0  0  -0.102032  -0.102194  0  4.050425  0
C  C79  1  0.23315328  0.74754078  0.90850583  1  0  -0.088788  0  3.810617  0  0  -0.104177  0  4.06594  0  0  -0.107138  0  4.08905  0  0  -0.102044  -0.102187  0  4.050398  0
C  C80  1  0.83605237  0.19296495  0.17542123  1  0  -0.139578  0  3.73965  0  0  -0.158712  0  3.990407  0  0  -0.161065  0  4.009561  0  0  -0.093292  -0.156971  0  3.976867  0
C  C81  1  0.16394703  0.80703523  0.82457759  1  0  -0.139626  0  3.739644  0  0  -0.158729  0  3.990401  0  0  -0.16109  0  4.009549  0  0  -0.093311  -0.156995  0  3.976869  0
C  C82  1  0.43954662  0.39003248  0.88642353  1  0  -0.112173  0  3.740075  0  0  -0.128005  0  3.981576  0  0  -0.130803  0  4.004175  0  0  -0.093953  -0.125709  0  3.966178  0
C  C83  1  0.56045386  0.60996771  0.11357731  1  0  -0.112117  0  3.74012  0  0  -0.127934  0  3.98162  0  0  -0.130731  0  4.004221  0  0  -0.093934  -0.125635  0  3.966222  0
N  N84  1  0.06715700  0.12723866  0.22536292  1  0  -0.477824  0  3.117139  0  0  -0.41107  0  3.407243  0  0  -0.433878  0  3.416018  0  0  -0.347968  -0.395937  0  3.401054  0
N  N85  1  0.93284240  0.87276153  0.77463589  1  0  -0.477768  0  3.117134  0  0  -0.41106  0  3.407233  0  0  -0.433883  0  3.416019  0  0  -0.347955  -0.395934  0  3.401053  0
N  N86  1  0.16073498  0.19417595  0.06457108  1  0  -0.167797  0  3.472677  0  0  -0.086285  0  3.697969  0  0  -0.103735  0  3.720851  0  0  -0.238768  -0.074338  0  3.682094  0
N  N87  1  0.83926548  0.80582422  0.93542702  1  0  -0.16769  0  3.47263  0  0  -0.086241  0  3.697917  0  0  -0.103692  0  3.720805  0  0  -0.238669  -0.074289  0  3.682036  0
O  O88  1  0.97215619  0.83164391  0.31284742  1  0  -0.656624  0  2.086798  0  0  -0.587257  0  2.35396  0  0  -0.615669  0  2.341103  0  0  -0.318767  -0.568082  0  2.362772  0
O  O89  1  0.02784268  0.16835522  0.68715659  1  0  -0.656689  0  2.086681  0  0  -0.587325  0  2.353872  0  0  -0.615733  0  2.341012  0  0  -0.31881  -0.568155  0  2.362678  0
O  O90  1  0.92645410  0.76451675  0.49191221  1  0  -0.642896  0  2.063778  0  0  -0.57394  0  2.330722  0  0  -0.602762  0  2.31725  0  0  -0.313546  -0.554731  0  2.340287  0
O  O91  1  0.07354640  0.23548346  0.50809135  1  0  -0.642933  0  2.063761  0  0  -0.573964  0  2.330714  0  0  -0.602782  0  2.317238  0  0  -0.313574  -0.55475  0  2.340257  0
O  O92  1  0.74034323  0.92181377  0.52154286  1  0  -0.648945  0  2.101759  0  0  -0.577538  0  2.368646  0  0  -0.606809  0  2.356049  0  0  -0.310242  -0.557346  0  2.376615  0
O  O93  1  0.25965669  0.07818533  0.47845680  1  0  -0.648946  0  2.101818  0  0  -0.577549  0  2.368704  0  0  -0.606821  0  2.356109  0  0  -0.310245  -0.557359  0  2.376673  0
O  O94  1  0.78625343  0.97717762  0.33877137  1  0  -0.650026  0  2.086018  0  0  -0.583474  0  2.355911  0  0  -0.611594  0  2.34223  0  0  -0.316178  -0.563768  0  2.364454  0
O  O95  1  0.21374380  0.02282041  0.66122946  1  0  -0.650029  0  2.085864  0  0  -0.583511  0  2.355767  0  0  -0.611635  0  2.342087  0  0  -0.316195  -0.563808  0  2.364306  0
