# generated using pymatgen
data_Cu2H29C30N3O10
_symmetry_space_group_name_H-M   'P 1'
_cell_length_a   11.12285093
_cell_length_b   11.12310275
_cell_length_c   19.11480468
_cell_angle_alpha   93.27382366
_cell_angle_beta   93.27329353
_cell_angle_gamma   94.51091021
_symmetry_Int_Tables_number   1
_chemical_formula_structural   Cu2H29C30N3O10
_chemical_formula_sum   'Cu4 H58 C60 N6 O20'
_cell_volume   2349.21123307
_cell_formula_units_Z   2
loop_
 _symmetry_equiv_pos_site_id
 _symmetry_equiv_pos_as_xyz
  1  'x, y, z'
loop_
 _atom_site_type_symbol
 _atom_site_label
 _atom_site_symmetry_multiplicity
 _atom_site_fract_x
 _atom_site_fract_y
 _atom_site_fract_z
 _atom_site_occupancy
 _atom_site_pbe_bader_charge
 _atom_site_pbe_bader_spin_density
 _atom_site_pbe_cm5_charge
 _atom_site_pbe_ddec_charge
 _atom_site_pbe_ddec_spin_density
 _atom_site_pbe_ddec_sum_bond_order
 _atom_site_pbe_magmom
Cu  Cu0  1  0.03252014  0.90364013  0.52685921  1  1.092905  0.553728  0.677717  0.830888  0.709036  2.31455  0.551
Cu  Cu1  1  0.09636694  0.96748757  0.97313882  1  1.09348  0.553758  0.677664  0.830813  0.709079  2.314723  0.551
Cu  Cu2  1  0.96748501  0.09636045  0.47314002  1  1.093294  -0.553776  0.677652  0.830842  -0.709082  2.314568  -0.551
Cu  Cu3  1  0.90363548  0.03251729  0.02685786  1  1.093046  -0.553763  0.677713  0.831053  -0.709068  2.314386  -0.551
H  H4  1  0.24270919  0.78107639  0.36410905  1  0.081506  0.000177  0.10727  0.121415  0.000178  1.019789  0.0
H  H5  1  0.21893756  0.75729706  0.13588966  1  0.081455  0.000178  0.107279  0.121502  0.000178  1.019707  0.0
H  H6  1  0.75728773  0.21892601  0.63589148  1  0.081523  -0.000178  0.10725  0.121423  -0.000178  1.019804  0.0
H  H7  1  0.78107187  0.24271201  0.86411220  1  0.081453  -0.000178  0.107231  0.121417  -0.000178  1.019766  0.0
H  H8  1  0.00434441  0.99567048  0.24999768  1  0.107323  -0.000396  0.109808  0.130157  -0.00034  0.99502  0.0
H  H9  1  0.99565436  0.00433214  0.75000137  1  0.107381  0.000396  0.109827  0.130174  0.000341  0.995034  0.0
H  H10  1  0.69146102  0.66908562  0.48725679  1  0.077302  0.000317  0.101247  0.097378  0.000252  1.016242  0.0
H  H11  1  0.33090844  0.30853786  0.01275307  1  0.077366  0.000317  0.101247  0.097368  0.000252  1.016214  0.0
H  H12  1  0.30854967  0.33091104  0.51274199  1  0.077401  -0.000318  0.101246  0.09736  -0.000252  1.01632  0.0
H  H13  1  0.66908389  0.69145847  0.98725434  1  0.077333  -0.000317  0.101232  0.097365  -0.000252  1.016257  0.0
H  H14  1  0.51191290  0.55406292  0.42454583  1  0.04838  -0.000211  0.098423  0.09903  -0.00011  1.001404  0.0
H  H15  1  0.44593451  0.48807953  0.07546726  1  0.048388  -0.000211  0.098429  0.098977  -0.00011  1.001376  0.0
H  H16  1  0.48809224  0.44593214  0.57545788  1  0.048265  0.000211  0.098429  0.099074  0.00011  1.001442  0.0
H  H17  1  0.55406788  0.51190970  0.92454185  1  0.048321  0.000211  0.098439  0.099028  0.00011  1.001402  0.0
H  H18  1  0.47269050  0.84729082  0.28969060  1  0.047236  0.000166  0.099573  0.099411  8.6e-05  1.02849  0.0
H  H19  1  0.15269167  0.52731268  0.21031503  1  0.047605  0.000166  0.099528  0.099377  8.6e-05  1.028377  0.0
H  H20  1  0.52731856  0.15269849  0.71030675  1  0.047496  -0.000166  0.099567  0.09944  -8.6e-05  1.02837  0.0
H  H21  1  0.84730773  0.47269802  0.78968805  1  0.047848  -0.000166  0.099562  0.099419  -8.6e-05  1.02842  0.0
H  H22  1  0.39622101  0.52805950  0.30142274  1  0.046382  -2.4e-05  0.113117  0.095893  -1.1e-05  0.96283  0.0
H  H23  1  0.47193635  0.60376077  0.19858385  1  0.046322  -2.4e-05  0.11311  0.095952  -1.1e-05  0.9629  0.0
H  H24  1  0.60377246  0.47193717  0.69857584  1  0.046447  2.4e-05  0.113093  0.095857  1.1e-05  0.962896  0.0
H  H25  1  0.52806408  0.39624465  0.80141852  1  0.046285  2.4e-05  0.113115  0.095911  1.1e-05  0.962905  0.0
H  H26  1  0.29923448  0.61217722  0.34989778  1  0.060214  -3.1e-05  0.11  0.089689  -2.5e-05  1.013782  0.0
H  H27  1  0.38783161  0.70075150  0.15010698  1  0.060486  -3.1e-05  0.110061  0.089747  -2.5e-05  1.01388  0.0
H  H28  1  0.70076876  0.38782490  0.65010405  1  0.0605  3.1e-05  0.110011  0.089692  2.6e-05  1.013736  0.0
H  H29  1  0.61216793  0.29925291  0.84989584  1  0.060319  3.1e-05  0.11003  0.089725  2.6e-05  1.013891  0.0
H  H30  1  0.65273057  0.96186049  0.35319699  1  0.072531  -0.00029  0.111152  0.119661  -0.000237  0.983969  0.0
H  H31  1  0.03812291  0.34727380  0.14680956  1  0.072177  -0.000291  0.111179  0.119681  -0.000237  0.983898  0.0
H  H32  1  0.34728319  0.03812763  0.64679528  1  0.072638  0.00029  0.111208  0.119745  0.000237  0.983863  0.0
H  H33  1  0.96187450  0.65273928  0.85319824  1  0.072248  0.00029  0.111236  0.119787  0.000237  0.983947  0.0
H  H34  1  0.91409486  0.67295273  0.58348767  1  0.069833  -4.3e-05  0.119486  0.046443  -3.4e-05  0.992523  0.0
H  H35  1  0.32705930  0.08592208  0.91651986  1  0.069706  -4.3e-05  0.119465  0.046404  -3.4e-05  0.992388  0.0
H  H36  1  0.08591295  0.32703971  0.41648726  1  0.069347  4.3e-05  0.119444  0.046275  3.4e-05  0.992514  0.0
H  H37  1  0.67291946  0.91408855  0.08350851  1  0.069593  4.3e-05  0.119497  0.04647  3.4e-05  0.992465  0.0
H  H38  1  0.94662378  0.42442741  0.66624350  1  0.059007  -1.1e-05  0.101616  0.116037  -6e-06  0.98757  0.0
H  H39  1  0.57557640  0.05337458  0.83374891  1  0.058827  -1.1e-05  0.101544  0.115929  -6e-06  0.987519  0.0
H  H40  1  0.05338244  0.57557526  0.33374853  1  0.05878  1.1e-05  0.101547  0.1159  6e-06  0.987541  0.0
H  H41  1  0.42439144  0.94662372  0.16625757  1  0.05842  1.1e-05  0.101417  0.11574  6e-06  0.987664  0.0
H  H42  1  0.92263419  0.37086649  0.57658156  1  0.109214  -5.3e-05  0.108522  0.137015  -4.4e-05  1.001791  0.0
H  H43  1  0.62914921  0.07735130  0.92340914  1  0.109052  -5.3e-05  0.108481  0.136924  -4.4e-05  1.00171  0.0
H  H44  1  0.07737677  0.62912586  0.42341024  1  0.1093  5.3e-05  0.10848  0.13686  4.4e-05  1.001821  0.0
H  H45  1  0.37083609  0.92263438  0.07659806  1  0.110821  5.3e-05  0.108405  0.136792  4.4e-05  1.001785  0.0
H  H46  1  0.84579317  0.49651535  0.60896147  1  0.032833  -5e-06  0.103696  0.105096  2e-06  1.020121  0.0
H  H47  1  0.50350619  0.15420871  0.89104024  1  0.033139  -5e-06  0.103733  0.105095  2e-06  1.020054  0.0
H  H48  1  0.15421515  0.50348046  0.39102514  1  0.032735  5e-06  0.1037  0.104999  -2e-06  1.020101  0.0
H  H49  1  0.49648566  0.84579909  0.10897548  1  0.033098  5e-06  0.103748  0.105083  -2e-06  1.020127  0.0
H  H50  1  0.20885502  0.56394497  0.57207676  1  0.099852  -1.5e-05  0.111643  0.130587  2e-06  0.997029  0.0
H  H51  1  0.43602807  0.79114990  0.92790287  1  0.09956  -1.5e-05  0.111608  0.130476  2e-06  0.997134  0.0
H  H52  1  0.79115749  0.43605189  0.42792158  1  0.100033  1.5e-05  0.111609  0.130564  -2e-06  0.997009  0.0
H  H53  1  0.56393375  0.20884897  0.07209135  1  0.099488  1.5e-05  0.111582  0.130516  -2e-06  0.997036  0.0
H  H54  1  0.14344302  0.40993081  0.55829070  1  0.049748  -7.6e-05  0.102747  0.117293  -7.8e-05  1.025898  0.0
H  H55  1  0.59005632  0.85653421  0.94169749  1  0.050189  -7.6e-05  0.102696  0.117178  -7.8e-05  1.025724  0.0
H  H56  1  0.85657492  0.59006387  0.44170934  1  0.049576  7.6e-05  0.102756  0.117335  7.8e-05  1.025905  0.0
H  H57  1  0.40991388  0.14345015  0.05829961  1  0.049482  7.6e-05  0.102753  0.117274  7.8e-05  1.026129  0.0
H  H58  1  0.18155105  0.47334927  0.64499888  1  0.060883  -1.3e-05  0.105099  0.117948  -5e-06  0.973905  0.0
H  H59  1  0.52663668  0.81846137  0.85498610  1  0.060623  -1.3e-05  0.10507  0.11799  -5e-06  0.973864  0.0
H  H60  1  0.81845490  0.52665496  0.35500158  1  0.060792  1.3e-05  0.105113  0.118034  4e-06  0.973893  0.0
H  H61  1  0.47331935  0.18155493  0.14500808  1  0.060601  1.3e-05  0.105112  0.117978  5e-06  0.973939  0.0
C  C62  1  0.20604583  0.80528462  0.31332225  1  0.067276  -0.001075  -0.09976  -0.214544  -0.000668  3.954275  -0.001
C  C63  1  0.19472658  0.79395936  0.18667649  1  0.066643  -0.001075  -0.099762  -0.214617  -0.000668  3.954054  -0.001
C  C64  1  0.79395383  0.19471899  0.68667687  1  0.067293  0.001077  -0.099734  -0.214516  0.00067  3.953985  0.001
C  C65  1  0.80528029  0.20604499  0.81332349  1  0.067259  0.001076  -0.099728  -0.214497  0.000669  3.954472  0.001
C  C66  1  0.24500433  0.75500012  0.25000064  1  0.300789  -0.001173  0.092854  0.169267  -0.000801  4.105781  -0.001
C  C67  1  0.75499700  0.24500446  0.75000278  1  0.300696  0.001172  0.092864  0.169214  0.000801  4.105829  0.001
C  C68  1  0.11976925  0.89000177  0.31295876  1  -0.118447  0.000603  -0.017003  0.001131  0.000403  4.003112  0.0
C  C69  1  0.11001458  0.88024136  0.18703784  1  -0.118168  0.000611  -0.017051  0.000975  0.000408  4.003267  0.0
C  C70  1  0.88023044  0.10999912  0.68704130  1  -0.118643  -0.000618  -0.017064  0.001  -0.000413  4.003189  0.0
C  C71  1  0.88999224  0.11976754  0.81296023  1  -0.118572  -0.000614  -0.01701  0.000943  -0.000411  4.003352  0.0
C  C72  1  0.07090856  0.92910749  0.24999751  1  0.05565  0.000804  -0.095211  -0.151565  0.00049  3.946536  0.001
C  C73  1  0.92909203  0.07089809  0.74999912  1  0.055853  -0.000803  -0.09519  -0.151479  -0.000489  3.946507  -0.001
C  C74  1  0.79696497  0.88777815  0.45674616  1  1.540831  0.000154  0.213514  0.577423  -8.9e-05  4.17025  0.0
C  C75  1  0.11221765  0.20303904  0.04325494  1  1.540823  0.000155  0.213542  0.577437  -8.9e-05  4.170342  0.0
C  C76  1  0.20303941  0.11222430  0.54324684  1  1.540751  -0.000153  0.213699  0.577561  8.9e-05  4.169959  0.0
C  C77  1  0.88777739  0.79696676  0.95674565  1  1.540749  -0.000153  0.213584  0.577445  9e-05  4.170227  0.0
C  C78  1  0.48122434  0.69296023  0.35243249  1  -0.029963  -0.000187  -0.01153  0.095093  -0.000124  3.973939  0.0
C  C79  1  0.30702927  0.51877571  0.14757538  1  -0.029472  -0.000188  -0.011566  0.095114  -0.000124  3.973637  0.0
C  C80  1  0.51878458  0.30703353  0.64756661  1  -0.029156  0.000188  -0.011556  0.095072  0.000124  3.973836  0.0
C  C81  1  0.69297017  0.48122860  0.85243110  1  -0.029548  0.000188  -0.011508  0.095245  0.000124  3.973523  0.0
C  C82  1  0.68375536  0.82182736  0.42335030  1  -0.018752  -0.000941  -0.017194  -0.028956  -0.000648  3.963036  -0.001
C  C83  1  0.17816412  0.31625017  0.07665450  1  -0.01961  -0.000936  -0.017156  -0.029212  -0.000644  3.963229  -0.001
C  C84  1  0.31626014  0.17816364  0.57664268  1  -0.018758  0.000927  -0.017289  -0.029232  0.000638  3.963069  0.001
C  C85  1  0.82183625  0.68375519  0.92334997  1  -0.01933  0.000932  -0.017083  -0.028895  0.000642  3.962835  0.001
C  C86  1  0.64288083  0.70745354  0.44391656  1  -0.057792  -0.001153  -0.08504  -0.086988  -0.000695  4.006098  -0.001
C  C87  1  0.29253536  0.35711813  0.05609128  1  -0.057019  -0.001152  -0.085035  -0.086929  -0.000695  4.006135  -0.001
C  C88  1  0.35713178  0.29253975  0.55608059  1  -0.057562  0.001155  -0.08497  -0.086796  0.000697  4.006496  0.001
C  C89  1  0.70745521  0.64287623  0.94391545  1  -0.05743  0.001155  -0.084983  -0.086886  0.000696  4.006249  0.001
C  C90  1  0.54249348  0.64377406  0.40876716  1  -0.092212  -0.000581  -0.099135  -0.153667  -0.000422  4.01139  0.0
C  C91  1  0.35622016  0.45750255  0.09124090  1  -0.092619  -0.00058  -0.099048  -0.153409  -0.000422  4.011078  0.0
C  C92  1  0.45751279  0.35621765  0.59123122  1  -0.092745  0.00058  -0.09922  -0.153853  0.000422  4.011958  0.0
C  C93  1  0.64378392  0.54249501  0.90876653  1  -0.092583  0.00058  -0.099227  -0.153723  0.000422  4.01181  0.0
C  C94  1  0.52079267  0.80806048  0.33296399  1  0.041403  0.000628  -0.095212  -0.141487  0.000456  3.993887  0.001
C  C95  1  0.19192414  0.47920924  0.16704139  1  0.041186  0.000629  -0.095231  -0.141534  0.000456  3.993615  0.001
C  C96  1  0.47921473  0.19192512  0.66703053  1  0.04088  -0.000629  -0.095207  -0.14153  -0.000456  3.993867  -0.001
C  C97  1  0.80808072  0.52079840  0.83296283  1  0.040773  -0.000629  -0.095218  -0.141542  -0.000456  3.993644  -0.001
C  C98  1  0.37317620  0.62099966  0.31419395  1  0.341139  -6.4e-05  -0.05097  -0.114273  -5.4e-05  3.979695  0.0
C  C99  1  0.37899772  0.62681491  0.18581191  1  0.340699  -6.4e-05  -0.050954  -0.114429  -5.4e-05  3.979888  0.0
C  C100  1  0.62682439  0.37899948  0.68580765  1  0.340687  6.4e-05  -0.050908  -0.114208  5.4e-05  3.979638  0.0
C  C101  1  0.62100191  0.37318592  0.81419024  1  0.341174  6.4e-05  -0.050928  -0.114359  5.4e-05  3.979807  0.0
C  C102  1  0.62089490  0.87239137  0.36823854  1  -0.029142  0.000696  -0.078453  -0.077427  0.000413  3.961223  0.001
C  C103  1  0.12759080  0.37910805  0.13176719  1  -0.02907  0.000696  -0.078505  -0.077404  0.000413  3.961239  0.001
C  C104  1  0.37912331  0.12759808  0.63175554  1  -0.029435  -0.000695  -0.078452  -0.077369  -0.000412  3.961434  -0.001
C  C105  1  0.87240325  0.62089482  0.86823848  1  -0.028665  -0.000695  -0.078617  -0.077713  -0.000412  3.961562  -0.001
C  C106  1  0.00915747  0.65159185  0.57998189  1  1.398969  -0.000329  0.170511  0.298365  -0.000276  4.116243  0.0
C  C107  1  0.34841384  0.99085523  0.92001920  1  1.399291  -0.000329  0.170542  0.298385  -0.000276  4.11622  0.0
C  C108  1  0.99085195  0.34839966  0.42000092  1  1.398941  0.000329  0.170473  0.298775  0.000276  4.11628  0.0
C  C109  1  0.65156700  0.00915494  0.07999982  1  1.399066  0.000329  0.170324  0.298153  0.000276  4.116871  0.0
C  C110  1  0.93065265  0.45250845  0.61238149  1  0.261728  -7e-05  -0.131508  -0.28044  -5.5e-05  3.92861  0.0
C  C111  1  0.54750251  0.06934373  0.88761286  1  0.26168  -7.1e-05  -0.131402  -0.280139  -5.6e-05  3.928228  0.0
C  C112  1  0.06935464  0.54748898  0.38760828  1  0.261583  7e-05  -0.1314  -0.279884  5.5e-05  3.928214  0.0
C  C113  1  0.45247692  0.93065747  0.11239841  1  0.260223  7.1e-05  -0.131225  -0.279765  5.6e-05  3.9281  0.0
C  C114  1  0.14769162  0.49363612  0.59206665  1  0.257736  -9.1e-05  -0.133543  -0.275222  -4.8e-05  3.911639  0.0
C  C115  1  0.50635158  0.85230999  0.90792126  1  0.258042  -9.1e-05  -0.133447  -0.275067  -4.8e-05  3.911475  0.0
C  C116  1  0.85231995  0.50636337  0.40793071  1  0.258063  9e-05  -0.133521  -0.275253  4.8e-05  3.911794  0.0
C  C117  1  0.49361011  0.14769151  0.09207567  1  0.258841  9e-05  -0.133517  -0.275187  4.8e-05  3.912025  0.0
C  C118  1  0.07833795  0.93595115  0.38195679  1  1.558693  0.000636  0.213937  0.57937  0.000508  4.15604  0.001
C  C119  1  0.06407159  0.92166226  0.11803732  1  1.558621  0.000633  0.213827  0.579382  0.000506  4.155778  0.001
C  C120  1  0.92165803  0.06405938  0.61803881  1  1.558361  -0.000636  0.213956  0.579328  -0.000509  4.1558  -0.001
C  C121  1  0.93594165  0.07834371  0.88196038  1  1.558358  -0.000637  0.213908  0.579376  -0.000509  4.155846  -0.001
N  N122  1  0.32976845  0.67023285  0.25000337  1  -1.195851  -3e-06  -0.301957  -0.10014  1.1e-05  3.704964  0.0
N  N123  1  0.67023291  0.32977085  0.74999949  1  -1.196078  2e-06  -0.301979  -0.100112  -1.2e-05  3.704887  0.0
N  N124  1  0.02815883  0.53719497  0.59408153  1  -1.205764  -0.000183  -0.287651  0.022648  -9.2e-05  3.723666  0.0
N  N125  1  0.46280673  0.97184752  0.90591503  1  -1.20591  -0.000182  -0.287659  0.022612  -9.2e-05  3.723666  0.0
N  N126  1  0.97185128  0.46279826  0.40590766  1  -1.205629  0.000183  -0.287587  0.022319  9.2e-05  3.72378  0.0
N  N127  1  0.53716893  0.02815959  0.09409685  1  -1.205342  0.000183  -0.287552  0.022632  9.2e-05  3.724156  0.0
O  O128  1  0.08964512  0.86617499  0.43236739  1  -1.108575  0.082853  -0.314662  -0.527617  0.053803  2.369475  0.075
O  O129  1  0.13384858  0.91035419  0.06762750  1  -1.108796  0.08286  -0.314643  -0.527566  0.053806  2.369252  0.075
O  O130  1  0.91033946  0.13381629  0.56762903  1  -1.108356  -0.082832  -0.314685  -0.527542  -0.053791  2.369543  -0.075
O  O131  1  0.86618418  0.08966908  0.93237278  1  -1.108265  -0.082839  -0.314686  -0.527609  -0.053796  2.369515  -0.075
O  O132  1  0.86782768  0.82650058  0.49273852  1  -1.103001  0.080126  -0.317465  -0.546133  0.052107  2.360531  0.072
O  O133  1  0.17349846  0.13218205  0.00726619  1  -1.102869  0.080113  -0.317436  -0.545996  0.0521  2.360617  0.072
O  O134  1  0.13217356  0.17350024  0.50727102  1  -1.103007  -0.080109  -0.317466  -0.546074  -0.052097  2.360824  -0.072
O  O135  1  0.82648939  0.86783865  0.99272113  1  -1.103019  -0.080132  -0.317506  -0.546146  -0.052111  2.360538  -0.072
O  O136  1  0.81437923  0.99891756  0.44441589  1  -1.099422  -0.087438  -0.309365  -0.509525  -0.056612  2.341265  -0.079
O  O137  1  0.00106774  0.18562515  0.05558144  1  -1.09961  -0.087454  -0.30948  -0.509659  -0.056622  2.341209  -0.079
O  O138  1  0.18563558  0.00106989  0.55557169  1  -1.0993  0.087459  -0.309568  -0.50966  0.056625  2.34075  0.079
O  O139  1  0.99893173  0.81437094  0.94442993  1  -1.0994  0.087443  -0.3095  -0.509629  0.056615  2.341149  0.079
O  O140  1  0.03437948  0.03837791  0.38436218  1  -1.092931  -0.088584  -0.313439  -0.515632  -0.057466  2.323751  -0.08
O  O141  1  0.96163532  0.96561932  0.11563077  1  -1.09246  -0.088579  -0.313303  -0.515631  -0.05746  2.32367  -0.08
O  O142  1  0.96564171  0.96163055  0.61564119  1  -1.0928  0.0886  -0.313421  -0.515592  0.057477  2.323446  0.08
O  O143  1  0.03837231  0.03436284  0.88435837  1  -1.092851  0.088597  -0.313395  -0.515585  0.057476  2.323456  0.08
O  O144  1  0.08895869  0.72797937  0.56348129  1  -1.153568  -0.00131  -0.310036  -0.449692  -0.000665  2.29777  0.0
O  O145  1  0.27201788  0.91105985  0.93651810  1  -1.153722  -0.00131  -0.310022  -0.449679  -0.000665  2.298003  0.0
O  O146  1  0.91105432  0.27200973  0.43650470  1  -1.152991  0.00131  -0.31002  -0.449865  0.000666  2.297889  0.0
O  O147  1  0.72796949  0.08894476  0.06349834  1  -1.153927  0.001311  -0.309993  -0.449672  0.000666  2.297822  0.0
