# generated using pymatgen
data_CdH4(C3N5)2
_symmetry_space_group_name_H-M   'P 1'
_cell_length_a   8.48079554
_cell_length_b   10.22013248
_cell_length_c   12.53481433
_cell_angle_alpha   100.08546998
_cell_angle_beta   90.00008400
_cell_angle_gamma   89.99996738
_symmetry_Int_Tables_number   1
_chemical_formula_structural   CdH4(C3N5)2
_chemical_formula_sum   'Cd4 H16 C24 N40'
_cell_volume   1069.66491420
_cell_formula_units_Z   4
loop_
 _symmetry_equiv_pos_site_id
 _symmetry_equiv_pos_as_xyz
  1  'x, y, z'
loop_
 _atom_site_type_symbol
 _atom_site_label
 _atom_site_symmetry_multiplicity
 _atom_site_fract_x
 _atom_site_fract_y
 _atom_site_fract_z
 _atom_site_occupancy
 _atom_site_hle17_bader_spin_density
 _atom_site_hle17_ddec_charge
 _atom_site_hle17_ddec_spin_density
 _atom_site_hle17_ddec_sum_bond_order
 _atom_site_hle17_magmom
 _atom_site_hse06_10hf_bader_spin_density
 _atom_site_hse06_10hf_ddec_charge
 _atom_site_hse06_10hf_ddec_spin_density
 _atom_site_hse06_10hf_ddec_sum_bond_order
 _atom_site_hse06_10hf_magmom
 _atom_site_hse06_bader_spin_density
 _atom_site_hse06_ddec_charge
 _atom_site_hse06_ddec_spin_density
 _atom_site_hse06_ddec_sum_bond_order
 _atom_site_hse06_magmom
 _atom_site_pbe_bader_spin_density
 _atom_site_pbe_cm5_charge
 _atom_site_pbe_ddec_charge
 _atom_site_pbe_ddec_spin_density
 _atom_site_pbe_ddec_sum_bond_order
 _atom_site_pbe_magmom
Cd  Cd0  1  0.93198519  0.49800585  0.79552938  1  0  0.963022  0  1.91125  0  0  0.731498  0  2.387604  0  0  0.782056  0  2.348984  0  0  0.7902  0.694331  0  2.414406  0
Cd  Cd1  1  0.43198500  0.00199403  0.70447132  1  0  0.962999  0  1.91129  0  0  0.731472  0  2.387647  0  0  0.782031  0  2.349027  0  0  0.790204  0.694306  0  2.414451  0
Cd  Cd2  1  0.06801489  0.50199517  0.20447073  1  0  0.962994  0  1.911281  0  0  0.731456  0  2.387633  0  0  0.782015  0  2.349012  0  0  0.790207  0.694291  0  2.414435  0
Cd  Cd3  1  0.56801391  0.99800600  0.29552865  1  0  0.963031  0  1.911267  0  0  0.731508  0  2.387619  0  0  0.782067  0  2.348999  0  0  0.790208  0.694345  0  2.414421  0
H  H4  1  0.77783901  0.50526972  0.55149970  1  0  0.293304  0  0.874368  0  0  0.284316  0  0.932558  0  0  0.289854  0  0.9272  0  0  0.313952  0.280177  0  0.936675  0
H  H5  1  0.27783665  0.99472988  0.94850116  1  0  0.293295  0  0.874365  0  0  0.284288  0  0.932587  0  0  0.289826  0  0.927229  0  0  0.31395  0.28015  0  0.936702  0
H  H6  1  0.22216226  0.49472932  0.44850012  1  0  0.293312  0  0.874375  0  0  0.284305  0  0.932577  0  0  0.289842  0  0.92722  0  0  0.313958  0.280167  0  0.936693  0
H  H7  1  0.72215990  0.00527015  0.05149880  1  0  0.293311  0  0.874386  0  0  0.284301  0  0.932606  0  0  0.289838  0  0.927248  0  0  0.313954  0.280164  0  0.936718  0
H  H8  1  0.92901001  0.40631817  0.56330076  1  0  0.289891  0  0.930318  0  0  0.265441  0  1.01711  0  0  0.272923  0  1.00909  0  0  0.302899  0.259929  0  1.023109  0
H  H9  1  0.42900791  0.09368270  0.93670008  1  0  0.289884  0  0.930296  0  0  0.265434  0  1.017077  0  0  0.272916  0  1.009058  0  0  0.30291  0.259921  0  1.023083  0
H  H10  1  0.07099125  0.59368186  0.43670000  1  0  0.289881  0  0.930331  0  0  0.26542  0  1.017122  0  0  0.272902  0  1.009103  0  0  0.302895  0.259906  0  1.023135  0
H  H11  1  0.57099100  0.90631633  0.06330053  1  0  0.289852  0  0.930358  0  0  0.26543  0  1.017107  0  0  0.272912  0  1.009088  0  0  0.302902  0.259911  0  1.023134  0
H  H12  1  0.70871522  0.40620633  0.00198366  1  0  0.088283  0  0.931255  0  0  0.097036  0  0.994914  0  0  0.099081  0  0.992883  0  0  0.127693  0.095595  0  0.996283  0
H  H13  1  0.20871206  0.09378915  0.49801627  1  0  0.088343  0  0.931194  0  0  0.097019  0  0.994933  0  0  0.099061  0  0.992905  0  0  0.127721  0.095579  0  0.996299  0
H  H14  1  0.29128723  0.59378972  0.99801572  1  0  0.088414  0  0.931143  0  0  0.097078  0  0.994892  0  0  0.099121  0  0.992862  0  0  0.127732  0.095638  0  0.996258  0
H  H15  1  0.79128449  0.90620789  0.50198406  1  0  0.08827  0  0.931276  0  0  0.097023  0  0.994935  0  0  0.099067  0  0.992903  0  0  0.12768  0.095581  0  0.996304  0
H  H16  1  0.80622276  0.22698908  0.11284477  1  0  0.077267  0  0.937512  0  0  0.087175  0  1.003661  0  0  0.089115  0  1.001173  0  0  0.125248  0.085784  0  1.005438  0
H  H17  1  0.30622278  0.27301233  0.38715692  1  0  0.077277  0  0.937503  0  0  0.087187  0  1.003646  0  0  0.089127  0  1.001158  0  0  0.125264  0.085796  0  1.005422  0
H  H18  1  0.19377615  0.77301194  0.88715454  1  0  0.077246  0  0.937533  0  0  0.087154  0  1.003678  0  0  0.089094  0  1.001189  0  0  0.125242  0.085764  0  1.005455  0
H  H19  1  0.69377495  0.72698670  0.61284290  1  0  0.0773  0  0.93748  0  0  0.087208  0  1.003626  0  0  0.089149  0  1.001138  0  0  0.12526  0.085817  0  1.005402  0
C  C20  1  0.67248496  0.34781910  0.92497403  1  0  0.192539  0  3.733911  0  0  0.140922  0  4.019326  0  0  0.151582  0  4.033571  0  0  0.12477  0.13392  0  4.0093  0
C  C21  1  0.17248439  0.15217985  0.57502707  1  0  0.192447  0  3.734097  0  0  0.140893  0  4.019512  0  0  0.151555  0  4.033757  0  0  0.124749  0.133892  0  4.009483  0
C  C22  1  0.32751512  0.65217893  0.07502644  1  0  0.19242  0  3.733997  0  0  0.140877  0  4.019409  0  0  0.151537  0  4.033654  0  0  0.124737  0.133876  0  4.009383  0
C  C23  1  0.82751452  0.84781918  0.42497434  1  0  0.192547  0  3.733979  0  0  0.140929  0  4.019391  0  0  0.151588  0  4.033638  0  0  0.124781  0.133929  0  4.009362  0
C  C24  1  0.64829132  0.27767216  0.75636583  1  0  0.248409  0  3.831917  0  0  0.225344  0  4.092949  0  0  0.235106  0  4.109467  0  0  0.203095  0.218659  0  4.081619  0
C  C25  1  0.14829460  0.22232780  0.74363300  1  0  0.248319  0  3.831928  0  0  0.225274  0  4.092965  0  0  0.235035  0  4.109483  0  0  0.20311  0.218588  0  4.081634  0
C  C26  1  0.35170877  0.72232589  0.24363304  1  0  0.248355  0  3.831938  0  0  0.225341  0  4.092955  0  0  0.235102  0  4.109475  0  0  0.203143  0.218658  0  4.081624  0
C  C27  1  0.85170784  0.77767223  0.25636616  1  0  0.248407  0  3.831935  0  0  0.225342  0  4.092965  0  0  0.235103  0  4.109484  0  0  0.2031  0.218656  0  4.081636  0
C  C28  1  0.65541907  0.25040740  0.63931053  1  0  0.216436  0  3.722899  0  0  0.181121  0  3.994238  0  0  0.194819  0  4.00519  0  0  0.235619  0.171973  0  3.986808  0
C  C29  1  0.15541905  0.24959256  0.86068911  1  0  0.21654  0  3.722979  0  0  0.181181  0  3.994333  0  0  0.194882  0  4.005285  0  0  0.235602  0.172032  0  3.986902  0
C  C30  1  0.34458219  0.74959164  0.36068850  1  0  0.216519  0  3.722776  0  0  0.181097  0  3.994241  0  0  0.194795  0  4.005195  0  0  0.235621  0.171943  0  3.986814  0
C  C31  1  0.84457986  0.75040846  0.13931100  1  0  0.216419  0  3.722935  0  0  0.181109  0  3.994262  0  0  0.194807  0  4.005215  0  0  0.235607  0.17196  0  3.986834  0
C  C32  1  0.69528425  0.25252779  0.46677255  1  0  0.201768  0  3.777131  0  0  0.165486  0  4.045793  0  0  0.179749  0  4.057605  0  0  0.23165  0.155954  0  4.037714  0
C  C33  1  0.19527762  0.24747767  0.03322404  1  0  0.202092  0  3.776807  0  0  0.165479  0  4.045852  0  0  0.179746  0  4.057663  0  0  0.231556  0.155947  0  4.037775  0
C  C34  1  0.30471466  0.74747223  0.53322901  1  0  0.201607  0  3.777117  0  0  0.165318  0  4.045794  0  0  0.179579  0  4.057607  0  0  0.231548  0.155781  0  4.037717  0
C  C35  1  0.80471775  0.75252934  0.96677375  1  0  0.201835  0  3.776978  0  0  0.16546  0  4.045754  0  0  0.179723  0  4.057566  0  0  0.231635  0.155928  0  4.037676  0
C  C36  1  0.75060323  0.28511323  0.36619267  1  0  0.216984  0  3.888312  0  0  0.202156  0  4.158303  0  0  0.208718  0  4.175207  0  0  0.190187  0.19777  0  4.146741  0
C  C37  1  0.25060038  0.21488821  0.13380817  1  0  0.216945  0  3.88825  0  0  0.20222  0  4.158275  0  0  0.208782  0  4.175179  0  0  0.190206  0.197833  0  4.146717  0
C  C38  1  0.24940157  0.71488681  0.63380490  1  0  0.217133  0  3.888371  0  0  0.2023  0  4.158367  0  0  0.208864  0  4.175269  0  0  0.190219  0.197915  0  4.146804  0
C  C39  1  0.74939735  0.78511281  0.86619353  1  0  0.216958  0  3.888385  0  0  0.202151  0  4.1584  0  0  0.208714  0  4.175303  0  0  0.190199  0.197765  0  4.146839  0
C  C40  1  0.79872590  0.26302295  0.19956070  1  0  0.208346  0  3.732994  0  0  0.151714  0  4.008788  0  0  0.164133  0  4.023759  0  0  0.128598  0.143482  0  3.998209  0
C  C41  1  0.29872458  0.23697847  0.30043938  1  0  0.208357  0  3.733011  0  0  0.151727  0  4.008811  0  0  0.164145  0  4.023784  0  0  0.128597  0.143495  0  3.99823  0
C  C42  1  0.20127301  0.73698005  0.80044049  1  0  0.208428  0  3.732908  0  0  0.1518  0  4.008701  0  0  0.164221  0  4.023672  0  0  0.128622  0.143567  0  3.998123  0
C  C43  1  0.70127433  0.76302354  0.69956087  1  0  0.208253  0  3.733115  0  0  0.151623  0  4.00891  0  0  0.164042  0  4.023882  0  0  0.128572  0.143391  0  3.998327  0
N  N44  1  0.72180452  0.37342389  0.82771815  1  0  -0.439037  0  3.210868  0  0  -0.364706  0  3.490372  0  0  -0.386966  0  3.506182  0  0  -0.363207  -0.348808  0  3.478737  0
N  N45  1  0.22180535  0.12657506  0.67228141  1  0  -0.438901  0  3.210954  0  0  -0.364566  0  3.490423  0  0  -0.386826  0  3.506233  0  0  -0.363186  -0.348669  0  3.478786  0
N  N46  1  0.27819675  0.62657316  0.17228138  1  0  -0.438952  0  3.210955  0  0  -0.364616  0  3.490412  0  0  -0.386877  0  3.506222  0  0  -0.363205  -0.348719  0  3.478776  0
N  N47  1  0.77819474  0.87342398  0.32771841  1  0  -0.439048  0  3.210874  0  0  -0.364715  0  3.490378  0  0  -0.386976  0  3.506188  0  0  -0.36321  -0.348818  0  3.478743  0
N  N48  1  0.57510379  0.24337737  0.91553386  1  0  -0.265009  0  2.994078  0  0  -0.245062  0  3.285105  0  0  -0.254057  0  3.300116  0  0  -0.243598  -0.239039  0  3.274938  0
N  N49  1  0.07510435  0.25662061  0.58446620  1  0  -0.264966  0  2.994177  0  0  -0.245005  0  3.285168  0  0  -0.254  0  3.30018  0  0  -0.243574  -0.238983  0  3.274999  0
N  N50  1  0.42489629  0.75662166  0.08446595  1  0  -0.265043  0  2.99417  0  0  -0.245092  0  3.285169  0  0  -0.254089  0  3.300182  0  0  -0.243592  -0.239067  0  3.275005  0
N  N51  1  0.92489574  0.74337743  0.41553426  1  0  -0.264996  0  2.994155  0  0  -0.245045  0  3.28518  0  0  -0.254041  0  3.300193  0  0  -0.243598  -0.239021  0  3.275011  0
N  N52  1  0.55944361  0.19891585  0.80710227  1  0  -0.298598  0  3.138148  0  0  -0.241865  0  3.417452  0  0  -0.256947  0  3.436173  0  0  -0.244562  -0.230794  0  3.404339  0
N  N53  1  0.05944672  0.30108414  0.69289648  1  0  -0.29867  0  3.138115  0  0  -0.241949  0  3.417433  0  0  -0.25703  0  3.436149  0  0  -0.24461  -0.230879  0  3.40432  0
N  N54  1  0.44055530  0.80108319  0.19289675  1  0  -0.298595  0  3.138181  0  0  -0.241881  0  3.417502  0  0  -0.25696  0  3.436215  0  0  -0.244579  -0.230811  0  3.404391  0
N  N55  1  0.94055454  0.69891689  0.30710363  1  0  -0.298598  0  3.138231  0  0  -0.241872  0  3.41755  0  0  -0.256952  0  3.436262  0  0  -0.244565  -0.230803  0  3.404439  0
N  N56  1  0.81898970  0.43604063  0.59452687  1  0  -0.490301  0  2.961825  0  0  -0.480072  0  3.211672  0  0  -0.487537  0  3.206315  0  0  -0.488419  -0.474601  0  3.215715  0
N  N57  1  0.31898754  0.06396028  0.90547387  1  0  -0.490271  0  2.961842  0  0  -0.480037  0  3.211681  0  0  -0.487498  0  3.206326  0  0  -0.488472  -0.474566  0  3.215721  0
N  N58  1  0.18101157  0.56395940  0.40547389  1  0  -0.490383  0  2.961913  0  0  -0.480098  0  3.211736  0  0  -0.48756  0  3.20638  0  0  -0.488472  -0.474633  0  3.215776  0
N  N59  1  0.68101136  0.93604075  0.09452624  1  0  -0.490328  0  2.961972  0  0  -0.480094  0  3.211784  0  0  -0.487559  0  3.20643  0  0  -0.488449  -0.474625  0  3.215823  0
N  N60  1  0.72359536  0.32271414  0.56869321  1  0  0.020489  0  3.506026  0  0  0.095845  0  3.731231  0  0  0.083105  0  3.751741  0  0  -0.134637  0.104051  0  3.71739  0
N  N61  1  0.22359200  0.17728580  0.93130729  1  0  0.020214  0  3.505988  0  0  0.095716  0  3.731208  0  0  0.082967  0  3.751724  0  0  -0.134592  0.103927  0  3.717364  0
N  N62  1  0.27640827  0.67728491  0.43130422  1  0  0.020527  0  3.505857  0  0  0.095916  0  3.731064  0  0  0.083172  0  3.751579  0  0  -0.134579  0.104131  0  3.717219  0
N  N63  1  0.77640573  0.82271522  0.06869441  1  0  0.020532  0  3.505995  0  0  0.095917  0  3.731205  0  0  0.083177  0  3.751718  0  0  -0.1346  0.104127  0  3.717364  0
N  N64  1  0.58730869  0.14288463  0.58231662  1  0  -0.260861  0  3.026149  0  0  -0.225707  0  3.314761  0  0  -0.236962  0  3.328666  0  0  -0.218604  -0.217893  0  3.305075  0
N  N65  1  0.08730636  0.35711336  0.91768186  1  0  -0.260987  0  3.026085  0  0  -0.225819  0  3.314687  0  0  -0.237074  0  3.328589  0  0  -0.218617  -0.218004  0  3.305003  0
N  N66  1  0.41269375  0.85711342  0.41768066  1  0  -0.260853  0  3.025985  0  0  -0.225661  0  3.314619  0  0  -0.236917  0  3.328523  0  0  -0.218637  -0.217846  0  3.304935  0
N  N67  1  0.91269255  0.64288568  0.08231795  1  0  -0.260893  0  3.026137  0  0  -0.22574  0  3.314747  0  0  -0.236997  0  3.328653  0  0  -0.218599  -0.217926  0  3.305062  0
N  N68  1  0.61117544  0.14500941  0.47466241  1  0  -0.263335  0  3.077858  0  0  -0.21682  0  3.366566  0  0  -0.229953  0  3.380556  0  0  -0.22445  -0.207816  0  3.356795  0
N  N69  1  0.11117108  0.35498809  0.02533692  1  0  -0.263267  0  3.077768  0  0  -0.216638  0  3.366537  0  0  -0.229773  0  3.380529  0  0  -0.224373  -0.207636  0  3.356768  0
N  N70  1  0.38882818  0.85499063  0.52533596  1  0  -0.263339  0  3.077758  0  0  -0.216823  0  3.366465  0  0  -0.229955  0  3.380455  0  0  -0.224418  -0.207818  0  3.356695  0
N  N71  1  0.88882665  0.64500995  0.97466355  1  0  -0.263322  0  3.077729  0  0  -0.216774  0  3.36646  0  0  -0.229905  0  3.38045  0  0  -0.224432  -0.207769  0  3.356689  0
N  N72  1  0.72641557  0.19975258  0.27120042  1  0  -0.436715  0  3.111938  0  0  -0.374028  0  3.37983  0  0  -0.393575  0  3.395885  0  0  -0.347889  -0.360081  0  3.368402  0
N  N73  1  0.22641405  0.30024588  0.22880075  1  0  -0.436714  0  3.112042  0  0  -0.374025  0  3.379904  0  0  -0.393573  0  3.395961  0  0  -0.347869  -0.360077  0  3.368475  0
N  N74  1  0.27358688  0.80024646  0.72879860  1  0  -0.43676  0  3.111954  0  0  -0.374069  0  3.379848  0  0  -0.393619  0  3.395904  0  0  -0.347856  -0.360121  0  3.36842  0
N  N75  1  0.77358486  0.69975415  0.77120001  1  0  -0.436678  0  3.11197  0  0  -0.373988  0  3.379855  0  0  -0.393535  0  3.39591  0  0  -0.347866  -0.36004  0  3.368426  0
N  N76  1  0.83171232  0.39478648  0.35550439  1  0  -0.281099  0  2.922203  0  0  -0.271087  0  3.197297  0  0  -0.276469  0  3.211969  0  0  -0.24525  -0.267258  0  3.187477  0
N  N77  1  0.33170839  0.10521493  0.14449732  1  0  -0.281125  0  2.922431  0  0  -0.271102  0  3.197495  0  0  -0.276485  0  3.21217  0  0  -0.245228  -0.267273  0  3.187677  0
N  N78  1  0.16829248  0.60521454  0.64449572  1  0  -0.281156  0  2.922353  0  0  -0.271143  0  3.19745  0  0  -0.276524  0  3.212123  0  0  -0.245258  -0.267314  0  3.18763  0
N  N79  1  0.66828934  0.89478609  0.85550438  1  0  -0.281089  0  2.922242  0  0  -0.271072  0  3.197333  0  0  -0.276454  0  3.212004  0  0  -0.245258  -0.267243  0  3.187514  0
N  N80  1  0.86189687  0.37960640  0.24723967  1  0  -0.281772  0  3.221586  0  0  -0.208698  0  3.517622  0  0  -0.227764  0  3.536262  0  0  -0.263309  -0.195326  0  3.504536  0
N  N81  1  0.36189789  0.12039601  0.25276063  1  0  -0.281823  0  3.221662  0  0  -0.20876  0  3.517718  0  0  -0.227825  0  3.536357  0  0  -0.263356  -0.195387  0  3.504632  0
N  N82  1  0.13810203  0.62039662  0.75275994  1  0  -0.281774  0  3.221574  0  0  -0.208705  0  3.517617  0  0  -0.227772  0  3.536256  0  0  -0.263317  -0.195332  0  3.50453  0
N  N83  1  0.63810220  0.87960502  0.74723868  1  0  -0.281744  0  3.221656  0  0  -0.208674  0  3.517695  0  0  -0.22774  0  3.536334  0  0  -0.263312  -0.195301  0  3.504608  0
