# generated using pymatgen
data_Al2H14C26NO10
_symmetry_space_group_name_H-M   'P 1'
_cell_length_a   6.68350215
_cell_length_b   20.77488068
_cell_length_c   23.74353009
_cell_angle_alpha   89.93671144
_cell_angle_beta   90.06641197
_cell_angle_gamma   89.62828734
_symmetry_Int_Tables_number   1
_chemical_formula_structural   Al2H14C26NO10
_chemical_formula_sum   'Al4 H28 C52 N2 O20'
_cell_volume   3296.69082210
_cell_formula_units_Z   2
loop_
 _symmetry_equiv_pos_site_id
 _symmetry_equiv_pos_as_xyz
  1  'x, y, z'
loop_
 _atom_site_type_symbol
 _atom_site_label
 _atom_site_symmetry_multiplicity
 _atom_site_fract_x
 _atom_site_fract_y
 _atom_site_fract_z
 _atom_site_occupancy
 _atom_site_pbe_bader_charge
 _atom_site_pbe_bader_spin_density
 _atom_site_pbe_cm5_charge
 _atom_site_pbe_ddec_charge
 _atom_site_pbe_ddec_spin_density
 _atom_site_pbe_ddec_sum_bond_order
 _atom_site_pbe_magmom
Al  Al0  1  0.25900158  0.24946783  0.74778710  1  2.502577  0  0.402642  1.648212  0  2.578771  0
Al  Al1  1  0.73467461  0.74889635  0.24821571  1  2.501944  0  0.40343  1.649163  0  2.576124  0
Al  Al2  1  0.75856064  0.24923476  0.74716177  1  2.503737  0  0.402757  1.648833  0  2.5764  0
Al  Al3  1  0.23471058  0.74862483  0.24802632  1  2.504205  0  0.403254  1.64808  0  2.580024  0
H  H4  1  0.76333576  0.41261156  0.47755425  1  0.06351  0  0.102963  0.090224  0  0.991437  0
H  H5  1  0.23488071  0.58641121  0.51841890  1  0.05893  0  0.10329  0.090889  0  0.990712  0
H  H6  1  0.09025842  0.44863108  0.40842148  1  0.060944  0  0.104752  0.092924  0  0.985268  0
H  H7  1  0.90812708  0.55039633  0.58755509  1  0.070468  0  0.105637  0.094492  0  0.982921  0
H  H8  1  0.65974279  0.54466002  0.49046283  1  0.055701  0  0.101611  0.089818  0  0.999038  0
H  H9  1  0.33859482  0.45436848  0.50555163  1  0.065973  0  0.101272  0.089449  0  0.998853  0
H  H10  1  0.66899193  0.53256592  0.03970414  1  0.056991  0  0.109314  0.110465  0  1.001588  0
H  H11  1  0.32032854  0.46364595  0.95717469  1  0.105271  0  0.10954  0.110796  0  1.000774  0
H  H12  1  0.67730883  0.45285651  0.96104514  1  0.049242  0  0.110174  0.111911  0  0.999485  0
H  H13  1  0.31217979  0.54329992  0.03587641  1  0.075686  0  0.109789  0.110819  0  0.999906  0
H  H14  1  0.74955711  0.07619169  0.51054843  1  0.079065  0  0.105274  0.118053  0  1.022696  0
H  H15  1  0.17919565  0.92912251  0.48049397  1  0.084838  0  0.109837  0.122218  0  0.992286  0
H  H16  1  0.82499406  0.03844704  0.96214555  1  0.079779  0  0.109417  0.110657  0  1.001401  0
H  H17  1  0.16968636  0.95913966  0.03280018  1  0.051476  0  0.108966  0.110326  0  1.001882  0
H  H18  1  0.81367304  0.95795792  0.04032860  1  0.085892  0  0.109396  0.110021  0  1.000108  0
H  H19  1  0.18102711  0.03960028  0.95458014  1  0.065076  0  0.110396  0.112226  0  0.998073  0
H  H20  1  0.77453437  0.96680092  0.38855293  1  0.448892  0  0.306217  0.251644  0  0.966386  0
H  H21  1  0.03253722  0.03791680  0.37968722  1  0.056819  0  0.110291  0.119674  0  0.969746  0
H  H22  1  0.03074846  0.05441872  0.45269178  1  0.039819  0  0.094523  0.098083  0  1.022884  0
H  H23  1  0.85588041  0.09462106  0.40752715  1  0.024599  0  0.09208  0.090114  0  0.989823  0
H  H24  1  0.01484894  0.97579025  0.55134621  1  0.43786  0  0.311619  0.253418  0  0.950747  0
H  H25  1  0.90456625  0.04360005  0.61744403  1  0.044206  0  0.104942  0.113884  0  0.995527  0
H  H26  1  0.05763207  0.10296198  0.58533485  1  0.05622  0  0.098249  0.105356  0  0.984597  0
H  H27  1  0.15182471  0.05669748  0.64258315  1  0.069285  0  0.099565  0.112442  0  0.992409  0
H  H28  1  0.50744937  0.33124490  0.73096437  1  0.602839  0  0.359231  0.439769  0  0.839467  0
H  H29  1  0.48641783  0.66763472  0.26639680  1  0.632334  0  0.359478  0.439463  0  0.840234  0
H  H30  1  0.01107932  0.16549953  0.73854702  1  0.638409  0  0.359419  0.439176  0  0.840208  0
H  H31  1  0.98339670  0.83353444  0.24474107  1  0.601889  0  0.360723  0.441216  0  0.835847  0
C  C32  1  0.51171325  0.17139107  0.67126940  1  1.649269  0  0.265716  0.712194  0  4.177891  0
C  C33  1  0.48097417  0.82880072  0.32256858  1  1.667076  0  0.266808  0.709938  0  4.17897  0
C  C34  1  0.50810872  0.17302298  0.82397904  1  1.676888  0  0.2756  0.713968  0  4.166109  0
C  C35  1  0.48473961  0.82448351  0.17082901  1  1.663192  0  0.275949  0.717422  0  4.159563  0
C  C36  1  0.00494029  0.32592649  0.82366764  1  1.690592  0  0.275178  0.713903  0  4.163166  0
C  C37  1  0.98728068  0.67078337  0.17288112  1  1.657243  0  0.273634  0.711914  0  4.168688  0
C  C38  1  0.00967755  0.32706029  0.67098755  1  1.66602  0  0.272626  0.719788  0  4.164152  0
C  C39  1  0.98456133  0.67261899  0.32560825  1  1.668615  0  0.275256  0.724123  0  4.156442  0
C  C40  1  0.05011827  0.47057293  0.44873970  1  -0.005218  0  -0.066223  -0.071071  0  3.620975  0
C  C41  1  0.94818996  0.52840211  0.54724370  1  -0.020673  0  -0.06583  -0.071012  0  3.619288  0
C  C42  1  0.86765343  0.45171000  0.48624340  1  -0.025383  0  -0.068198  -0.077661  0  3.631887  0
C  C43  1  0.13066216  0.54727657  0.50973451  1  -0.013761  0  -0.068166  -0.077495  0  3.632397  0
C  C44  1  0.00828797  0.37141894  0.62431924  1  0.147949  0  -0.049163  -0.210764  0  3.991168  0
C  C45  1  0.98687973  0.62814508  0.37215245  1  0.120341  0  -0.04878  -0.213935  0  3.991037  0
C  C46  1  0.18790733  0.47478573  0.50183585  1  -0.014317  0  -0.070715  -0.081806  0  3.634405  0
C  C47  1  0.81037991  0.52419416  0.49415807  1  -0.026111  0  -0.070569  -0.081563  0  3.637185  0
C  C48  1  0.00587932  0.45455486  0.54053084  1  0.141204  0  0.008069  0.123413  0  3.792924  0
C  C49  1  0.99232238  0.54445069  0.45549078  1  0.137742  0  0.008567  0.120806  0  3.797776  0
C  C50  1  0.00827638  0.40952006  0.58523717  1  -0.463568  0  -0.028467  -0.042032  0  4.09142  0
C  C51  1  0.98898408  0.58964460  0.41092951  1  -0.433621  0  -0.027033  -0.037229  0  4.089912  0
C  C52  1  0.81524807  0.47302705  0.97769798  1  -0.008114  0  -0.074998  -0.115775  0  3.949773  0
C  C53  1  0.17415769  0.52318526  0.01920151  1  -0.004291  0  -0.074406  -0.113626  0  3.94858  0
C  C54  1  0.99926121  0.45318778  0.95403535  1  0.081873  0  0.007217  0.134032  0  4.10233  0
C  C55  1  0.99015345  0.54311661  0.04280559  1  0.049569  0  0.007062  0.133819  0  4.101458  0
C  C56  1  0.17863804  0.47896935  0.97555228  1  -0.036625  0  -0.074939  -0.114667  0  3.950105  0
C  C57  1  0.81074781  0.51728770  0.02132141  1  0.03455  0  -0.074636  -0.113605  0  3.949443  0
C  C58  1  0.00311601  0.40847037  0.90918570  1  -0.513442  0  -0.024227  -0.041443  0  4.091707  0
C  C59  1  0.98672228  0.58801745  0.08752795  1  -0.526183  0  -0.023408  -0.041742  0  4.092512  0
C  C60  1  0.98637555  0.62644807  0.12624271  1  0.29191  0  -0.033972  -0.181106  0  3.946613  0
C  C61  1  0.00470586  0.37020865  0.87035468  1  0.233585  0  -0.032515  -0.181442  0  3.945773  0
C  C62  1  0.63630962  0.99937121  0.45881545  1  0.396461  0  0.089094  0.168868  0  4.109796  0
C  C63  1  0.29368779  0.00524950  0.53299341  1  0.434614  0  0.097397  0.172444  0  4.085232  0
C  C64  1  0.46948373  0.95697665  0.45196722  1  0.149584  0  -0.010889  0.042513  0  4.129419  0
C  C65  1  0.46227166  0.04636033  0.54084509  1  0.068392  0  -0.01417  0.033209  0  4.103025  0
C  C66  1  0.30510459  0.96112868  0.48815668  1  -0.011756  0  -0.091623  -0.223511  0  3.963773  0
C  C67  1  0.62700772  0.04297607  0.50328890  1  -0.014251  0  -0.107845  -0.250631  0  3.979087  0
C  C68  1  0.47084477  0.91201883  0.40755602  1  -0.331975  0  -0.0254  -0.024969  0  4.128719  0
C  C69  1  0.47739869  0.09034574  0.58578087  1  -0.404821  0  -0.021875  -0.007332  0  4.120711  0
C  C70  1  0.50423547  0.12818887  0.62435714  1  0.114887  0  -0.049286  -0.227019  0  3.960317  0
C  C71  1  0.47930205  0.87406713  0.36839323  1  0.017464  0  -0.04306  -0.205484  0  3.952004  0
C  C72  1  0.67615831  0.97615852  0.02126679  1  -0.03383  0  -0.074059  -0.113051  0  3.949007  0
C  C73  1  0.31850116  0.02142870  0.97369198  1  0.010543  0  -0.073969  -0.114207  0  3.945475  0
C  C74  1  0.49106772  0.95347708  0.04161050  1  0.108329  0  0.006271  0.132506  0  4.103576  0
C  C75  1  0.50360640  0.04414046  0.95335411  1  0.111035  0  0.007932  0.135007  0  4.098552  0
C  C76  1  0.31222700  0.97682685  0.01710034  1  0.01536  0  -0.074532  -0.114481  0  3.949587  0
C  C77  1  0.68244430  0.02077387  0.97787231  1  -0.03685  0  -0.073766  -0.113398  0  3.946842  0
C  C78  1  0.48584514  0.90822780  0.08609515  1  -0.449112  0  -0.022793  -0.03785  0  4.094004  0
C  C79  1  0.50866726  0.08940141  0.90884201  1  -0.482907  0  -0.023596  -0.041598  0  4.091185  0
C  C80  1  0.51020805  0.12801924  0.87021573  1  0.193289  0  -0.031495  -0.179785  0  3.944734  0
C  C81  1  0.48380311  0.86946253  0.12462349  1  0.165771  0  -0.035458  -0.188036  0  3.951265  0
C  C82  1  0.93436734  0.04846158  0.41548108  1  0.312483  0  -0.135826  -0.204591  0  3.992949  0
C  C83  1  0.05804118  0.05471161  0.60465728  1  0.283662  0  -0.137908  -0.214781  0  3.981743  0
N  N84  1  0.79678593  0.99542912  0.42257501  1  -1.21348  0  -0.450976  -0.302724  0  3.608125  0
N  N85  1  0.12457592  0.00468098  0.56609160  1  -1.20156  0  -0.444109  -0.289233  0  3.601297  0
O  O86  1  0.67688234  0.18786824  0.80305514  1  -1.230477  0  -0.226751  -0.580659  0  2.287569  0
O  O87  1  0.31518813  0.80872512  0.19079965  1  -1.233201  0  -0.228333  -0.583783  0  2.283583  0
O  O88  1  0.34250621  0.18585311  0.69325461  1  -1.238034  0  -0.236593  -0.601706  0  2.285716  0
O  O89  1  0.65191454  0.81343708  0.30258070  1  -1.240301  0  -0.236463  -0.595425  0  2.281402  0
O  O90  1  0.18097062  0.30784937  0.68800012  1  -1.240793  0  -0.232009  -0.591061  0  2.283658  0
O  O91  1  0.81328941  0.69180858  0.30852456  1  -1.236321  0  -0.230768  -0.589653  0  2.280084  0
O  O92  1  0.33676658  0.19295653  0.80804125  1  -1.230667  0  -0.225634  -0.575199  0  2.285323  0
O  O93  1  0.65573828  0.80538469  0.18791366  1  -1.231512  0  -0.227267  -0.580772  0  2.284705  0
O  O94  1  0.17512429  0.31106729  0.80324831  1  -1.228668  0  -0.227697  -0.579406  0  2.284486  0
O  O95  1  0.81733362  0.68631638  0.19312961  1  -1.235911  0  -0.228778  -0.581754  0  2.287185  0
O  O96  1  0.68356136  0.19069355  0.68739859  1  -1.247719  0  -0.238056  -0.598783  0  2.279499  0
O  O97  1  0.31046287  0.80913173  0.30603761  1  -1.239222  0  -0.2328  -0.587657  0  2.286093  0
O  O98  1  0.50821793  0.28798318  0.74626382  1  -1.403125  0  -0.446086  -0.995359  0  2.196649  0
O  O99  1  0.48557527  0.71035528  0.24995472  1  -1.43136  0  -0.445568  -0.994527  0  2.19735  0
O  O100  1  0.83466921  0.30669494  0.80681119  1  -1.240045  0  -0.226592  -0.576217  0  2.281294  0
O  O101  1  0.15831857  0.68936108  0.18981728  1  -1.236034  0  -0.228434  -0.579606  0  2.282036  0
O  O102  1  0.83987669  0.31178436  0.69127473  1  -1.241819  0  -0.231546  -0.592399  0  2.283628  0
O  O103  1  0.15400174  0.68817098  0.30524997  1  -1.2359  0  -0.230704  -0.590916  0  2.283962  0
O  O104  1  0.00949787  0.21105884  0.74705889  1  -1.438986  0  -0.44662  -0.998213  0  2.209315  0
O  O105  1  0.98404130  0.78706803  0.24756385  1  -1.402025  0  -0.446846  -0.999933  0  2.213423  0
