# generated using pymatgen
data_Cd3H30C30(NO2)8
_symmetry_space_group_name_H-M   'P 1'
_cell_length_a   10.64976570
_cell_length_b   11.88271820
_cell_length_c   17.10615096
_cell_angle_alpha   90.00036904
_cell_angle_beta   89.99981124
_cell_angle_gamma   103.02350669
_symmetry_Int_Tables_number   1
_chemical_formula_structural   Cd3H30C30(NO2)8
_chemical_formula_sum   'Cd6 H60 C60 N16 O32'
_cell_volume   2109.06959058
_cell_formula_units_Z   2
loop_
 _symmetry_equiv_pos_site_id
 _symmetry_equiv_pos_as_xyz
  1  'x, y, z'
loop_
 _atom_site_type_symbol
 _atom_site_label
 _atom_site_symmetry_multiplicity
 _atom_site_fract_x
 _atom_site_fract_y
 _atom_site_fract_z
 _atom_site_occupancy
 _atom_site_pbe_bader_charge
 _atom_site_pbe_bader_spin_density
 _atom_site_pbe_cm5_charge
 _atom_site_pbe_ddec_charge
 _atom_site_pbe_ddec_spin_density
 _atom_site_pbe_ddec_sum_bond_order
 _atom_site_pbe_magmom
Cd  Cd0  1  0.20974369  0.83438821  0.89995984  1  1.322782  0  0.773889  1.017085  0  2.128903  0
Cd  Cd1  1  0.29025331  0.66561074  0.39995677  1  1.322812  0  0.773864  1.016908  0  2.129057  0
Cd  Cd2  1  0.79024982  0.16560844  0.10004428  1  1.322891  0  0.773871  1.016943  0  2.129059  0
Cd  Cd3  1  0.70974679  0.33438601  0.60004209  1  1.322806  0  0.773911  1.017041  0  2.128976  0
Cd  Cd4  1  0.99999473  0.99999499  0.00000008  1  1.375653  0  0.796139  1.095353  0  2.108366  0
Cd  Cd5  1  0.49999793  0.49999533  0.49999972  1  1.375618  0  0.796153  1.095379  0  2.108324  0
H  H6  1  0.85622828  0.64267004  0.75691954  1  0.125013  0  0.108231  0.107085  0  1.040775  0
H  H7  1  0.64376816  0.85732597  0.25692466  1  0.125768  0  0.10824  0.107079  0  1.040858  0
H  H8  1  0.14376785  0.35732579  0.24307639  1  0.125842  0  0.108239  0.107048  0  1.040875  0
H  H9  1  0.35623012  0.14267505  0.74308237  1  0.125347  0  0.108229  0.10708  0  1.040814  0
H  H10  1  0.46081172  0.66546480  0.73283627  1  0.115718  0  0.108883  0.108349  0  1.042737  0
H  H11  1  0.03918439  0.83453873  0.23283448  1  0.115854  0  0.108906  0.108342  0  1.042779  0
H  H12  1  0.53918455  0.33452759  0.26716083  1  0.115945  0  0.108892  0.108358  0  1.042774  0
H  H13  1  0.96080911  0.16545792  0.76716495  1  0.115861  0  0.108888  0.108296  0  1.042795  0
H  H14  1  0.68364363  0.82704345  0.92806326  1  0.120433  0  0.109426  0.118881  0  1.010972  0
H  H15  1  0.81636331  0.67296107  0.42806660  1  0.120132  0  0.109444  0.11892  0  1.01079  0
H  H16  1  0.31635405  0.17295499  0.07193384  1  0.120333  0  0.109505  0.119117  0  1.010792  0
H  H17  1  0.18363814  0.32703743  0.57193810  1  0.119602  0  0.109398  0.11891  0  1.010959  0
H  H18  1  0.52018162  0.94083320  0.15661545  1  0.079848  0  0.105227  0.089104  0  1.004143  0
H  H19  1  0.97982064  0.55916548  0.65661788  1  0.079777  0  0.105244  0.089164  0  1.004055  0
H  H20  1  0.47982103  0.05915842  0.84338399  1  0.079797  0  0.10523  0.089161  0  1.004069  0
H  H21  1  0.02018228  0.44083131  0.34338448  1  0.079774  0  0.105223  0.089121  0  1.004043  0
H  H22  1  0.42638002  0.79923229  0.17631866  1  0.04739  0  0.104684  0.082072  0  0.959819  0
H  H23  1  0.07361431  0.70076643  0.67632666  1  0.047349  0  0.104703  0.082091  0  0.959899  0
H  H24  1  0.57361079  0.20076088  0.82367844  1  0.047426  0  0.104723  0.082126  0  0.959823  0
H  H25  1  0.92638410  0.29923116  0.32368096  1  0.047419  0  0.104687  0.082085  0  0.959853  0
H  H26  1  0.28188131  0.87929817  0.25275524  1  0.112627  0  0.106833  0.096709  0  1.01033  0
H  H27  1  0.21812341  0.62070652  0.75275732  1  0.112636  0  0.106821  0.096737  0  1.010298  0
H  H28  1  0.71812376  0.12070382  0.74724537  1  0.112713  0  0.106869  0.09678  0  1.010279  0
H  H29  1  0.78188012  0.37929286  0.24724679  1  0.112625  0  0.106854  0.096768  0  1.010282  0
H  H30  1  0.37542703  0.02130462  0.23216761  1  0.050472  0  0.098699  0.068025  0  1.013607  0
H  H31  1  0.12457501  0.47870136  0.73217151  1  0.050871  0  0.098738  0.068117  0  1.01359  0
H  H32  1  0.62457616  0.97869734  0.76782949  1  0.050822  0  0.098718  0.068053  0  1.013606  0
H  H33  1  0.87542704  0.52129972  0.26783260  1  0.050545  0  0.098719  0.068086  0  1.013591  0
H  H34  1  0.01117907  0.44180324  0.15824174  1  0.071193  0  0.104526  0.089555  0  1.010936  0
H  H35  1  0.48882563  0.05820043  0.65824063  1  0.071167  0  0.10455  0.089582  0  1.010928  0
H  H36  1  0.98882015  0.55819780  0.84176062  1  0.071166  0  0.10454  0.089578  0  1.010884  0
H  H37  1  0.51118160  0.94180676  0.34175530  1  0.071232  0  0.104553  0.089565  0  1.010875  0
H  H38  1  0.11360834  0.57281652  0.19461422  1  0.077438  0  0.100669  0.080602  0  0.986661  0
H  H39  1  0.38639697  0.92718941  0.69461443  1  0.077206  0  0.100668  0.080582  0  0.98658  0
H  H40  1  0.88639297  0.42718541  0.80538697  1  0.077161  0  0.100681  0.080619  0  0.986635  0
H  H41  1  0.61361551  0.07281614  0.30538384  1  0.077019  0  0.100664  0.080605  0  0.986697  0
H  H42  1  0.92931890  0.65076620  0.16497802  1  0.050217  0  0.100759  0.076724  0  1.017965  0
H  H43  1  0.57068118  0.84923941  0.66497385  1  0.050222  0  0.10079  0.076786  0  1.017945  0
H  H44  1  0.07067676  0.34923565  0.83502668  1  0.050275  0  0.100799  0.076812  0  1.017952  0
H  H45  1  0.42933123  0.15077388  0.33501799  1  0.050123  0  0.100757  0.076721  0  1.017921  0
H  H46  1  0.87315122  0.54361938  0.09147270  1  0.075796  0  0.101187  0.07994  0  0.988561  0
H  H47  1  0.62684903  0.95638130  0.59146889  1  0.075931  0  0.101205  0.079973  0  0.988581  0
H  H48  1  0.12684518  0.45638162  0.90853200  1  0.075937  0  0.101199  0.079963  0  0.988544  0
H  H49  1  0.37315652  0.04362672  0.40852294  1  0.075923  0  0.101134  0.079781  0  0.98855  0
H  H50  1  0.41303128  0.86860086  0.02716079  1  0.54265  0  0.314002  0.308974  0  0.973415  0
H  H51  1  0.08697273  0.63140793  0.52716669  1  0.542477  0  0.313974  0.30875  0  0.973648  0
H  H52  1  0.58696794  0.13140018  0.97283573  1  0.542686  0  0.313974  0.30878  0  0.973606  0
H  H53  1  0.91303180  0.36859577  0.47283917  1  0.542623  0  0.314058  0.309038  0  0.973419  0
H  H54  1  0.13977140  0.96346418  0.16073546  1  0.52037  0  0.309046  0.289427  0  0.981712  0
H  H55  1  0.36022924  0.53653708  0.66073628  1  0.520413  0  0.309053  0.289456  0  0.981696  0
H  H56  1  0.86023024  0.03653517  0.83926573  1  0.520361  0  0.309031  0.289418  0  0.98171  0
H  H57  1  0.63977335  0.46346229  0.33926666  1  0.520413  0  0.309087  0.289497  0  0.98162  0
H  H58  1  0.22387266  0.51407223  0.07563923  1  0.459893  0  0.325211  0.289759  0  0.916442  0
H  H59  1  0.27613235  0.98593785  0.57563818  1  0.460059  0  0.32518  0.289636  0  0.91662  0
H  H60  1  0.77612454  0.48593222  0.92436079  1  0.459875  0  0.325162  0.289673  0  0.916473  0
H  H61  1  0.72387260  0.01406758  0.42436068  1  0.459824  0  0.325176  0.28972  0  0.916459  0
H  H62  1  0.99102361  0.72956535  0.02369679  1  0.493603  0  0.300144  0.282113  0  1.006553  0
H  H63  1  0.50897329  0.77043556  0.52369473  1  0.493584  0  0.300162  0.282162  0  1.006617  0
H  H64  1  0.00897111  0.27043648  0.97630673  1  0.493574  0  0.300162  0.282169  0  1.00662  0
H  H65  1  0.49102802  0.22956637  0.47630296  1  0.493605  0  0.300178  0.28214  0  1.006508  0
C  C66  1  0.78406643  0.74003249  0.84612927  1  -0.010748  0  -0.023822  -0.051433  0  3.985201  0
C  C67  1  0.71593484  0.75996607  0.34613321  1  -0.010646  0  -0.023771  -0.051245  0  3.984915  0
C  C68  1  0.21593212  0.25996165  0.15386491  1  -0.010599  0  -0.023769  -0.051199  0  3.985011  0
C  C69  1  0.28406526  0.24003068  0.65386856  1  -0.01086  0  -0.023801  -0.051397  0  3.985201  0
C  C70  1  0.77306870  0.67193738  0.77863527  1  -0.052061  0  -0.071739  -0.09128  0  3.916864  0
C  C71  1  0.72692881  0.82805969  0.27864009  1  -0.053305  0  -0.071737  -0.091371  0  3.916926  0
C  C72  1  0.22692877  0.32806019  0.22135773  1  -0.053854  0  -0.071667  -0.091212  0  3.916906  0
C  C73  1  0.27306907  0.17193961  0.72136461  1  -0.052322  0  -0.071725  -0.091289  0  3.91686  0
C  C74  1  0.65573964  0.64103876  0.73865848  1  -0.065151  0  -0.021998  -0.044746  0  3.986394  0
C  C75  1  0.84425597  0.85896138  0.23866085  1  -0.064779  0  -0.021981  -0.044643  0  3.986436  0
C  C76  1  0.34425507  0.35896307  0.26133511  1  -0.064325  0  -0.022013  -0.044668  0  3.986484  0
C  C77  1  0.15574096  0.14103790  0.76134385  1  -0.064958  0  -0.021978  -0.044723  0  3.986514  0
C  C78  1  0.55121783  0.68367761  0.76485978  1  -0.064649  0  -0.073965  -0.100594  0  3.940602  0
C  C79  1  0.94878268  0.81632800  0.26485824  1  -0.064788  0  -0.074049  -0.100638  0  3.940574  0
C  C80  1  0.44877951  0.31632340  0.23513790  1  -0.065054  0  -0.073997  -0.100696  0  3.940725  0
C  C81  1  0.05121634  0.18367218  0.73514178  1  -0.064851  0  -0.074028  -0.100581  0  3.940683  0
C  C82  1  0.56072617  0.75082756  0.83270044  1  0.017184  0  -0.01905  -0.040177  0  3.988382  0
C  C83  1  0.93927810  0.74917954  0.33270095  1  0.016553  0  -0.019037  -0.040016  0  3.988269  0
C  C84  1  0.43927305  0.24917347  0.16729842  1  0.017209  0  -0.019042  -0.039945  0  3.988323  0
C  C85  1  0.06072314  0.25081809  0.66730024  1  0.01666  0  -0.019049  -0.040076  0  3.988235  0
C  C86  1  0.67651858  0.77670451  0.87447599  1  -0.030372  0  -0.068528  -0.085053  0  3.915515  0
C  C87  1  0.82348893  0.72330127  0.37447721  1  -0.030026  0  -0.068549  -0.085182  0  3.91533  0
C  C88  1  0.32348152  0.22329224  0.12552052  1  -0.030211  0  -0.068636  -0.085536  0  3.915739  0
C  C89  1  0.17651595  0.27669985  0.62552398  1  -0.02944  0  -0.06845  -0.085044  0  3.915433  0
C  C90  1  0.91137262  0.77644229  0.88673216  1  1.557393  0  0.211664  0.59125  0  4.199497  0
C  C91  1  0.58862973  0.72354975  0.38673795  1  1.557563  0  0.211641  0.591155  0  4.199382  0
C  C92  1  0.08862283  0.22354664  0.11326202  1  1.557601  0  0.211535  0.591019  0  4.199454  0
C  C93  1  0.41137165  0.27644444  0.61326616  1  1.557323  0  0.211631  0.591137  0  4.199353  0
C  C94  1  0.64290471  0.56187944  0.66920318  1  1.589456  0  0.213639  0.602409  0  4.183109  0
C  C95  1  0.85708371  0.93811656  0.16920238  1  1.589532  0  0.213391  0.601952  0  4.183376  0
C  C96  1  0.35708468  0.43811973  0.33079334  1  1.589254  0  0.213315  0.601967  0  4.183288  0
C  C97  1  0.14290925  0.06188180  0.83079940  1  1.589437  0  0.21353  0.602272  0  4.183418  0
C  C98  1  0.44644346  0.79443710  0.85952200  1  1.569709  0  0.196054  0.56453  0  4.228009  0
C  C99  1  0.05356766  0.70557720  0.35951785  1  1.569707  0  0.195815  0.563941  0  4.227993  0
C  C100  1  0.55355576  0.20556394  0.14047978  1  1.569612  0  0.195938  0.564314  0  4.228087  0
C  C101  1  0.94643816  0.29442394  0.64047808  1  1.569657  0  0.195946  0.564328  0  4.227848  0
C  C102  1  0.25951528  0.92346743  0.07649070  1  1.8547  0  0.336396  0.639016  0  4.200029  0
C  C103  1  0.24048724  0.57654002  0.57649253  1  1.854641  0  0.33646  0.63905  0  4.199875  0
C  C104  1  0.74048300  0.07653359  0.92350991  1  1.854601  0  0.336408  0.638951  0  4.199845  0
C  C105  1  0.75951770  0.42346540  0.42351100  1  1.854617  0  0.336376  0.639019  0  4.199938  0
C  C106  1  0.42218027  0.88620694  0.15606884  1  0.316265  0  -0.046163  -0.004238  0  3.817973  0
C  C107  1  0.07782247  0.61379518  0.65607410  1  0.316478  0  -0.046172  -0.004306  0  3.818071  0
C  C108  1  0.57782057  0.11378896  0.84392943  1  0.316151  0  -0.046181  -0.004329  0  3.818004  0
C  C109  1  0.92217991  0.38620332  0.34393236  1  0.316448  0  -0.046154  -0.004265  0  3.817926  0
C  C110  1  0.32705833  0.93821239  0.20616624  1  0.275096  0  -0.051515  -0.01449  0  3.820624  0
C  C111  1  0.17294520  0.56179016  0.70616931  1  0.27456  0  -0.051548  -0.014631  0  3.820701  0
C  C112  1  0.67294574  0.06178528  0.79383261  1  0.27481  0  -0.051543  -0.014606  0  3.820803  0
C  C113  1  0.82705833  0.43820922  0.29383539  1  0.274936  0  -0.051551  -0.014579  0  3.820665  0
C  C114  1  0.12911087  0.63147883  0.02942289  1  1.82653  0  0.323151  0.62292  0  4.224613  0
C  C115  1  0.37088419  0.86852381  0.52942169  1  1.826507  0  0.32312  0.622839  0  4.224759  0
C  C116  1  0.87088081  0.36852209  0.97058064  1  1.826402  0  0.323161  0.622985  0  4.224689  0
C  C117  1  0.62911476  0.13148411  0.47057658  1  1.826574  0  0.323141  0.622971  0  4.224465  0
C  C118  1  0.05725363  0.53150798  0.14406980  1  0.266754  0  -0.059544  -0.033309  0  3.87969  0
C  C119  1  0.44274713  0.96849745  0.64406657  1  0.267015  0  -0.059619  -0.033356  0  3.87979  0
C  C120  1  0.94274337  0.46849561  0.85593432  1  0.267089  0  -0.059592  -0.033423  0  3.879765  0
C  C121  1  0.55726333  0.03151151  0.35592878  1  0.267482  0  -0.059538  -0.033312  0  3.879725  0
C  C122  1  0.95902186  0.60098086  0.11724359  1  0.299863  0  -0.056624  -0.019051  0  3.876146  0
C  C123  1  0.54098100  0.89902352  0.61724262  1  0.299796  0  -0.05666  -0.019097  0  3.876196  0
C  C124  1  0.04097514  0.39902272  0.88275819  1  0.299838  0  -0.056642  -0.01908  0  3.87615  0
C  C125  1  0.45903155  0.10098633  0.38275448  1  0.299731  0  -0.056671  -0.018992  0  3.876246  0
N  N126  1  0.36673207  0.88201850  0.07765674  1  -1.249454  0  -0.42564  -0.400612  0  3.468744  0
N  N127  1  0.13327212  0.61798814  0.57766015  1  -1.249233  0  -0.425631  -0.400387  0  3.468956  0
N  N128  1  0.63326923  0.11798343  0.92234211  1  -1.249474  0  -0.425611  -0.400389  0  3.468763  0
N  N129  1  0.86673356  0.38201644  0.42234396  1  -1.249484  0  -0.425688  -0.400693  0  3.468798  0
N  N130  1  0.23157023  0.95601850  0.14881391  1  -1.24931  0  -0.43323  -0.408911  0  3.489631  0
N  N131  1  0.26842775  0.54397918  0.64881378  1  -1.249273  0  -0.433228  -0.408939  0  3.489536  0
N  N132  1  0.76842738  0.04397563  0.85118787  1  -1.249299  0  -0.433232  -0.408907  0  3.489677  0
N  N133  1  0.73157234  0.45601757  0.35118741  1  -1.249262  0  -0.433288  -0.40904  0  3.48971  0
N  N134  1  0.13805913  0.53744971  0.07408671  1  -1.173374  0  -0.434449  -0.410204  0  3.431294  0
N  N135  1  0.36194549  0.96255862  0.57408596  1  -1.173625  0  -0.434384  -0.410032  0  3.431464  0
N  N136  1  0.86193882  0.46255389  0.92591506  1  -1.1734  0  -0.4344  -0.410057  0  3.431279  0
N  N137  1  0.63806046  0.03745113  0.42591172  1  -1.173456  0  -0.434451  -0.410215  0  3.431233  0
N  N138  1  0.03244012  0.67693392  0.05801982  1  -1.208262  0  -0.436741  -0.410931  0  3.469674  0
N  N139  1  0.46756030  0.82306819  0.55801821  1  -1.208178  0  -0.436788  -0.411022  0  3.469586  0
N  N140  1  0.96755647  0.32306795  0.94198371  1  -1.208157  0  -0.436771  -0.411078  0  3.469637  0
N  N141  1  0.53244316  0.17693894  0.44197771  1  -1.20838  0  -0.436711  -0.410921  0  3.469735  0
O  O142  1  0.91171190  0.81525303  0.95667317  1  -1.196678  0  -0.337895  -0.603626  0  2.308825  0
O  O143  1  0.58829528  0.68473710  0.45667587  1  -1.196629  0  -0.337929  -0.603576  0  2.30866  0
O  O144  1  0.08828901  0.18473513  0.04332393  1  -1.196621  0  -0.337871  -0.603493  0  2.308725  0
O  O145  1  0.41170832  0.31525454  0.54332532  1  -1.196624  0  -0.3379  -0.60355  0  2.308616  0
O  O146  1  0.01089196  0.76567897  0.84893496  1  -1.149989  0  -0.320078  -0.553992  0  2.267585  0
O  O147  1  0.48910924  0.73431272  0.34894173  1  -1.149815  0  -0.320087  -0.553991  0  2.267557  0
O  O148  1  0.98910465  0.23431084  0.15105980  1  -1.150024  0  -0.320053  -0.553975  0  2.267615  0
O  O149  1  0.51089362  0.26567977  0.65106179  1  -1.149953  0  -0.320073  -0.553972  0  2.267555  0
O  O150  1  0.73401996  0.51150185  0.65717864  1  -1.166555  0  -0.321501  -0.558592  0  2.281273  0
O  O151  1  0.76596352  0.98848881  0.15717709  1  -1.166765  0  -0.321231  -0.558235  0  2.281263  0
O  O152  1  0.26596445  0.48849208  0.34281788  1  -1.166551  0  -0.321228  -0.558301  0  2.281212  0
O  O153  1  0.23402621  0.01150778  0.84282527  1  -1.166718  0  -0.321408  -0.558556  0  2.28146  0
O  O154  1  0.53976747  0.55012932  0.62833492  1  -1.185754  0  -0.329363  -0.588979  0  2.299557  0
O  O155  1  0.96022533  0.94987242  0.12833630  1  -1.185839  0  -0.329331  -0.588883  0  2.299563  0
O  O156  1  0.46022414  0.44987935  0.37166101  1  -1.185699  0  -0.32928  -0.588876  0  2.299585  0
O  O157  1  0.03976898  0.05012768  0.87166489  1  -1.185682  0  -0.329326  -0.588907  0  2.299556  0
O  O158  1  0.34588918  0.77241015  0.81571851  1  -1.16439  0  -0.331735  -0.563117  0  2.212487  0
O  O159  1  0.15411710  0.72759854  0.31571074  1  -1.164163  0  -0.331601  -0.562724  0  2.212151  0
O  O160  1  0.65410607  0.22758997  0.18428502  1  -1.164462  0  -0.331707  -0.562987  0  2.21252  0
O  O161  1  0.84588374  0.27239736  0.68428226  1  -1.163971  0  -0.331669  -0.562984  0  2.212367  0
O  O162  1  0.45284356  0.85120494  0.92275435  1  -1.183381  0  -0.322686  -0.563359  0  2.183303  0
O  O163  1  0.04717248  0.64881170  0.42275170  1  -1.183111  0  -0.32257  -0.563114  0  2.183082  0
O  O164  1  0.54715984  0.14879788  0.07724626  1  -1.183237  0  -0.322597  -0.563222  0  2.183196  0
O  O165  1  0.95284149  0.35119215  0.57724598  1  -1.183283  0  -0.322656  -0.56333  0  2.183168  0
O  O166  1  0.19268782  0.93252662  0.01553552  1  -1.189605  0  -0.331293  -0.618351  0  2.409864  0
O  O167  1  0.30731806  0.56747779  0.51553425  1  -1.189547  0  -0.331319  -0.618298  0  2.409643  0
O  O168  1  0.80731134  0.06747012  0.98446859  1  -1.189517  0  -0.331327  -0.618255  0  2.409621  0
O  O169  1  0.69268911  0.43252509  0.48446694  1  -1.189577  0  -0.331262  -0.618281  0  2.409741  0
O  O170  1  0.20010931  0.66605109  0.97147234  1  -1.186575  0  -0.332865  -0.587234  0  2.258131  0
O  O171  1  0.29988733  0.83395190  0.47147410  1  -1.186626  0  -0.332804  -0.587127  0  2.258349  0
O  O172  1  0.79988520  0.33394988  0.02852944  1  -1.18667  0  -0.332875  -0.587291  0  2.25843  0
O  O173  1  0.70011190  0.16604914  0.52852475  1  -1.186625  0  -0.332815  -0.587179  0  2.258186  0
