# generated using pymatgen
data_ZnH20C30(N2O3)2
_symmetry_space_group_name_H-M   'P 1'
_cell_length_a   7.19351570
_cell_length_b   12.54389251
_cell_length_c   17.86065839
_cell_angle_alpha   75.02135859
_cell_angle_beta   78.36628179
_cell_angle_gamma   73.29805126
_symmetry_Int_Tables_number   1
_chemical_formula_structural   ZnH20C30(N2O3)2
_chemical_formula_sum   'Zn2 H40 C60 N8 O12'
_cell_volume   1477.01208654
_cell_formula_units_Z   2
loop_
 _symmetry_equiv_pos_site_id
 _symmetry_equiv_pos_as_xyz
  1  'x, y, z'
loop_
 _atom_site_type_symbol
 _atom_site_label
 _atom_site_symmetry_multiplicity
 _atom_site_fract_x
 _atom_site_fract_y
 _atom_site_fract_z
 _atom_site_occupancy
 _atom_site_pbe_bader_charge
 _atom_site_pbe_bader_spin_density
 _atom_site_pbe_cm5_charge
 _atom_site_pbe_ddec_charge
 _atom_site_pbe_ddec_spin_density
 _atom_site_pbe_ddec_sum_bond_order
 _atom_site_pbe_magmom
Zn  Zn0  1  0.90205094  0.25020017  0.75007519  1  1.242511  0  0.695665  0.762631  0  2.363628  0
Zn  Zn1  1  0.09795990  0.74980065  0.24992665  1  1.242694  0  0.695652  0.762608  0  2.363761  0
H  H2  1  0.30946351  0.84539033  0.86740339  1  0.453895  0  0.327277  0.281239  0  0.929618  0
H  H3  1  0.02139861  0.65510967  0.63285399  1  0.46105  0  0.327654  0.282107  0  0.926706  0
H  H4  1  0.69052990  0.15459438  0.13258521  1  0.453633  0  0.327311  0.281291  0  0.929555  0
H  H5  1  0.97859880  0.34488251  0.36714678  1  0.461055  0  0.327585  0.282026  0  0.926653  0
H  H6  1  0.24870851  0.24561425  0.62633935  1  0.164328  0  0.117081  0.098141  0  1.034083  0
H  H7  1  0.12079747  0.25459071  0.87366423  1  0.133099  0  0.117242  0.098119  0  1.033776  0
H  H8  1  0.75127757  0.75438467  0.37365873  1  0.164314  0  0.117103  0.098195  0  1.034184  0
H  H9  1  0.87920545  0.74541209  0.12634290  1  0.133151  0  0.117216  0.098166  0  1.033712  0
H  H10  1  0.38277966  0.73645787  0.97198582  1  0.102462  0  0.105155  0.10816  0  1.030281  0
H  H11  1  0.09126268  0.76355979  0.52814729  1  0.098519  0  0.104998  0.107783  0  1.031354  0
H  H12  1  0.61724160  0.26354178  0.02800981  1  0.102448  0  0.10507  0.108015  0  1.03032  0
H  H13  1  0.90871453  0.23643999  0.47185078  1  0.098683  0  0.105031  0.107803  0  1.031321  0
H  H14  1  0.59115517  0.11993253  0.60722168  1  0.104348  0  0.10996  0.114001  0  1.003193  0
H  H15  1  0.31865727  0.38004687  0.89274102  1  0.097654  0  0.109679  0.114511  0  1.003225  0
H  H16  1  0.40882059  0.88006391  0.39277831  1  0.104209  0  0.109979  0.11394  0  1.003089  0
H  H17  1  0.68133035  0.61996543  0.10726711  1  0.097956  0  0.109657  0.114507  0  1.003178  0
H  H18  1  0.67944440  0.93207443  0.70006660  1  0.154937  0  0.110829  0.12523  0  1.038846  0
H  H19  1  0.31162927  0.56793694  0.79992571  1  0.153066  0  0.110392  0.124482  0  1.039729  0
H  H20  1  0.32054355  0.06792341  0.29992707  1  0.154874  0  0.110846  0.125188  0  1.038839  0
H  H21  1  0.68837238  0.43206893  0.20007418  1  0.153164  0  0.110418  0.12452  0  1.039768  0
H  H22  1  0.09561451  0.01575557  0.82570868  1  0.113751  0  0.124562  0.103425  0  0.998561  0
H  H23  1  0.93662634  0.48467483  0.67441583  1  0.093814  0  0.124644  0.102786  0  0.999568  0
H  H24  1  0.90437725  0.98423653  0.17429033  1  0.113767  0  0.124608  0.103474  0  0.998518  0
H  H25  1  0.06340195  0.51531476  0.32558464  1  0.093526  0  0.124616  0.102694  0  0.999593  0
H  H26  1  0.28736118  0.63656358  0.10447188  1  0.124806  0  0.101393  0.103891  0  1.041108  0
H  H27  1  0.02754139  0.86337146  0.39571118  1  0.085217  0  0.101621  0.104015  0  1.040956  0
H  H28  1  0.71263147  0.36342980  0.89551839  1  0.124904  0  0.101412  0.103876  0  1.041151  0
H  H29  1  0.97243675  0.13662610  0.60429399  1  0.085168  0  0.101602  0.103989  0  1.040934  0
H  H30  1  0.29092007  0.45373372  0.20259602  1  0.080644  0  0.100817  0.097817  0  1.04864  0
H  H31  1  0.94592119  0.04616740  0.29756320  1  0.112374  0  0.101009  0.097778  0  1.048609  0
H  H32  1  0.70907678  0.54626321  0.79739656  1  0.080453  0  0.10086  0.097872  0  1.048559  0
H  H33  1  0.05407616  0.95382832  0.70243966  1  0.112363  0  0.101051  0.097771  0  1.048661  0
H  H34  1  0.81653314  0.99453272  0.03886053  1  0.125066  0  0.096669  0.103654  0  1.046322  0
H  H35  1  0.84979621  0.50578858  0.46089550  1  0.124129  0  0.097111  0.104464  0  1.04563  0
H  H36  1  0.18349885  0.00547187  0.96114836  1  0.124861  0  0.096723  0.103807  0  1.046308  0
H  H37  1  0.15019687  0.49421742  0.53910674  1  0.124063  0  0.09712  0.104476  0  1.045638  0
H  H38  1  0.58400226  0.88742325  0.13050770  1  0.10506  0  0.097688  0.098262  0  1.037841  0
H  H39  1  0.60096317  0.61278446  0.36948035  1  0.104531  0  0.097986  0.098413  0  1.037966  0
H  H40  1  0.41601203  0.11258636  0.86949825  1  0.10532  0  0.097655  0.098262  0  1.037712  0
H  H41  1  0.39902346  0.38721997  0.63052498  1  0.104407  0  0.098018  0.098463  0  1.037903  0
C  C42  1  0.29778120  0.16474091  0.66643379  1  0.42292  0  0.041203  0.066116  0  3.93337  0
C  C43  1  0.12906875  0.33544979  0.83358813  1  0.425893  0  0.039547  0.064739  0  3.93481  0
C  C44  1  0.70221167  0.83525193  0.33356274  1  0.422915  0  0.041036  0.065906  0  3.933488  0
C  C45  1  0.87093135  0.66455297  0.16641812  1  0.466143  0  0.039573  0.064655  0  3.934634  0
C  C46  1  0.45381653  0.65607954  0.95340866  1  0.005171  0  -0.080747  -0.155093  0  3.920755  0
C  C47  1  0.06345788  0.84394911  0.54664374  1  -0.055738  0  -0.079688  -0.153107  0  3.920922  0
C  C48  1  0.54619127  0.34391836  0.04658619  1  0.004928  0  -0.080771  -0.154973  0  3.920717  0
C  C49  1  0.93652281  0.15604914  0.45335828  1  -0.055854  0  -0.079651  -0.152989  0  3.920855  0
C  C50  1  0.48434921  0.09355439  0.65601861  1  0.016091  0  -0.07389  -0.088083  0  3.968185  0
C  C51  1  0.23411816  0.40650511  0.84399669  1  -0.022687  0  -0.073982  -0.08872  0  3.968601  0
C  C52  1  0.51564510  0.90644183  0.34397711  1  0.016176  0  -0.073847  -0.087929  0  3.967899  0
C  C53  1  0.76588234  0.59350008  0.15600679  1  -0.063115  0  -0.073837  -0.088524  0  3.968475  0
C  C54  1  0.53484742  0.98902737  0.70753724  1  -0.028556  0  -0.062643  -0.110198  0  3.866892  0
C  C55  1  0.23145303  0.51103171  0.79250549  1  0.042273  0  -0.06199  -0.109602  0  3.869852  0
C  C56  1  0.46514344  0.01097030  0.29245287  1  -0.028436  0  -0.062563  -0.109992  0  3.866863  0
C  C57  1  0.76855612  0.48896977  0.20749244  1  0.042745  0  -0.062111  -0.109733  0  3.870301  0
C  C58  1  0.39323610  0.95735530  0.76960140  1  0.408382  0  0.116326  0.221036  0  4.014755  0
C  C59  1  0.12006056  0.54282173  0.73048458  1  0.393185  0  0.115493  0.22131  0  4.017622  0
C  C60  1  0.60676077  0.04263475  0.23039089  1  0.40835  0  0.116211  0.220692  0  4.015293  0
C  C61  1  0.87995217  0.45717456  0.26951243  1  0.393026  0  0.115597  0.221239  0  4.01768  0
C  C62  1  0.20977234  0.03491587  0.77764012  1  0.492673  0  0.047265  -0.018414  0  3.915386  0
C  C63  1  0.02199778  0.46540031  0.72246965  1  0.519713  0  0.047566  -0.016743  0  3.915051  0
C  C64  1  0.79022551  0.96507864  0.22235566  1  0.49263  0  0.047227  -0.018258  0  3.915387  0
C  C65  1  0.97802808  0.53459170  0.27752772  1  0.519648  0  0.047585  -0.016594  0  3.914736  0
C  C66  1  0.56246850  0.75531697  0.81441677  1  1.395678  0  0.249025  0.493895  0  4.089354  0
C  C67  1  0.13269869  0.74469875  0.68557027  1  1.383546  0  0.248798  0.495864  0  4.089796  0
C  C68  1  0.43754070  0.24467755  0.18557921  1  1.396003  0  0.248867  0.493649  0  4.089785  0
C  C69  1  0.86730835  0.25529757  0.31442720  1  1.383087  0  0.248765  0.495916  0  4.089688  0
C  C70  1  0.54662290  0.65247190  0.87780308  1  -0.110654  0  -0.012189  -0.026267  0  4.000916  0
C  C71  1  0.07737616  0.84757750  0.62219278  1  -0.046801  0  -0.012792  -0.028227  0  4.002818  0
C  C72  1  0.45338705  0.34752084  0.12219152  1  -0.110408  0  -0.012165  -0.026315  0  4.000774  0
C  C73  1  0.92261023  0.15242750  0.37780684  1  -0.046747  0  -0.01274  -0.028082  0  4.002488  0
C  C74  1  0.45220335  0.55383741  0.01048906  1  -0.07766  0  -0.002149  0.081671  0  3.990156  0
C  C75  1  0.01647879  0.94616567  0.48954146  1  -0.066282  0  -0.002757  0.080998  0  3.991372  0
C  C76  1  0.54780202  0.44615609  0.98950352  1  -0.02108  0  -0.002179  0.081699  0  3.98993  0
C  C77  1  0.98349763  0.05383261  0.51046090  1  -0.014914  0  -0.002897  0.080662  0  3.991433  0
C  C78  1  0.35972882  0.55476225  0.08853142  1  -0.071523  0  -0.086016  -0.125267  0  3.963341  0
C  C79  1  0.00238457  0.94519332  0.41157079  1  -0.030243  0  -0.085329  -0.12327  0  3.961803  0
C  C80  1  0.64027942  0.44523118  0.91145982  1  -0.071688  0  -0.085999  -0.125168  0  3.963045  0
C  C81  1  0.99759328  0.05480832  0.58843021  1  -0.0302  0  -0.085276  -0.123211  0  3.961652  0
C  C82  1  0.36058548  0.45436268  0.14258020  1  0.007461  0  -0.083815  -0.092636  0  3.985885  0
C  C83  1  0.95660382  0.04557765  0.35751671  1  -0.027585  0  -0.084902  -0.094494  0  3.987573  0
C  C84  1  0.63942906  0.54563267  0.85741518  1  0.00776  0  -0.083922  -0.092886  0  3.986121  0
C  C85  1  0.04337580  0.95442316  0.64248488  1  -0.027577  0  -0.084919  -0.094315  0  3.987678  0
C  C86  1  0.76185169  0.12963145  0.89651874  1  1.548388  0  0.194507  0.549954  0  4.253229  0
C  C87  1  0.78847518  0.37043409  0.60331912  1  1.560695  0  0.19367  0.548375  0  4.256769  0
C  C88  1  0.23815577  0.87037411  0.10349195  1  1.548507  0  0.194576  0.550268  0  4.253002  0
C  C89  1  0.21149662  0.62957871  0.39668180  1  1.56036  0  0.193694  0.548272  0  4.256529  0
C  C90  1  0.62683158  0.06198369  0.94961669  1  -0.102985  0  -0.021219  -0.02868  0  3.974255  0
C  C91  1  0.63880507  0.43806805  0.55025666  1  -0.091028  0  -0.022288  -0.030295  0  3.975281  0
C  C92  1  0.37317331  0.93803484  0.05039606  1  -0.103536  0  -0.021362  -0.029153  0  3.974753  0
C  C93  1  0.36118657  0.56193115  0.44974708  1  -0.091033  0  -0.02241  -0.030329  0  3.97534  0
C  C94  1  0.67605604  0.99800197  0.02295644  1  -0.054952  0  -0.093704  -0.108358  0  3.981294  0
C  C95  1  0.69696211  0.50217199  0.47691422  1  -0.085645  0  -0.093117  -0.107568  0  3.981391  0
C  C96  1  0.32396483  0.00200205  0.97705795  1  -0.051201  0  -0.093736  -0.108317  0  3.981695  0
C  C97  1  0.30302769  0.49784188  0.52309118  1  -0.086454  0  -0.093101  -0.107633  0  3.981648  0
C  C98  1  0.54946830  0.93690992  0.07305757  1  -0.022508  0  -0.091258  -0.097241  0  3.972968  0
C  C99  1  0.55890915  0.56321381  0.42695255  1  -0.009382  0  -0.091858  -0.097564  0  3.975643  0
C  C100  1  0.45054519  0.06310161  0.92695253  1  -0.025685  0  -0.091333  -0.097564  0  3.972867  0
C  C101  1  0.44107671  0.43679929  0.57305444  1  -0.008598  0  -0.092032  -0.097671  0  3.975734  0
N  N102  1  0.16389417  0.13527183  0.72729232  1  -1.278417  0  -0.334136  -0.227245  0  3.645823  0
N  N103  1  0.02626917  0.36503646  0.77281069  1  -1.270061  0  -0.332154  -0.226153  0  3.645218  0
N  N104  1  0.83609483  0.86472352  0.27270289  1  -1.278358  0  -0.334041  -0.227297  0  3.64572  0
N  N105  1  0.97374914  0.63496005  0.22719086  1  -1.270529  0  -0.332217  -0.226203  0  3.645184  0
N  N106  1  0.42288738  0.85429477  0.82396486  1  -1.243851  0  -0.392298  -0.369402  0  3.584374  0
N  N107  1  0.10096283  0.64591500  0.67612928  1  -1.245566  0  -0.39192  -0.371159  0  3.584194  0
N  N108  1  0.57710877  0.14569701  0.17602769  1  -1.243693  0  -0.392247  -0.369255  0  3.584414  0
N  N109  1  0.89904957  0.35408208  0.32386648  1  -1.245155  0  -0.391911  -0.371126  0  3.584088  0
O  O110  1  0.69259486  0.75031432  0.75751085  1  -1.12886  0  -0.28513  -0.467055  0  2.119213  0
O  O111  1  0.20152569  0.74949722  0.74235696  1  -1.123233  0  -0.284872  -0.46767  0  2.120679  0
O  O112  1  0.30742148  0.24968352  0.24248275  1  -1.128854  0  -0.285043  -0.466974  0  2.119499  0
O  O113  1  0.79848740  0.25049819  0.25763964  1  -1.123286  0  -0.284879  -0.467726  0  2.12058  0
O  O114  1  0.72950411  0.16382892  0.82407492  1  -1.169939  0  -0.339964  -0.546507  0  2.315243  0
O  O115  1  0.71786105  0.33661792  0.67582116  1  -1.170227  0  -0.339161  -0.545056  0  2.318206  0
O  O116  1  0.27049564  0.83617126  0.17593132  1  -1.169962  0  -0.339875  -0.546453  0  2.315462  0
O  O117  1  0.28212458  0.66337868  0.32418192  1  -1.170408  0  -0.339146  -0.544975  0  2.318356  0
O  O118  1  0.89383186  0.15016572  0.92296017  1  -1.185728  0  -0.328404  -0.567344  0  2.151172  0
O  O119  1  0.96745057  0.34959961  0.57680884  1  -1.191253  0  -0.328235  -0.567146  0  2.153596  0
O  O120  1  0.10620698  0.84982920  0.07704395  1  -1.185702  0  -0.328507  -0.567547  0  2.151345  0
O  O121  1  0.03252703  0.65042995  0.42320109  1  -1.19078  0  -0.32817  -0.567015  0  2.153435  0
