# generated using pymatgen
data_Cd7H32C56(Cl3O10)2
_symmetry_space_group_name_H-M   'P 1'
_cell_length_a   10.41386636
_cell_length_b   10.76095384
_cell_length_c   15.24275605
_cell_angle_alpha   85.86583202
_cell_angle_beta   74.35660896
_cell_angle_gamma   61.93920576
_symmetry_Int_Tables_number   1
_chemical_formula_structural   Cd7H32C56(Cl3O10)2
_chemical_formula_sum   'Cd7 H32 C56 Cl6 O20'
_cell_volume   1448.50533518
_cell_formula_units_Z   1
loop_
 _symmetry_equiv_pos_site_id
 _symmetry_equiv_pos_as_xyz
  1  'x, y, z'
loop_
 _atom_site_type_symbol
 _atom_site_label
 _atom_site_symmetry_multiplicity
 _atom_site_fract_x
 _atom_site_fract_y
 _atom_site_fract_z
 _atom_site_occupancy
 _atom_site_hle17_bader_spin_density
 _atom_site_hle17_ddec_charge
 _atom_site_hle17_ddec_spin_density
 _atom_site_hle17_ddec_sum_bond_order
 _atom_site_hle17_magmom
 _atom_site_hse06_10hf_bader_spin_density
 _atom_site_hse06_10hf_ddec_charge
 _atom_site_hse06_10hf_ddec_spin_density
 _atom_site_hse06_10hf_ddec_sum_bond_order
 _atom_site_hse06_10hf_magmom
 _atom_site_hse06_bader_spin_density
 _atom_site_hse06_ddec_charge
 _atom_site_hse06_ddec_spin_density
 _atom_site_hse06_ddec_sum_bond_order
 _atom_site_hse06_magmom
 _atom_site_pbe_bader_spin_density
 _atom_site_pbe_cm5_charge
 _atom_site_pbe_ddec_charge
 _atom_site_pbe_ddec_spin_density
 _atom_site_pbe_ddec_sum_bond_order
 _atom_site_pbe_magmom
Cd  Cd0  1  0.49999978  0.50000001  0.99999953  1  0  1.19723  0  1.749084  0  0  1.037567  0  2.211756  0  0  1.08998  0  2.156265  0  0  0.701161  0.99937  0  2.251136  0
Cd  Cd1  1  0.79832366  0.66506957  0.98380736  1  0  1.214079  0  1.710906  0  0  1.050306  0  2.172804  0  0  1.102983  0  2.117191  0  0  0.703386  1.011669  0  2.212043  0
Cd  Cd2  1  0.20167697  0.33492931  0.01619240  1  0  1.214091  0  1.710906  0  0  1.050342  0  2.172779  0  0  1.103017  0  2.117166  0  0  0.703393  1.011705  0  2.212025  0
Cd  Cd3  1  0.37088490  0.91455548  0.01244729  1  0  1.137003  0  1.820843  0  0  0.978713  0  2.284183  0  0  1.028806  0  2.233079  0  0  0.658649  0.942724  0  2.31967  0
Cd  Cd4  1  0.62911419  0.08544447  0.98755204  1  0  1.137004  0  1.820833  0  0  0.978731  0  2.284167  0  0  1.028827  0  2.233063  0  0  0.658657  0.942744  0  2.319667  0
Cd  Cd5  1  0.93549430  0.21336832  0.98320925  1  0  1.168314  0  1.731539  0  0  1.008019  0  2.187576  0  0  1.060297  0  2.135472  0  0  0.672307  0.96945  0  2.224662  0
Cd  Cd6  1  0.06450580  0.78663162  0.01679121  1  0  1.168342  0  1.73147  0  0  1.008033  0  2.187521  0  0  1.060308  0  2.135421  0  0  0.672307  0.969459  0  2.224593  0
H  H7  1  0.44970974  0.40324785  0.29876986  1  0  0.103976  0  0.949638  0  0  0.112504  0  1.012891  0  0  0.114946  0  1.012186  0  0  0.105123  0.110884  0  1.013282  0
H  H8  1  0.55028883  0.59675315  0.70123083  1  0  0.103977  0  0.949641  0  0  0.112503  0  1.012899  0  0  0.11495  0  1.012181  0  0  0.105118  0.110884  0  1.01328  0
H  H9  1  0.41447780  0.31387923  0.45484002  1  0  0.119552  0  0.954224  0  0  0.125297  0  1.019108  0  0  0.129475  0  1.016897  0  0  0.1054  0.122369  0  1.020765  0
H  H10  1  0.58552176  0.68612177  0.54516049  1  0  0.119572  0  0.954215  0  0  0.125309  0  1.019111  0  0  0.129487  0  1.016901  0  0  0.105403  0.122381  0  1.020764  0
H  H11  1  0.26872142  0.04388000  0.36276251  1  0  0.114905  0  0.948539  0  0  0.124472  0  1.009837  0  0  0.127565  0  1.009365  0  0  0.105336  0.122162  0  1.010604  0
H  H12  1  0.73128073  0.95611783  0.63723768  1  0  0.114906  0  0.948547  0  0  0.124474  0  1.009845  0  0  0.127568  0  1.009372  0  0  0.105321  0.122165  0  1.010618  0
H  H13  1  0.31358113  0.12721039  0.20595824  1  0  0.103349  0  0.979332  0  0  0.110461  0  1.044872  0  0  0.113303  0  1.04297  0  0  0.097186  0.108291  0  1.046479  0
H  H14  1  0.68642102  0.87278744  0.79404194  1  0  0.103346  0  0.979334  0  0  0.110435  0  1.044897  0  0  0.113277  0  1.042993  0  0  0.097176  0.108265  0  1.046506  0
H  H15  1  0.01415961  0.52861786  0.68302659  1  0  0.104827  0  0.940793  0  0  0.114408  0  1.00047  0  0  0.117282  0  0.999205  0  0  0.10614  0.112408  0  1.001426  0
H  H16  1  0.98584102  0.47138103  0.31697317  1  0  0.104829  0  0.940811  0  0  0.114404  0  1.000481  0  0  0.117277  0  0.999219  0  0  0.106136  0.112402  0  1.001443  0
H  H17  1  0.13721603  0.40281860  0.52853554  1  0  0.109228  0  0.96133  0  0  0.120946  0  1.017201  0  0  0.124156  0  1.016674  0  0  0.103193  0.118602  0  1.017914  0
H  H18  1  0.86278207  0.59718134  0.47146463  1  0  0.109239  0  0.96133  0  0  0.12096  0  1.01719  0  0  0.124168  0  1.016666  0  0  0.103207  0.118618  0  1.017898  0
H  H19  1  0.35680873  0.01076703  0.65112007  1  0  0.120219  0  0.948179  0  0  0.130039  0  1.006337  0  0  0.133084  0  1.006436  0  0  0.107517  0.127869  0  1.006549  0
H  H20  1  0.64319037  0.98923291  0.34887991  1  0  0.120215  0  0.948185  0  0  0.130033  0  1.006343  0  0  0.13308  0  1.006442  0  0  0.107511  0.127864  0  1.006556  0
H  H21  1  0.23592283  0.13824452  0.80486997  1  0  0.100045  0  0.975619  0  0  0.107948  0  1.041224  0  0  0.110669  0  1.039014  0  0  0.088955  0.105937  0  1.042889  0
H  H22  1  0.76407580  0.86175437  0.19513081  1  0  0.099979  0  0.975717  0  0  0.107936  0  1.041262  0  0  0.110658  0  1.039053  0  0  0.088957  0.105926  0  1.042924  0
H  H23  1  0.82623970  0.38038596  0.20521680  1  0  0.103201  0  0.972678  0  0  0.111453  0  1.036985  0  0  0.114002  0  1.035487  0  0  0.093732  0.109586  0  1.038276  0
H  H24  1  0.17375880  0.61961715  0.79478248  1  0  0.103226  0  0.972691  0  0  0.111464  0  1.037011  0  0  0.114013  0  1.035512  0  0  0.093731  0.109597  0  1.038296  0
H  H25  1  0.63826631  0.45419078  0.35833315  1  0  0.111555  0  0.961952  0  0  0.120025  0  1.025944  0  0  0.123231  0  1.025226  0  0  0.103877  0.117831  0  1.026459  0
H  H26  1  0.36173126  0.54581022  0.64166641  1  0  0.111522  0  0.961952  0  0  0.120023  0  1.025915  0  0  0.123229  0  1.025196  0  0  0.103859  0.117828  0  1.026429  0
H  H27  1  0.89601875  0.04968257  0.45523234  1  0  0.112064  0  0.944724  0  0  0.122273  0  1.004692  0  0  0.125752  0  1.003435  0  0  0.105467  0.119941  0  1.005515  0
H  H28  1  0.10397882  0.95031843  0.54476722  1  0  0.112043  0  0.944726  0  0  0.122252  0  1.004698  0  0  0.125732  0  1.003442  0  0  0.105459  0.119919  0  1.005518  0
H  H29  1  0.08587009  0.97902151  0.30338573  1  0  0.094102  0  0.987991  0  0  0.101943  0  1.053688  0  0  0.103902  0  1.053674  0  0  0.10091  0.100696  0  1.053407  0
H  H30  1  0.91412994  0.02098055  0.69661398  1  0  0.094108  0  0.987981  0  0  0.101954  0  1.053672  0  0  0.103914  0  1.053656  0  0  0.100925  0.100707  0  1.053395  0
H  H31  1  0.50842323  0.27798979  0.80229293  1  0  0.1014  0  0.96554  0  0  0.109042  0  1.031918  0  0  0.111497  0  1.030598  0  0  0.09293  0.106849  0  1.033603  0
H  H32  1  0.49157534  0.72201120  0.19770776  1  0  0.10139  0  0.965571  0  0  0.109031  0  1.03195  0  0  0.111486  0  1.030629  0  0  0.092908  0.106839  0  1.033633  0
H  H33  1  0.46997286  0.28359044  0.64718635  1  0  0.115386  0  0.950718  0  0  0.124261  0  1.012548  0  0  0.127007  0  1.012965  0  0  0.106202  0.122043  0  1.013095  0
H  H34  1  0.53002578  0.71640844  0.35281443  1  0  0.115366  0  0.95079  0  0  0.124253  0  1.012603  0  0  0.126999  0  1.01302  0  0  0.106182  0.12201  0  1.013168  0
H  H35  1  0.89197084  0.29184394  0.52934064  1  0  0.111342  0  0.951325  0  0  0.122153  0  1.008291  0  0  0.125487  0  1.007908  0  0  0.103657  0.119617  0  1.008867  0
H  H36  1  0.10802826  0.70815601  0.47065934  1  0  0.111305  0  0.951365  0  0  0.122122  0  1.008324  0  0  0.125455  0  1.007942  0  0  0.103643  0.119592  0  1.008901  0
H  H37  1  0.93246505  0.27818339  0.68418638  1  0  0.099032  0  0.977938  0  0  0.107054  0  1.042478  0  0  0.108808  0  1.043113  0  0  0.102427  0.105554  0  1.042811  0
H  H38  1  0.06753405  0.72181655  0.31581360  1  0  0.099075  0  0.977922  0  0  0.107097  0  1.042459  0  0  0.108851  0  1.043093  0  0  0.102468  0.1056  0  1.042796  0
C  C39  1  0.40734912  0.32189638  0.15015479  1  0  0.684629  0  3.859038  0  0  0.629072  0  4.151843  0  0  0.666186  0  4.142892  0  0  0.211236  0.60344  0  4.157351  0
C  C40  1  0.59265197  0.67810356  0.84984548  1  0  0.684636  0  3.85896  0  0  0.629097  0  4.151738  0  0  0.66621  0  4.142788  0  0  0.211236  0.603461  0  4.15725  0
C  C41  1  0.38094043  0.27281001  0.24337583  1  0  -0.096284  0  3.770791  0  0  -0.07425  0  4.005631  0  0  -0.086212  0  4.029996  0  0  -0.029892  -0.066371  0  3.989318  0
C  C42  1  0.61906119  0.72718888  0.75662375  1  0  -0.096272  0  3.770824  0  0  -0.074236  0  4.005639  0  0  -0.086197  0  4.030007  0  0  -0.029869  -0.066343  0  3.989314  0
C  C43  1  0.40883469  0.32559982  0.31380158  1  0  -0.028577  0  3.728387  0  0  -0.052486  0  3.973708  0  0  -0.049119  0  3.994213  0  0  -0.076762  -0.054807  0  3.960373  0
C  C44  1  0.59116587  0.67440118  0.68619874  1  0  -0.028544  0  3.728419  0  0  -0.052447  0  3.973732  0  0  -0.04908  0  3.994242  0  0  -0.076744  -0.054773  0  3.960386  0
C  C45  1  0.38791140  0.27691755  0.40084489  1  0  -0.202118  0  3.755203  0  0  -0.220033  0  4.010449  0  0  -0.227488  0  4.029569  0  0  -0.103477  -0.215081  0  3.997806  0
C  C46  1  0.61208870  0.72308240  0.59915557  1  0  -0.202204  0  3.755202  0  0  -0.220126  0  4.010471  0  0  -0.227583  0  4.029592  0  0  -0.103524  -0.215176  0  3.997823  0
C  C47  1  0.33477391  0.17719636  0.41744301  1  0  0.279358  0  3.796374  0  0  0.266696  0  4.061483  0  0  0.279262  0  4.076105  0  0  0.087866  0.258339  0  4.051056  0
C  C48  1  0.66522717  0.82280358  0.58255660  1  0  0.279355  0  3.796459  0  0  0.266703  0  4.061564  0  0  0.279275  0  4.07618  0  0  0.087875  0.258353  0  4.051132  0
C  C49  1  0.30708790  0.12332561  0.34803067  1  0  -0.184267  0  3.745428  0  0  -0.204941  0  3.99992  0  0  -0.21206  0  4.019925  0  0  -0.100879  -0.200373  0  3.98684  0
C  C50  1  0.69291319  0.87667434  0.65197026  1  0  -0.184242  0  3.745437  0  0  -0.20492  0  3.999918  0  0  -0.21204  0  4.019922  0  0  -0.100835  -0.200357  0  3.986853  0
C  C51  1  0.33181526  0.17035265  0.26095726  1  0  -0.022683  0  3.721718  0  0  -0.047261  0  3.96893  0  0  -0.044392  0  3.989201  0  0  -0.081443  -0.049003  0  3.955386  0
C  C52  1  0.66818636  0.82964624  0.73904297  1  0  -0.022689  0  3.721742  0  0  -0.047246  0  3.968963  0  0  -0.044377  0  3.989231  0  0  -0.08145  -0.049  0  3.955429  0
C  C53  1  0.03617698  0.41522985  0.84546604  1  0  0.687735  0  3.856585  0  0  0.630931  0  4.150447  0  0  0.668305  0  4.141777  0  0  0.213623  0.605211  0  4.155799  0
C  C54  1  0.96382059  0.58477115  0.15453483  1  0  0.68779  0  3.856606  0  0  0.63098  0  4.150477  0  0  0.668354  0  4.141808  0  0  0.213662  0.605249  0  4.155842  0
C  C55  1  0.11813466  0.34171021  0.75363998  1  0  -0.105329  0  3.770052  0  0  -0.084851  0  4.009481  0  0  -0.097109  0  4.033273  0  0  -0.032539  -0.076663  0  3.993338  0
C  C56  1  0.88186397  0.65828867  0.24636014  1  0  -0.105376  0  3.770024  0  0  -0.084895  0  4.009479  0  0  -0.097153  0  4.03327  0  0  -0.032562  -0.076709  0  3.993342  0
C  C57  1  0.09144657  0.41570011  0.67526288  1  0  -0.032536  0  3.742626  0  0  -0.055868  0  3.991844  0  0  -0.051685  0  4.010579  0  0  -0.078283  -0.058486  0  3.97959  0
C  C58  1  0.90855200  0.58430089  0.32473715  1  0  -0.032531  0  3.742669  0  0  -0.055847  0  3.991879  0  0  -0.051665  0  4.010615  0  0  -0.078265  -0.058466  0  3.979625  0
C  C59  1  0.15950722  0.34552597  0.58908487  1  0  -0.219743  0  3.780765  0  0  -0.236413  0  4.031351  0  0  -0.244743  0  4.051434  0  0  -0.109757  -0.230951  0  4.017996  0
C  C60  1  0.84049341  0.65447292  0.41091555  1  0  -0.219718  0  3.780728  0  0  -0.236387  0  4.031299  0  0  -0.244718  0  4.051382  0  0  -0.109753  -0.230928  0  4.017939  0
C  C61  1  0.25472864  0.19925266  0.58149560  1  0  0.291503  0  3.78633  0  0  0.278768  0  4.05074  0  0  0.292575  0  4.064484  0  0  0.092476  0.2694  0  4.041302  0
C  C62  1  0.74527146  0.80074728  0.41850420  1  0  0.291427  0  3.786318  0  0  0.278695  0  4.050731  0  0  0.292503  0  4.064473  0  0  0.09244  0.26933  0  4.041291  0
C  C63  1  0.28344375  0.12439978  0.65895894  1  0  -0.178854  0  3.720915  0  0  -0.199454  0  3.975267  0  0  -0.206499  0  3.993833  0  0  -0.098547  -0.194788  0  3.963374  0
C  C64  1  0.71655535  0.87560016  0.34104236  1  0  -0.178845  0  3.720897  0  0  -0.199436  0  3.975268  0  0  -0.206482  0  3.993832  0  0  -0.098532  -0.194766  0  3.963368  0
C  C65  1  0.21556674  0.19587674  0.74430452  1  0  -0.015959  0  3.720167  0  0  -0.04061  0  3.968381  0  0  -0.036244  0  3.986383  0  0  -0.079186  -0.043288  0  3.955973  0
C  C66  1  0.78443135  0.80412320  0.25569630  1  0  -0.015853  0  3.720108  0  0  -0.040564  0  3.968339  0  0  -0.036197  0  3.986339  0  0  -0.07916  -0.043239  0  3.955922  0
C  C67  1  0.08451063  0.13052168  0.15490423  1  0  0.678829  0  3.846528  0  0  0.622764  0  4.139606  0  0  0.660033  0  4.130711  0  0  0.214812  0.597073  0  4.145411  0
C  C68  1  0.91548740  0.86948037  0.84509716  1  0  0.678801  0  3.84669  0  0  0.622721  0  4.139804  0  0  0.659987  0  4.130908  0  0  0.214791  0.597031  0  4.145611  0
C  C69  1  0.96915783  0.17544712  0.24477645  1  0  -0.093454  0  3.751121  0  0  -0.071728  0  3.987247  0  0  -0.083723  0  4.011831  0  0  -0.027224  -0.063844  0  3.970409  0
C  C70  1  0.03084220  0.82455494  0.75522326  1  0  -0.093385  0  3.751108  0  0  -0.071637  0  3.987216  0  0  -0.08363  0  4.0118  0  0  -0.027134  -0.063754  0  3.970383  0
C  C71  1  0.84183149  0.30887920  0.26017951  1  0  -0.020266  0  3.711008  0  0  -0.045205  0  3.957937  0  0  -0.04211  0  3.978069  0  0  -0.076641  -0.04702  0  3.944153  0
C  C72  1  0.15816754  0.69112286  0.73982104  1  0  -0.020336  0  3.711013  0  0  -0.04527  0  3.95796  0  0  -0.042174  0  3.978091  0  0  -0.076677  -0.047086  0  3.944171  0
C  C73  1  0.73679511  0.35021982  0.34531058  1  0  -0.180035  0  3.732691  0  0  -0.1996  0  3.985553  0  0  -0.206984  0  4.005876  0  0  -0.098251  -0.194553  0  3.971693  0
C  C74  1  0.26320345  0.64978118  0.65468945  1  0  -0.17999  0  3.732645  0  0  -0.199573  0  3.985507  0  0  -0.206959  0  4.00583  0  0  -0.098223  -0.19453  0  3.97165  0
C  C75  1  0.75791471  0.25741867  0.41525856  1  0  0.284324  0  3.7831  0  0  0.273069  0  4.04506  0  0  0.285369  0  4.060381  0  0  0.089992  0.264841  0  4.034205  0
C  C76  1  0.24208438  0.74258128  0.58474077  1  0  0.284335  0  3.782961  0  0  0.273067  0  4.044953  0  0  0.285368  0  4.060273  0  0  0.089975  0.264842  0  4.034094  0
C  C77  1  0.88304463  0.12274405  0.40090417  1  0  -0.195669  0  3.754276  0  0  -0.2147  0  4.007173  0  0  -0.221978  0  4.026702  0  0  -0.101235  -0.209909  0  3.993847  0
C  C78  1  0.11695294  0.87725695  0.59909605  1  0  -0.195633  0  3.754224  0  0  -0.214662  0  4.007134  0  0  -0.221942  0  4.026666  0  0  -0.101207  -0.209868  0  3.993803  0
C  C79  1  0.98824784  0.08334177  0.31598759  1  0  -0.026621  0  3.724373  0  0  -0.050578  0  3.97025  0  0  -0.047032  0  3.990396  0  0  -0.077981  -0.052369  0  3.956194  0
C  C80  1  0.01175272  0.91665923  0.68401207  1  0  -0.026642  0  3.724437  0  0  -0.050616  0  3.970328  0  0  -0.047069  0  3.990471  0  0  -0.078033  -0.052413  0  3.956284  0
C  C81  1  0.75227209  0.26360127  0.84462768  1  0  0.695979  0  3.837858  0  0  0.638184  0  4.132222  0  0  0.676628  0  4.121461  0  0  0.214346  0.611744  0  4.138982  0
C  C82  1  0.24772801  0.73639867  0.15537278  1  0  0.696096  0  3.837665  0  0  0.638185  0  4.132175  0  0  0.676626  0  4.121418  0  0  0.214314  0.61174  0  4.138938  0
C  C83  1  0.72354825  0.27676550  0.75320929  1  0  -0.087647  0  3.740519  0  0  -0.067897  0  3.980147  0  0  -0.07875  0  4.001061  0  0  -0.025274  -0.060849  0  3.966143  0
C  C84  1  0.27645184  0.72323445  0.24679183  1  0  -0.087626  0  3.740483  0  0  -0.067832  0  3.980108  0  0  -0.078688  0  4.001027  0  0  -0.025218  -0.060784  0  3.966111  0
C  C85  1  0.59213398  0.28066274  0.74245722  1  0  -0.012546  0  3.695306  0  0  -0.038303  0  3.943903  0  0  -0.034434  0  3.962154  0  0  -0.076187  -0.040701  0  3.931414  0
C  C86  1  0.40786512  0.71933721  0.25754211  1  0  -0.01255  0  3.69534  0  0  -0.038316  0  3.943935  0  0  -0.034445  0  3.962187  0  0  -0.076179  -0.040714  0  3.931441  0
C  C87  1  0.57002203  0.28442680  0.65610270  1  0  -0.194638  0  3.737643  0  0  -0.212017  0  3.992835  0  0  -0.218865  0  4.011464  0  0  -0.101494  -0.207381  0  3.980354  0
C  C88  1  0.42997759  0.71557209  0.34389724  1  0  -0.194614  0  3.73769  0  0  -0.211997  0  3.992855  0  0  -0.218846  0  4.011482  0  0  -0.101476  -0.207342  0  3.980374  0
C  C89  1  0.67849324  0.28790695  0.57938515  1  0  0.286772  0  3.792095  0  0  0.272448  0  4.058351  0  0  0.285884  0  4.07246  0  0  0.089658  0.263325  0  4.048591  0
C  C90  1  0.32150739  0.71209194  0.42061461  1  0  0.286787  0  3.792058  0  0  0.272469  0  4.058309  0  0  0.285906  0  4.072416  0  0  0.089671  0.263355  0  4.048537  0
C  C91  1  0.80896908  0.28714892  0.58900351  1  0  -0.212702  0  3.767515  0  0  -0.229526  0  4.019474  0  0  -0.238164  0  4.040268  0  0  -0.107558  -0.2237  0  4.005709  0
C  C92  1  0.19102856  0.71284997  0.41099746  1  0  -0.212686  0  3.767466  0  0  -0.22952  0  4.019432  0  0  -0.238157  0  4.040225  0  0  -0.107565  -0.223698  0  4.005678  0
C  C93  1  0.83098130  0.28043983  0.67569634  1  0  -0.027952  0  3.72171  0  0  -0.051147  0  3.968317  0  0  -0.046691  0  3.986827  0  0  -0.076998  -0.054157  0  3.956496  0
C  C94  1  0.16901879  0.71956012  0.32430346  1  0  -0.028007  0  3.721708  0  0  -0.051209  0  3.968315  0  0  -0.046752  0  3.986823  0  0  -0.077035  -0.054224  0  3.956511  0
Cl  Cl95  1  0.72808335  0.47162618  0.06151459  1  0  -0.546955  0  1.101869  0  0  -0.479005  0  1.4232  0  0  -0.500027  0  1.392825  0  0  -0.235457  -0.462853  0  1.445236  0
Cl  Cl96  1  0.27191575  0.52837377  0.93848408  1  0  -0.546943  0  1.101834  0  0  -0.479002  0  1.423178  0  0  -0.500024  0  1.392802  0  0  -0.235461  -0.462851  0  1.445204  0
Cl  Cl97  1  0.41322446  0.10930285  0.91297402  1  0  -0.526596  0  1.160107  0  0  -0.453646  0  1.479813  0  0  -0.477281  0  1.453705  0  0  -0.219249  -0.436498  0  1.498266  0
Cl  Cl98  1  0.58677617  0.89069604  0.08702574  1  0  -0.526598  0  1.160071  0  0  -0.453646  0  1.47978  0  0  -0.477285  0  1.453678  0  0  -0.219253  -0.4365  0  1.498231  0
Cl  Cl99  1  0.82029517  0.06116445  0.07979134  1  0  -0.55147  0  1.036111  0  0  -0.478214  0  1.331646  0  0  -0.50108  0  1.306691  0  0  -0.249718  -0.460735  0  1.349096  0
Cl  Cl100  1  0.17970546  0.93883444  0.92020580  1  0  -0.551469  0  1.036094  0  0  -0.478202  0  1.331609  0  0  -0.501066  0  1.306654  0  0  -0.249705  -0.460706  0  1.349019  0
O  O101  1  0.43172433  0.42711179  0.13851271  1  0  -0.6068  0  2.060225  0  0  -0.537625  0  2.311656  0  0  -0.56889  0  2.304264  0  0  -0.306719  -0.515941  0  2.316679  0
O  O102  1  0.56827377  0.57288815  0.86148746  1  0  -0.606804  0  2.060241  0  0  -0.537641  0  2.311654  0  0  -0.568906  0  2.304262  0  0  -0.306704  -0.515956  0  2.316678  0
O  O103  1  0.40654684  0.25280907  0.08388133  1  0  -0.748246  0  2.167864  0  0  -0.665739  0  2.448092  0  0  -0.697171  0  2.43394  0  0  -0.362392  -0.64318  0  2.457083  0
O  O104  1  0.59345379  0.74718982  0.91611843  1  0  -0.74824  0  2.167846  0  0  -0.665731  0  2.448057  0  0  -0.697165  0  2.433914  0  0  -0.362405  -0.643177  0  2.457054  0
O  O105  1  0.93928942  0.54415231  0.85046982  1  0  -0.60129  0  2.03927  0  0  -0.530292  0  2.291571  0  0  -0.560969  0  2.282728  0  0  -0.307725  -0.508646  0  2.297166  0
O  O106  1  0.06071121  0.45584658  0.14952993  1  0  -0.601294  0  2.039227  0  0  -0.530315  0  2.291559  0  0  -0.560992  0  2.282717  0  0  -0.307739  -0.508666  0  2.29716  0
O  O107  1  0.31748979  0.11825598  0.50060027  1  0  -0.283336  0  2.35576  0  0  -0.217026  0  2.58133  0  0  -0.234754  0  2.581059  0  0  -0.146177  -0.204291  0  2.580954  0
O  O108  1  0.68251183  0.88174291  0.49940062  1  0  -0.283316  0  2.355849  0  0  -0.217012  0  2.581428  0  0  -0.234743  0  2.581154  0  0  -0.146199  -0.204279  0  2.581052  0
O  O109  1  0.06441606  0.34459782  0.91665085  1  0  -0.746126  0  2.172604  0  0  -0.663352  0  2.456196  0  0  -0.694756  0  2.440492  0  0  -0.361878  -0.640566  0  2.466147  0
O  O110  1  0.93558403  0.65540212  0.08334960  1  0  -0.746167  0  2.172645  0  0  -0.663387  0  2.456238  0  0  -0.69479  0  2.440534  0  0  -0.361905  -0.640592  0  2.466179  0
O  O111  1  0.64430446  0.30053352  0.49668113  1  0  -0.295573  0  2.342446  0  0  -0.227396  0  2.569384  0  0  -0.245125  0  2.568672  0  0  -0.150033  -0.214884  0  2.569356  0
O  O112  1  0.35569517  0.69946537  0.50331881  1  0  -0.295611  0  2.342442  0  0  -0.227433  0  2.569389  0  0  -0.245163  0  2.568676  0  0  -0.150044  -0.214915  0  2.56935  0
O  O113  1  0.20585999  0.01606901  0.14897495  1  0  -0.611451  0  2.071104  0  0  -0.538335  0  2.321604  0  0  -0.568972  0  2.313355  0  0  -0.306687  -0.517097  0  2.326847  0
O  O114  1  0.79414063  0.98392988  0.85102547  1  0  -0.611488  0  2.071268  0  0  -0.538341  0  2.321721  0  0  -0.568996  0  2.313519  0  0  -0.306705  -0.517104  0  2.326967  0
O  O115  1  0.64423477  0.27943670  0.91670198  1  0  -0.738398  0  2.163479  0  0  -0.65974  0  2.449943  0  0  -0.690131  0  2.433002  0  0  -0.359718  -0.637998  0  2.460923  0
O  O116  1  0.35576532  0.72056325  0.08329913  1  0  -0.738469  0  2.163423  0  0  -0.659734  0  2.449888  0  0  -0.690116  0  2.432943  0  0  -0.359732  -0.637991  0  2.460867  0
O  O117  1  0.06056522  0.20910028  0.08665429  1  0  -0.727862  0  2.17346  0  0  -0.646853  0  2.45476  0  0  -0.678455  0  2.440501  0  0  -0.354001  -0.624088  0  2.463946  0
O  O118  1  0.93943587  0.79089966  0.91334467  1  0  -0.727833  0  2.173487  0  0  -0.64683  0  2.454801  0  0  -0.678429  0  2.440544  0  0  -0.353994  -0.62406  0  2.463981  0
O  O119  1  0.88316358  0.23624485  0.84853681  1  0  -0.609345  0  2.041838  0  0  -0.537995  0  2.294803  0  0  -0.569635  0  2.286864  0  0  -0.307636  -0.516529  0  2.300419  0
O  O120  1  0.11683652  0.76375509  0.15146365  1  0  -0.6094  0  2.041784  0  0  -0.537996  0  2.294783  0  0  -0.569639  0  2.286849  0  0  -0.307604  -0.516524  0  2.300393  0
