# generated using pymatgen
data_CuH28C30S2(N4O3)2
_symmetry_space_group_name_H-M   'P 1'
_cell_length_a   7.30994516
_cell_length_b   9.75893541
_cell_length_c   12.76348224
_cell_angle_alpha   100.21537988
_cell_angle_beta   105.76405368
_cell_angle_gamma   109.71432416
_symmetry_Int_Tables_number   1
_chemical_formula_structural   CuH28C30S2(N4O3)2
_chemical_formula_sum   'Cu1 H28 C30 S2 N8 O6'
_cell_volume   787.70671285
_cell_formula_units_Z   1
loop_
 _symmetry_equiv_pos_site_id
 _symmetry_equiv_pos_as_xyz
  1  'x, y, z'
loop_
 _atom_site_type_symbol
 _atom_site_label
 _atom_site_symmetry_multiplicity
 _atom_site_fract_x
 _atom_site_fract_y
 _atom_site_fract_z
 _atom_site_occupancy
 _atom_site_hle17_ddec_charge
 _atom_site_hle17_ddec_spin_density
 _atom_site_hle17_ddec_sum_bond_order
 _atom_site_hle17_magmom
 _atom_site_hse06_10hf_ddec_charge
 _atom_site_hse06_10hf_ddec_spin_density
 _atom_site_hse06_10hf_ddec_sum_bond_order
 _atom_site_hse06_10hf_magmom
 _atom_site_hse06_ddec_charge
 _atom_site_hse06_ddec_spin_density
 _atom_site_hse06_ddec_sum_bond_order
 _atom_site_hse06_magmom
 _atom_site_pbe_cm5_charge
 _atom_site_pbe_ddec_charge
 _atom_site_pbe_ddec_spin_density
 _atom_site_pbe_ddec_sum_bond_order
 _atom_site_pbe_magmom
Cu  Cu0  1  0.00000805  0.99998558  0.99999862  1  0.919199  0.718806  1.916787  0.534  0.898799  0.796062  2.317087  0.646  0.972378  0.856661  2.25782  0.722  0.827043  0.850753  0.751433  2.361976  0.594
H  H1  1  0.41223318  0.08538426  0.98368861  1  0.10161  0.00123  0.943445  0.002  0.106877  0.00111  1.008636  0.002  0.109171  0.000768  1.005876  0.001  0.124592  0.105141  0.001388  1.01058  0.002
H  H2  1  0.58777962  0.91459325  0.01630959  1  0.101636  0.001229  0.943324  0.002  0.106853  0.00111  1.008556  0.002  0.109146  0.000768  1.005798  0.001  0.124584  0.105118  0.001388  1.0105  0.002
H  H3  1  0.82412948  0.97030494  0.75269891  1  0.098045  0.001165  0.953545  0.002  0.102664  0.001021  1.020533  0.002  0.104438  0.000696  1.017987  0.001  0.12174  0.101053  0.001294  1.022835  0.002
H  H4  1  0.17587615  0.02968751  0.24730568  1  0.098004  0.001164  0.953649  0.002  0.102701  0.001021  1.020547  0.002  0.104473  0.000696  1.018003  0.001  0.121739  0.101085  0.001294  1.02284  0.002
H  H5  1  0.96337571  0.03286995  0.60129182  1  0.107219  0.00062  0.941847  0.001  0.11739  0.000651  0.999262  0.001  0.120041  0.000456  0.999397  0.0  0.10793  0.115333  0.000807  0.999495  0.001
H  H6  1  0.03662529  0.96714198  0.39871467  1  0.107238  0.00062  0.941794  0.001  0.117377  0.000651  0.999242  0.001  0.12003  0.000456  0.999371  0.0  0.107924  0.115319  0.000807  0.999482  0.001
H  H7  1  0.35276066  0.12943409  0.64646590  1  0.106234  0.000289  0.943765  0.001  0.110687  -1.1e-05  1.014225  0.0  0.114724  -6.5e-05  1.009744  0.0  0.107926  0.107569  6e-05  1.017809  0.0
H  H8  1  0.64724391  0.87057664  0.35353393  1  0.106268  0.000288  0.943755  0.001  0.110704  -1.1e-05  1.014213  0.0  0.114742  -6.5e-05  1.009735  0.0  0.107933  0.107583  6e-05  1.017795  0.0
H  H9  1  0.66425632  0.32623271  0.77983858  1  0.268898  -0.000287  0.933522  0.0  0.253315  -0.000155  1.001267  0.0  0.260059  -0.000147  0.997029  0.0  0.293875  0.248609  -0.000163  1.00446  0.0
H  H10  1  0.33574506  0.67377235  0.22016547  1  0.268877  -0.000287  0.933509  0.0  0.253311  -0.000155  1.001217  0.0  0.260055  -0.000147  0.99698  0.0  0.293899  0.248603  -0.000163  1.004407  0.0
H  H11  1  0.03417016  0.28049119  0.90756741  1  0.072564  -0.000163  0.955111  0.0  0.086637  -0.000128  1.020393  0.0  0.086775  -0.000136  1.021261  0.0  0.107563  0.086424  -0.000109  1.019811  0.0
H  H12  1  0.96582813  0.71950588  0.09243666  1  0.072603  -0.000163  0.955067  0.0  0.086631  -0.000128  1.020397  0.0  0.086743  -0.000136  1.021294  0.0  0.107591  0.08642  -0.000109  1.01982  0.0
H  H13  1  0.02740217  0.36544866  0.79492414  1  0.056441  4.2e-05  0.938827  0.0  0.07185  7e-06  1.007213  0.0  0.07209  1e-06  1.006881  0.0  0.095334  0.071687  3e-06  1.007305  0.0
H  H14  1  0.97260385  0.63454951  0.20508206  1  0.056553  4.1e-05  0.938804  0.0  0.071933  7e-06  1.007183  0.0  0.072169  1e-06  1.006855  0.0  0.095363  0.071776  3e-06  1.007263  0.0
H  H15  1  0.78960453  0.43976259  0.01750933  1  0.070224  9.7e-05  0.945807  0.0  0.085478  2.2e-05  1.011831  0.0  0.085925  9e-06  1.01297  0.0  0.088049  0.085078  3.6e-05  1.011256  0.0
H  H16  1  0.21040317  0.56023100  0.98249651  1  0.070237  9.7e-05  0.945929  0.0  0.085512  2.2e-05  1.011905  0.0  0.08596  9e-06  1.013044  0.0  0.08807  0.085107  3.6e-05  1.011335  0.0
H  H17  1  0.01661244  0.41925136  0.09253739  1  0.066429  -6.4e-05  0.953657  0.0  0.085924  -2.8e-05  1.013705  0.0  0.085889  -3e-05  1.015232  0.0  0.087609  0.085839  -2.3e-05  1.012731  0.0
H  H18  1  0.98340182  0.58075133  0.90746912  1  0.066456  -6.5e-05  0.953584  0.0  0.085942  -2.8e-05  1.013652  0.0  0.085893  -3e-05  1.015198  0.0  0.087611  0.085863  -2.3e-05  1.012676  0.0
H  H19  1  0.58611145  0.20244076  0.26680673  1  0.117899  -8.2e-05  0.950774  0.0  0.12338  -2.1e-05  1.016385  0.0  0.126312  -2e-05  1.014636  0.0  0.110942  0.121373  -2.1e-05  1.017357  0.0
H  H20  1  0.41387960  0.79755862  0.73319105  1  0.117904  -8.2e-05  0.950753  0.0  0.123386  -2.1e-05  1.016373  0.0  0.126308  -2e-05  1.014634  0.0  0.110979  0.121379  -2.1e-05  1.017356  0.0
H  H21  1  0.87537888  0.30104596  0.19517741  1  0.103239  -4.1e-05  0.94333  0.0  0.11407  -2.5e-05  0.999453  0.0  0.116592  -2.4e-05  0.999417  0.0  0.107663  0.112215  -2.5e-05  0.999622  0.0
H  H22  1  0.12461317  0.69894768  0.80481741  1  0.103336  -4.1e-05  0.943367  0.0  0.114093  -2.5e-05  0.999563  0.0  0.116665  -2.4e-05  0.999464  0.0  0.107663  0.112239  -2.5e-05  0.999733  0.0
H  H23  1  0.24326979  0.41180722  0.32824235  1  0.085521  -1e-06  0.973108  0.0  0.090991  -3.4e-05  1.04499  0.0  0.09374  -3.6e-05  1.043513  0.0  0.094309  0.088956  -2.9e-05  1.046044  0.0
H  H24  1  0.75672459  0.58819556  0.67175406  1  0.085581  -1e-06  0.973075  0.0  0.091026  -3.4e-05  1.044973  0.0  0.093772  -3.6e-05  1.043498  0.0  0.094347  0.088995  -2.9e-05  1.046033  0.0
H  H25  1  0.32287009  0.42464725  0.53449534  1  0.091816  3.9e-05  0.955388  0.0  0.099254  -5.2e-05  1.019442  0.0  0.102408  -5.7e-05  1.018552  0.0  0.096042  0.096895  -4.1e-05  1.020356  0.0
H  H26  1  0.67711968  0.57537501  0.46550374  1  0.091845  3.9e-05  0.955328  0.0  0.099306  -5.2e-05  1.019349  0.0  0.102458  -5.8e-05  1.018461  0.0  0.096089  0.096941  -4.1e-05  1.020261  0.0
H  H27  1  0.03341080  0.33192170  0.60584530  1  0.107543  -4.7e-05  0.963471  0.0  0.112321  -2e-05  1.034168  0.0  0.115869  -1.9e-05  1.031713  0.0  0.10581  0.109852  -2.2e-05  1.035708  0.0
H  H28  1  0.96658555  0.66810968  0.39415758  1  0.10737  -4.7e-05  0.963572  0.0  0.112162  -2e-05  1.034283  0.0  0.115707  -1.9e-05  1.031829  0.0  0.105769  0.109692  -2.2e-05  1.035817  0.0
C  C29  1  0.33956119  0.32584454  0.14136092  1  0.302653  -0.016753  4.029607  -0.006  0.303618  -0.001587  4.330904  0.005  0.329591  -0.003704  4.34177  0.003  0.148667  0.285973  -0.000107  4.322675  0.007
C  C30  1  0.66043757  0.67411819  0.85863392  1  0.302383  -0.016746  4.030438  -0.006  0.303334  -0.001588  4.331755  0.005  0.329306  -0.003701  4.342629  0.003  0.14849  0.285692  -0.000107  4.32352  0.007
C  C31  1  0.41132780  0.11268378  0.81850184  1  -0.092046  0.009903  3.752767  0.011  -0.065587  0.004254  3.982965  0.005  -0.077935  0.003761  4.006492  0.005  -0.004557  -0.058049  0.004789  3.967831  0.006
C  C32  1  0.58868156  0.88731779  0.18150377  1  -0.092269  0.009894  3.752705  0.011  -0.065847  0.004252  3.982907  0.005  -0.078189  0.003763  4.00643  0.005  -0.004659  -0.05832  0.004789  3.967776  0.006
C  C33  1  0.31954532  0.07666062  0.89816224  1  0.124175  -0.012206  3.648323  -0.008  0.089276  -0.003439  3.892748  -0.002  0.099847  -0.005337  3.910113  -0.004  0.061582  0.082505  -0.002012  3.881282  -0.001
C  C34  1  0.68045767  0.92331465  0.10183259  1  0.124309  -0.012194  3.647906  -0.008  0.089493  -0.003436  3.892389  -0.002  0.100063  -0.00534  3.90975  -0.004  0.061745  0.082729  -0.002011  3.880938  -0.001
C  C35  1  0.99002596  0.01270440  0.76853599  1  0.138523  -0.011323  3.661939  -0.008  0.106412  -0.002903  3.92114  -0.002  0.117565  -0.004838  3.93832  -0.003  0.055899  0.09915  -0.00139  3.909593  -0.001
C  C36  1  0.00998119  0.98728574  0.23146461  1  0.138368  -0.01131  3.6621  -0.008  0.106241  -0.002903  3.921279  -0.002  0.117394  -0.00484  3.938465  -0.003  0.055866  0.098996  -0.001391  3.90973  -0.001
C  C37  1  0.07045770  0.04845896  0.68499889  1  -0.109869  0.010706  3.716865  0.012  -0.119419  0.004357  3.967253  0.005  -0.128346  0.003927  3.98938  0.005  -0.079339  -0.113662  0.00485  3.952333  0.006
C  C38  1  0.92954688  0.95153921  0.31500317  1  -0.109864  0.010694  3.716946  0.012  -0.119389  0.004356  3.967315  0.005  -0.128314  0.003929  3.989445  0.005  -0.07937  -0.113637  0.00485  3.952396  0.006
C  C39  1  0.28463565  0.10117712  0.71018361  1  -0.024667  -0.013418  3.687947  -0.009  -0.052393  -0.005098  3.935956  -0.003  -0.046464  -0.005739  3.952738  -0.003  -0.063853  -0.056453  -0.004607  3.925017  -0.003
C  C40  1  0.71537435  0.89882560  0.28982146  1  -0.024622  -0.013397  3.687957  -0.009  -0.05232  -0.005097  3.935973  -0.003  -0.046386  -0.005742  3.952736  -0.003  -0.063849  -0.056379  -0.004607  3.925041  -0.003
C  C41  1  0.64158114  0.15969666  0.85659210  1  0.540593  0.000419  3.87581  0.0  0.496259  0.000486  4.160712  0.0  0.527133  0.000269  4.159521  0.0  0.240265  0.475277  0.000737  4.160739  0.001
C  C42  1  0.35842796  0.84030948  0.14341251  1  0.54054  0.00042  3.875973  0.0  0.496309  0.000486  4.16073  0.0  0.527176  0.000269  4.159551  0.0  0.240215  0.475331  0.000737  4.160745  0.001
C  C43  1  0.97087162  0.35167098  0.86544966  1  0.055995  8.4e-05  3.649831  0.0  -0.002871  -8e-06  3.909855  0.0  0.002718  -6e-05  3.921228  0.0  -0.065079  -0.006569  6.5e-05  3.901832  0.0
C  C44  1  0.02913014  0.64832721  0.13455353  1  0.055721  8.5e-05  3.64981  0.0  -0.003065  -9e-06  3.909754  0.0  0.002541  -6e-05  3.921139  0.0  -0.065167  -0.006786  6.5e-05  3.901753  0.0
C  C45  1  0.03918262  0.50655838  0.95061690  1  -0.133497  0.000106  3.676885  0.0  -0.171353  4.2e-05  3.931788  0.0  -0.173353  1.6e-05  3.946715  0.0  -0.169082  -0.1699  4.9e-05  3.921703  0.0
C  C46  1  0.96082751  0.49344205  0.04938867  1  -0.133374  0.000105  3.676778  0.0  -0.171218  4.2e-05  3.931643  0.0  -0.173217  1.6e-05  3.946554  0.0  -0.168995  -0.169759  4.9e-05  3.921562  0.0
C  C47  1  0.79701014  0.26115058  0.43931213  1  0.060438  -6e-05  3.738093  0.0  0.052543  -6.5e-05  3.985701  0.0  0.048905  -7.4e-05  4.010257  0.0  0.071571  0.055541  -6.2e-05  3.968848  0.0
C  C48  1  0.20298479  0.73886823  0.56069043  1  0.060414  -5.5e-05  3.738009  0.0  0.052503  -6.8e-05  3.985713  0.0  0.048866  -7.1e-05  4.01026  0.0  0.071606  0.055502  -6.2e-05  3.968862  0.0
C  C49  1  0.74783888  0.25125699  0.32383553  1  -0.098222  -9.7e-05  3.735337  0.0  -0.123946  -5.8e-05  3.992007  0.0  -0.123817  -6.1e-05  4.01307  0.0  -0.077477  -0.123972  -5.3e-05  3.977302  0.0
C  C50  1  0.25215747  0.74874924  0.67616712  1  -0.09808  -0.000107  3.735286  0.0  -0.123804  -5.7e-05  3.99195  0.0  -0.123665  -6.3e-05  4.01303  0.0  -0.077484  -0.123839  -5.2e-05  3.977257  0.0
C  C51  1  0.91045616  0.30710202  0.28486265  1  -0.052666  -2.8e-05  3.718552  0.0  -0.065182  -7.1e-05  3.971985  0.0  -0.069555  -6.8e-05  3.994569  0.0  -0.081625  -0.062179  -6.6e-05  3.956364  0.0
C  C52  1  0.08953592  0.69290423  0.71513700  1  -0.052795  -2.3e-05  3.718935  0.0  -0.065235  -7.2e-05  3.972319  0.0  -0.069644  -6.7e-05  3.994887  0.0  -0.081558  -0.062227  -6.5e-05  3.956707  0.0
C  C53  1  0.11703835  0.36870407  0.35980018  1  -0.023229  -0.000151  3.691033  0.0  -0.045186  -9.5e-05  3.946337  0.0  -0.044212  -9.3e-05  3.966224  0.0  -0.074437  -0.04535  -9.3e-05  3.93227  0.0
C  C54  1  0.88295321  0.63131131  0.64019669  1  -0.023199  -0.000156  3.691282  0.0  -0.045125  -9.5e-05  3.94656  0.0  -0.044151  -9.6e-05  3.966462  0.0  -0.074473  -0.045295  -9.3e-05  3.932504  0.0
C  C55  1  0.16245478  0.37650264  0.47512590  1  -0.065739  4.7e-05  3.747665  0.0  -0.077329  -2.6e-05  3.998074  0.0  -0.082209  -2.5e-05  4.020858  0.0  -0.089325  -0.074035  -1.1e-05  3.982497  0.0
C  C56  1  0.83754259  0.62352301  0.52487560  1  -0.065963  5e-05  3.747936  0.0  -0.077582  -2.6e-05  3.99838  0.0  -0.082462  -2.3e-05  4.02116  0.0  -0.089427  -0.074283  -1.1e-05  3.98279  0.0
C  C57  1  0.00203857  0.32422219  0.51620548  1  -0.100083  -4.7e-05  3.741812  0.0  -0.123512  -2.6e-05  3.994431  0.0  -0.123565  -2.7e-05  4.015615  0.0  -0.080703  -0.12334  -1.7e-05  3.979606  0.0
C  C58  1  0.99795613  0.67580121  0.48380001  1  -0.099853  -5.1e-05  3.742025  0.0  -0.123299  -2.4e-05  3.994686  0.0  -0.123348  -3e-05  4.015867  0.0  -0.080722  -0.123122  -1.7e-05  3.979842  0.0
S  S59  1  0.52129330  0.49588706  0.20403455  1  -0.351591  0.016597  1.993601  0.02  -0.347544  -0.002277  2.281483  0.001  -0.363755  -0.004146  2.277124  0.0  -0.160512  -0.335809  3e-05  2.283843  0.003
S  S60  1  0.47869373  0.50408260  0.79595705  1  -0.35147  0.016619  1.994131  0.02  -0.347412  -0.002274  2.282013  0.001  -0.363623  -0.004141  2.277655  0.0  -0.160463  -0.335672  3.5e-05  2.284377  0.003
N  N61  1  0.20662513  0.20084659  0.09747945  1  -0.548345  0.065738  3.041877  0.081  -0.534121  0.044332  3.358763  0.058  -0.562613  0.037872  3.360406  0.052  -0.424641  -0.515433  0.04814  3.357759  0.06
N  N62  1  0.79336212  0.79911847  0.90250609  1  -0.548125  0.065729  3.042003  0.081  -0.533894  0.044329  3.358836  0.058  -0.562371  0.037865  3.360455  0.052  -0.424419  -0.5152  0.048135  3.357824  0.06
N  N63  1  0.11434508  0.03029419  0.87374648  1  -0.287933  0.08769  3.343717  0.113  -0.239084  0.062452  3.635077  0.087  -0.270567  0.049693  3.657574  0.074  -0.336156  -0.219046  0.070645  3.620393  0.094
N  N64  1  0.88566011  0.96967994  0.12625010  1  -0.287821  0.087677  3.343656  0.113  -0.239038  0.062448  3.635105  0.087  -0.270518  0.049691  3.657597  0.074  -0.336211  -0.219031  0.070643  3.620451  0.094
N  N65  1  0.74554300  0.27145117  0.81981945  1  -0.408426  0.000771  3.34979  0.001  -0.347337  0.000356  3.58966  0.0  -0.369622  0.000247  3.600387  0.0  -0.418303  -0.33206  0.000471  3.582159  0.001
N  N66  1  0.25446207  0.72855040  0.18017844  1  -0.408219  0.00077  3.349732  0.001  -0.34717  0.000356  3.589559  0.0  -0.369452  0.000248  3.600291  0.0  -0.418262  -0.331893  0.000471  3.582048  0.001
N  N67  1  0.62767123  0.20523434  0.48160627  1  0.469993  -4.4e-05  3.947729  0.0  0.51672  -4e-06  4.221721  0.0  0.535027  -3e-06  4.231564  0.0  0.05457  0.502971  8e-06  4.21551  0.0
N  N68  1  0.37231981  0.79477762  0.51839084  1  0.470137  -3.9e-05  3.947735  0.0  0.5168  -5e-06  4.221827  0.0  0.535101  -2e-06  4.231683  0.0  0.054715  0.503056  7e-06  4.215599  0.0
O  O69  1  0.72367732  0.09658504  0.92042706  1  -0.587027  -0.000147  1.980492  0.001  -0.560768  -0.001014  2.237374  0.0  -0.584218  -0.001345  2.227651  0.0  -0.305998  -0.543746  -0.000301  2.243172  0.001
O  O70  1  0.27632669  0.90340966  0.07956583  1  -0.587  -0.000149  1.980616  0.001  -0.56084  -0.001013  2.237581  0.0  -0.584291  -0.001345  2.227867  0.0  -0.30594  -0.543807  -0.000301  2.24334  0.001
O  O71  1  0.66472144  0.25453433  0.58524136  1  -0.361082  -5e-06  1.799712  0.0  -0.350023  -1.7e-05  2.014286  0.0  -0.360397  -2.3e-05  2.011238  0.0  -0.129638  -0.34207  -1e-05  2.016292  0.0
O  O72  1  0.33525364  0.74548459  0.41475344  1  -0.361235  -3e-06  1.799873  0.0  -0.350151  -1.7e-05  2.014467  0.0  -0.360522  -2.2e-05  2.011416  0.0  -0.129699  -0.342202  -9e-06  2.016465  0.0
O  O73  1  0.45432150  0.11113998  0.41220799  1  -0.361344  6e-06  1.765402  0.0  -0.349536  4.4e-05  1.969115  0.0  -0.3605  3.5e-05  1.966034  0.0  -0.134832  -0.341261  7.2e-05  1.971293  0.0
O  O74  1  0.54567853  0.88886275  0.58778614  1  -0.361377  2e-06  1.765231  0.0  -0.349506  4.5e-05  1.968931  0.0  -0.360484  3.3e-05  1.965876  0.0  -0.134925  -0.341232  7.2e-05  1.971105  0.0
