# generated using pymatgen
data_NaCu2H31C29(N2O5)2
_symmetry_space_group_name_H-M   'P 1'
_cell_length_a   12.62855285
_cell_length_b   13.06022064
_cell_length_c   13.50065010
_cell_angle_alpha   117.72959785
_cell_angle_beta   116.03799729
_cell_angle_gamma   92.03251214
_symmetry_Int_Tables_number   1
_chemical_formula_structural   NaCu2H31C29(N2O5)2
_chemical_formula_sum   'Na2 Cu4 H62 C58 N8 O20'
_cell_volume   1688.55312115
_cell_formula_units_Z   2
loop_
 _symmetry_equiv_pos_site_id
 _symmetry_equiv_pos_as_xyz
  1  'x, y, z'
loop_
 _atom_site_type_symbol
 _atom_site_label
 _atom_site_symmetry_multiplicity
 _atom_site_fract_x
 _atom_site_fract_y
 _atom_site_fract_z
 _atom_site_occupancy
 _atom_site_pbe_bader_charge
 _atom_site_pbe_bader_spin_density
 _atom_site_pbe_cm5_charge
 _atom_site_pbe_ddec_charge
 _atom_site_pbe_ddec_spin_density
 _atom_site_pbe_ddec_sum_bond_order
 _atom_site_pbe_magmom
Na  Na0  1  0.36068333  0.68609250  0.11086965  1  0.884694  0.000934  0.687283  0.838437  0.000922  0.567029  0.0
Na  Na1  1  0.63931814  0.31390639  0.88913209  1  0.884675  0.000934  0.687299  0.838452  0.000922  0.567041  0.0
Cu  Cu2  1  0.15777656  0.37904354  0.26397859  1  1.029302  0.555732  0.723261  0.712405  0.720527  2.303597  0.555
Cu  Cu3  1  0.84222082  0.62095353  0.73601993  1  1.029312  0.55573  0.72329  0.712523  0.720526  2.303496  0.555
Cu  Cu4  1  0.24120407  0.15593375  0.34665593  1  1.029468  0.554311  0.717449  0.714262  0.717424  2.270652  0.553
Cu  Cu5  1  0.75880235  0.84406695  0.65334641  1  1.029506  0.554316  0.717486  0.714324  0.717427  2.270593  0.553
H  H6  1  0.25148340  0.15661373  0.89220446  1  0.034638  0.000371  0.097753  0.098267  0.00012  1.011408  0.0
H  H7  1  0.74851923  0.84338606  0.10779890  1  0.034566  0.000371  0.09776  0.098287  0.00012  1.011403  0.0
H  H8  1  0.54620867  0.07372994  0.98616435  1  0.040102  0.000278  0.088318  0.125945  0.000116  1.032084  0.0
H  H9  1  0.45379600  0.92627076  0.01383951  1  0.040048  0.000279  0.08831  0.12597  0.000116  1.032145  0.0
H  H10  1  0.41331543  0.06343501  0.85388771  1  0.040013  0.000716  0.090171  0.125413  0.00033  1.002251  0.0
H  H11  1  0.58668868  0.93656387  0.14611510  1  0.039954  0.000716  0.090154  0.1254  0.00033  1.002214  0.0
H  H12  1  0.52954460  0.20308194  0.97757434  1  0.073914  0.001633  0.097355  0.127254  0.000811  1.039972  0.001
H  H13  1  0.47045720  0.79691514  0.02242746  1  0.073861  0.001634  0.097394  0.127286  0.000811  1.039956  0.001
H  H14  1  0.55852986  0.14955832  0.19844660  1  0.020299  0.00043  0.093191  0.087197  0.000161  1.043716  0.0
H  H15  1  0.44147367  0.85043875  0.80155293  1  0.020298  0.000429  0.093186  0.087172  0.000161  1.04374  0.0
H  H16  1  0.07642122  0.18531218  0.89919806  1  0.059239  0.007724  0.105885  0.090478  0.004037  0.958143  0.004
H  H17  1  0.92358640  0.81468670  0.10080470  1  0.05931  0.007725  0.105857  0.090419  0.004038  0.958167  0.004
H  H18  1  0.04479752  0.13765720  0.98895100  1  0.063857  0.000361  0.109726  0.0955  7.1e-05  1.008513  0.0
H  H19  1  0.95520829  0.86234441  0.01105151  1  0.063772  0.000361  0.109719  0.095523  7.1e-05  1.008433  0.0
H  H20  1  0.57440965  0.21480262  0.39537572  1  0.054529  0.00812  0.104887  0.089104  0.004236  0.959343  0.005
H  H21  1  0.42559877  0.78520171  0.60462907  1  0.054588  0.008119  0.104867  0.089063  0.004236  0.959351  0.005
H  H22  1  0.49640058  0.32231129  0.43923304  1  0.047312  0.000392  0.110337  0.094312  7.6e-05  1.006617  0.0
H  H23  1  0.50360581  0.67769213  0.56077274  1  0.047411  0.000392  0.110373  0.094331  7.6e-05  1.006637  0.0
H  H24  1  0.10454455  0.49034478  0.08292800  1  0.047323  0.000245  0.116957  0.115931  -2e-06  0.980067  0.0
H  H25  1  0.89545950  0.50965683  0.91707379  1  0.042185  0.000245  0.116951  0.11594  -2e-06  0.980119  0.0
H  H26  1  0.15808177  0.38993127  0.98652986  1  0.075481  0.0047  0.113996  0.117452  0.002454  0.975324  0.002
H  H27  1  0.84192726  0.61007214  0.01347626  1  0.075463  0.004701  0.113991  0.1175  0.002454  0.975251  0.002
H  H28  1  0.90575020  0.22291212  0.98230677  1  0.161503  -6.1e-05  0.119891  0.13253  -0.00021  1.035933  0.0
H  H29  1  0.09425208  0.77708676  0.01768345  1  0.161445  -6.1e-05  0.11988  0.132539  -0.00021  1.035845  0.0
H  H30  1  0.92141677  0.32420477  0.93376729  1  0.059646  0.003619  0.111139  0.108591  0.001892  0.970725  0.002
H  H31  1  0.07859186  0.67580318  0.06623478  1  0.059677  0.003619  0.111157  0.108599  0.001893  0.97073  0.002
H  H32  1  0.52306660  0.30662672  0.59711809  1  0.108136  -7.2e-05  0.11992  0.135482  -0.000234  1.020719  0.0
H  H33  1  0.47693955  0.69337307  0.40288522  1  0.108692  -7.2e-05  0.119942  0.135519  -0.000234  1.020683  0.0
H  H34  1  0.56642369  0.17416583  0.57482725  1  0.048962  0.003695  0.11079  0.108572  0.001918  0.972324  0.002
H  H35  1  0.43357986  0.82583124  0.42517452  1  0.048428  0.003697  0.110806  0.108618  0.001918  0.972305  0.002
H  H36  1  0.40536679  0.98701258  0.38542696  1  0.049907  0.000182  0.116971  0.115476  -5e-05  0.982341  0.0
H  H37  1  0.59464694  0.01298901  0.61457580  1  0.049772  0.000181  0.11696  0.115461  -5e-05  0.982277  0.0
H  H38  1  0.49653135  0.01438776  0.32626363  1  0.069132  0.005066  0.112789  0.118346  0.002635  0.979957  0.003
H  H39  1  0.50347384  0.98561475  0.67373384  1  0.069162  0.005067  0.112756  0.118325  0.002635  0.979913  0.003
H  H40  1  0.04961617  0.44355445  0.43207322  1  0.098039  0.002036  0.11512  0.08522  0.000895  1.036766  0.002
H  H41  1  0.95036893  0.55643993  0.56791982  1  0.098052  0.002036  0.115164  0.0853  0.000895  1.036768  0.002
H  H42  1  0.13491615  0.55094639  0.67550223  1  0.124861  0.00101  0.107689  0.120402  0.000628  1.026576  0.001
H  H43  1  0.86506621  0.44905343  0.32448994  1  0.124973  0.00101  0.107695  0.120466  0.000628  1.026408  0.001
H  H44  1  0.36432612  0.62216460  0.82438325  1  0.115769  0.000214  0.116337  0.111778  0.000103  1.032044  0.0
H  H45  1  0.63565549  0.37784430  0.17560974  1  0.116063  0.000214  0.116306  0.111687  0.000103  1.032082  0.0
H  H46  1  0.49905683  0.56791240  0.72568175  1  0.134431  0.001083  0.111827  0.126666  0.000582  1.015019  0.001
H  H47  1  0.50092832  0.43209650  0.27431564  1  0.134181  0.001083  0.111772  0.126539  0.000582  1.015143  0.001
H  H48  1  0.39799849  0.45724449  0.48299810  1  0.117542  0.002385  0.119485  0.094916  0.001112  1.01524  0.002
H  H49  1  0.60198801  0.54275442  0.51699904  1  0.11758  0.002385  0.119512  0.094965  0.001112  1.015133  0.002
H  H50  1  0.01590624  0.09408614  0.11184836  1  0.085948  0.002111  0.120608  0.093959  0.000922  1.015724  0.001
H  H51  1  0.98409869  0.90591547  0.88815305  1  0.085642  0.00211  0.120624  0.094013  0.000922  1.015723  0.001
H  H52  1  0.79966994  0.10378491  0.04636829  1  0.174952  0.000826  0.114546  0.133146  0.000443  1.024529  0.001
H  H53  1  0.20033325  0.89621670  0.95363538  1  0.17492  0.000826  0.114554  0.133199  0.000443  1.024482  0.001
H  H54  1  0.73634348  0.16842346  0.21387671  1  0.082345  0.00026  0.107783  0.101027  0.000125  1.009823  0.0
H  H55  1  0.26366613  0.83158178  0.78613417  1  0.082245  0.00026  0.107756  0.100958  0.000125  1.009881  0.0
H  H56  1  0.89312295  0.22049395  0.43983708  1  0.101526  0.000783  0.114339  0.120605  0.000427  0.978102  0.0
H  H57  1  0.10688974  0.77950130  0.56016906  1  0.101646  0.000784  0.114339  0.120603  0.000427  0.978086  0.0
H  H58  1  0.10667451  0.20615886  0.48787171  1  0.120895  0.001655  0.122757  0.106729  0.000719  0.994055  0.002
H  H59  1  0.89333579  0.79383729  0.51212942  1  0.120695  0.001655  0.122719  0.106628  0.000719  0.994086  0.002
H  H60  1  0.61754473  0.70948791  0.12077331  1  0.108836  -2.3e-05  0.111268  0.089036  -6.4e-05  0.992492  0.0
H  H61  1  0.38243977  0.29050465  0.87921275  1  0.108721  -2.3e-05  0.111249  0.088968  -6.4e-05  0.992397  0.0
H  H62  1  0.60646172  0.58692361  0.97481022  1  0.070061  8.9e-05  0.101109  0.075868  4.4e-05  1.019366  0.0
H  H63  1  0.39352309  0.41306712  0.02517366  1  0.070426  8.9e-05  0.101069  0.075738  4.4e-05  1.019478  0.0
H  H64  1  0.28458182  0.44772416  0.84446950  1  0.091514  -1.4e-05  0.111967  0.097286  -5.3e-05  0.992804  0.0
H  H65  1  0.71540180  0.55226839  0.15551546  1  0.091428  -1.4e-05  0.111996  0.097257  -5.3e-05  0.992706  0.0
H  H66  1  0.40877268  0.42923997  0.81166403  1  0.03508  -2.4e-05  0.103307  0.073868  -5.7e-05  1.002621  0.0
H  H67  1  0.59120949  0.57075078  0.18831952  1  0.034751  -2.4e-05  0.103313  0.073764  -5.7e-05  1.002675  0.0
C  C68  1  0.29503269  0.21457715  0.18370903  1  0.598033  -0.003749  0.070487  0.240136  -0.003806  4.074329  -0.005
C  C69  1  0.70497575  0.78542717  0.81629948  1  0.597323  -0.003747  0.070519  0.240282  -0.003806  4.07408  -0.005
C  C70  1  0.23745303  0.19921375  0.05889404  1  -0.008135  0.019754  -0.036582  -0.027822  0.012686  3.992219  0.013
C  C71  1  0.76255160  0.80078968  0.94111177  1  -0.007598  0.019752  -0.036601  -0.027957  0.012687  3.99239  0.013
C  C72  1  0.29791680  0.16866272  0.98862853  1  -0.067552  -0.00431  -0.096035  -0.185892  -0.004858  3.994389  -0.004
C  C73  1  0.70208931  0.83133979  0.01137748  1  -0.067536  -0.00431  -0.096036  -0.185851  -0.004859  3.994335  -0.004
C  C74  1  0.41379360  0.14961576  0.03556342  1  0.04904  0.01907  -0.028178  0.142471  0.012398  4.023524  0.012
C  C75  1  0.58621311  0.85038584  0.96444093  1  0.049617  0.019071  -0.0282  0.142419  0.012399  4.023466  0.012
C  C76  1  0.47859446  0.12050000  0.95973045  1  -0.090932  0.000376  -0.240905  -0.418141  0.000265  3.968387  0.0
C  C77  1  0.52140849  0.87949798  0.04027148  1  -0.091271  0.000377  -0.240903  -0.418174  0.000265  3.968329  0.0
C  C78  1  0.46803199  0.16319451  0.15806603  1  -0.08969  -0.00418  -0.095649  -0.185153  -0.004757  4.00089  -0.003
C  C79  1  0.53197295  0.83680709  0.84193687  1  -0.089646  -0.004181  -0.095619  -0.185068  -0.004758  4.000969  -0.003
C  C80  1  0.41262022  0.19698078  0.23343585  1  -0.008624  0.020478  -0.034964  -0.024962  0.013178  3.989542  0.014
C  C81  1  0.58738793  0.80302264  0.76657064  1  -0.008574  0.020478  -0.035093  -0.025179  0.013178  3.989549  0.014
C  C82  1  0.10823771  0.20630134  0.99881528  1  0.238512  0.000146  -0.064914  -0.092542  -7e-05  3.896065  -0.002
C  C83  1  0.89176579  0.79369845  0.00118547  1  0.238464  0.000146  -0.064864  -0.092487  -7e-05  3.895989  -0.002
C  C84  1  0.48181495  0.22657237  0.37107110  1  0.252867  0.000438  -0.063952  -0.091542  0.000204  3.896572  -0.002
C  C85  1  0.51819087  0.77342924  0.62893216  1  0.252538  0.000438  -0.06392  -0.091449  0.000204  3.896431  -0.002
C  C86  1  0.15686068  0.42427678  0.07742321  1  0.223127  0.000166  -0.076084  -0.239563  0.000225  3.877147  -0.002
C  C87  1  0.84314366  0.57572573  0.92257911  1  0.228149  0.000167  -0.076055  -0.239596  0.000224  3.877159  -0.002
C  C88  1  0.28866517  0.49687796  0.19571270  1  1.626485  0.00209  0.19436  0.607438  0.001478  4.23394  0.002
C  C89  1  0.71133887  0.50312637  0.80429402  1  1.626073  0.00209  0.194424  0.607421  0.001478  4.234264  0.002
C  C90  1  0.95786927  0.31401058  0.01824144  1  0.185856  -0.000296  -0.080907  -0.266111  -0.00064  3.912726  -0.002
C  C91  1  0.04213508  0.68598921  0.98175596  1  0.186069  -0.000296  -0.080933  -0.266183  -0.00064  3.912685  -0.002
C  C92  1  0.93189642  0.40426735  0.12111526  1  1.589915  -0.000562  0.197888  0.611698  -0.000359  4.198448  -0.001
C  C93  1  0.06810158  0.59572609  0.87887965  1  1.58963  -0.00056  0.197851  0.611578  -0.000359  4.198335  -0.001
C  C94  1  0.48624238  0.20729959  0.54386302  1  0.249245  -0.000127  -0.080187  -0.262636  -0.00048  3.907753  -0.002
C  C95  1  0.51376172  0.79269929  0.45613905  1  0.24904  -0.000127  -0.08018  -0.262691  -0.000479  3.90766  -0.002
C  C96  1  0.39983096  0.18176280  0.58632781  1  1.568489  -0.000774  0.197329  0.609832  -0.000578  4.200841  -0.001
C  C97  1  0.60017314  0.81823608  0.41367277  1  1.568653  -0.000775  0.197347  0.609935  -0.000579  4.200814  -0.001
C  C98  1  0.41216216  0.02526705  0.33025948  1  0.25951  -4.3e-05  -0.077595  -0.244295  7e-06  3.886146  -0.002
C  C99  1  0.58784718  0.97473455  0.66974446  1  0.259729  -4.3e-05  -0.077534  -0.244217  7e-06  3.886085  -0.002
C  C100  1  0.29729133  0.94827767  0.19266636  1  1.620965  0.001792  0.195981  0.609303  0.001293  4.221822  0.002
C  C101  1  0.70271330  0.05172575  0.80733945  1  1.620988  0.001792  0.19596  0.60921  0.001293  4.221969  0.002
C  C102  1  0.14806547  0.47354847  0.50222142  1  0.377384  -0.000833  0.042111  0.082606  -0.001373  3.944944  -0.001
C  C103  1  0.85191898  0.52644953  0.49777152  1  0.377809  -0.000833  0.042161  0.082723  -0.001373  3.944951  -0.001
C  C104  1  0.19608188  0.53470621  0.63618957  1  0.041912  0.005028  -0.083966  -0.134347  0.003567  3.95974  0.004
C  C105  1  0.80389836  0.46529815  0.36380527  1  0.041418  0.005028  -0.084057  -0.134562  0.003567  3.960025  0.004
C  C106  1  0.32384641  0.57278371  0.71902434  1  -0.039646  -0.003677  -0.060624  -0.02166  -0.004061  3.935001  -0.002
C  C107  1  0.67613462  0.42722610  0.28097253  1  -0.038809  -0.003678  -0.060576  -0.02161  -0.004061  3.935261  -0.002
C  C108  1  0.39918819  0.54351130  0.66547334  1  0.00241  0.005085  -0.077002  -0.11146  0.003494  3.936373  0.004
C  C109  1  0.60079319  0.45649397  0.33451941  1  0.001723  0.005085  -0.076985  -0.111199  0.003494  3.936359  0.004
C  C110  1  0.34433224  0.48104679  0.53075800  1  0.410412  -0.001201  0.045488  0.081986  -0.001605  3.928891  0.0
C  C111  1  0.65565277  0.51895302  0.46923673  1  0.410225  -0.001201  0.045491  0.081838  -0.001605  3.92861  0.0
C  C112  1  0.98397891  0.12193501  0.18074991  1  0.48821  -0.001511  0.045691  0.076879  -0.001821  3.932418  0.0
C  C113  1  0.01602724  0.87806478  0.81925340  1  0.489157  -0.001514  0.04567  0.076835  -0.001821  3.93249  0.0
C  C114  1  0.86362007  0.12625850  0.14499498  1  -0.033739  0.004725  -0.07421  -0.105575  0.003163  3.922998  0.004
C  C115  1  0.13638492  0.87374039  0.85500894  1  -0.033913  0.004724  -0.074219  -0.105684  0.003162  3.923103  0.004
C  C116  1  0.82949795  0.16252572  0.23863846  1  -0.064844  -0.00343  -0.06239  -0.023969  -0.003763  3.954573  -0.002
C  C117  1  0.17051026  0.83747498  0.76136906  1  -0.064724  -0.00343  -0.062359  -0.02383  -0.003763  3.954532  -0.002
C  C118  1  0.91595703  0.19134001  0.36370838  1  -0.014474  0.004859  -0.082061  -0.133535  0.003377  3.98742  0.004
C  C119  1  0.08405209  0.80865796  0.63629754  1  -0.014361  0.004857  -0.082126  -0.133655  0.003377  3.987359  0.004
C  C120  1  0.03477946  0.18470956  0.39216153  1  0.46006  -0.000965  0.047546  0.084709  -0.001288  3.927518  -0.001
C  C121  1  0.96522849  0.81528750  0.60783980  1  0.459952  -0.000964  0.047635  0.084909  -0.001288  3.927417  -0.001
C  C122  1  0.57766629  0.61180245  0.04709905  1  0.355338  5.7e-05  -0.079656  -0.025518  3.7e-05  3.914021  0.0
C  C123  1  0.42231589  0.38818829  0.95288525  1  0.35523  5.7e-05  -0.079549  -0.025119  3.7e-05  3.913515  0.0
C  C124  1  0.38409835  0.45889748  0.88753098  1  0.395166  -3.5e-05  -0.079085  -0.026132  -5.8e-05  3.909562  0.0
C  C125  1  0.61588465  0.54109598  0.11245192  1  0.396024  -3.5e-05  -0.079104  -0.025852  -5.8e-05  3.909592  0.0
N  N126  1  0.09104027  0.32490538  0.07363049  1  -0.985281  0.106953  -0.350275  -0.051613  0.070671  3.537316  0.092
N  N127  1  0.90896351  0.67509532  0.92637078  1  -0.985307  0.106959  -0.350293  -0.051622  0.070674  3.537432  0.092
N  N128  1  0.42038302  0.15517279  0.40150241  1  -0.996856  0.111875  -0.348998  -0.052677  0.07396  3.542846  0.096
N  N129  1  0.57962455  0.84482881  0.59850007  1  -0.996408  0.111876  -0.349075  -0.05273  0.073962  3.542829  0.096
N  N130  1  0.22116620  0.44872886  0.45088390  1  -1.217358  0.076977  -0.360278  -0.229877  0.051639  3.65837  0.065
N  N131  1  0.77882035  0.55126733  0.54911352  1  -1.217518  0.076973  -0.360299  -0.229955  0.051636  3.658067  0.065
N  N132  1  0.06830217  0.15148657  0.30219932  1  -1.237707  0.072598  -0.35266  -0.227564  0.048936  3.633304  0.062
N  N133  1  0.93170341  0.84851140  0.69780220  1  -1.238111  0.072596  -0.352642  -0.227558  0.048934  3.633296  0.062
O  O134  1  0.23930389  0.24504327  0.25348738  1  -1.128008  0.115254  -0.363429  -0.567739  0.075886  2.604028  0.108
O  O135  1  0.76070538  0.75496378  0.74652046  1  -1.127949  0.115261  -0.363408  -0.567762  0.075889  2.603916  0.108
O  O136  1  0.31862502  0.49192674  0.29630524  1  -1.17727  0.012813  -0.34439  -0.584447  0.008263  2.240172  0.012
O  O137  1  0.68137310  0.50808123  0.70370220  1  -1.177149  0.012818  -0.344424  -0.584413  0.008267  2.240292  0.012
O  O138  1  0.01372941  0.44342057  0.24141091  1  -1.124438  0.100445  -0.343683  -0.567847  0.06441  2.299648  0.092
O  O139  1  0.98626657  0.55657197  0.75858500  1  -1.124168  0.100429  -0.343662  -0.567833  0.064402  2.299605  0.092
O  O140  1  0.35572554  0.56037788  0.18545821  1  -1.222165  0.006514  -0.40324  -0.629092  0.004083  2.192013  0.005
O  O141  1  0.64428351  0.43962554  0.81455087  1  -1.221823  0.006516  -0.403271  -0.629123  0.004085  2.192225  0.005
O  O142  1  0.83441365  0.43218891  0.08658521  1  -1.195339  0.023166  -0.366938  -0.577467  0.014679  2.146031  0.019
O  O143  1  0.16558155  0.56779819  0.91341015  1  -1.195402  0.023163  -0.366919  -0.577376  0.014677  2.145931  0.019
O  O144  1  0.28283602  0.15531384  0.50665347  1  -1.113384  0.107806  -0.34148  -0.5591  0.069069  2.288345  0.099
O  O145  1  0.71716892  0.84468776  0.49334943  1  -1.113542  0.107811  -0.341525  -0.559163  0.069072  2.288297  0.099
O  O146  1  0.20122470  0.98407194  0.17129421  1  -1.179175  0.014175  -0.344528  -0.58356  0.009168  2.241156  0.014
O  O147  1  0.79878169  0.01593149  0.82871231  1  -1.179216  0.014173  -0.344528  -0.583564  0.009167  2.241066  0.014
O  O148  1  0.44372675  0.19117981  0.69387184  1  -1.183507  0.025238  -0.371615  -0.582141  0.015971  2.135216  0.02
O  O149  1  0.55627684  0.80881454  0.30612797  1  -1.183516  0.025238  -0.371594  -0.58217  0.015971  2.135277  0.02
O  O150  1  0.30407986  0.85196754  0.11253597  1  -1.226277  0.006766  -0.401171  -0.615496  0.00422  2.164823  0.005
O  O151  1  0.69592019  0.14802954  0.88746883  1  -1.226305  0.006764  -0.401164  -0.615444  0.004219  2.164903  0.005
O  O152  1  0.44516696  0.58731960  0.98229507  1  -1.048059  0.000286  -0.295425  -0.279105  0.000131  2.506855  0.0
O  O153  1  0.55481869  0.41267386  0.01768964  1  -1.048144  0.000286  -0.295578  -0.279342  0.000131  2.506738  0.0
