# generated using pymatgen
data_MnH12C20(N3O4)2
_symmetry_space_group_name_H-M   'P 1'
_cell_length_a   9.61744711
_cell_length_b   10.97951345
_cell_length_c   10.97951581
_cell_angle_alpha   69.94992111
_cell_angle_beta   71.80699424
_cell_angle_gamma   71.80708007
_symmetry_Int_Tables_number   1
_chemical_formula_structural   MnH12C20(N3O4)2
_chemical_formula_sum   'Mn2 H24 C40 N12 O16'
_cell_volume   1006.95397145
_cell_formula_units_Z   2
loop_
 _symmetry_equiv_pos_site_id
 _symmetry_equiv_pos_as_xyz
  1  'x, y, z'
loop_
 _atom_site_type_symbol
 _atom_site_label
 _atom_site_symmetry_multiplicity
 _atom_site_fract_x
 _atom_site_fract_y
 _atom_site_fract_z
 _atom_site_occupancy
 _atom_site_pbe_bader_charge
 _atom_site_pbe_bader_spin_density
 _atom_site_pbe_cm5_charge
 _atom_site_pbe_ddec_charge
 _atom_site_pbe_ddec_spin_density
 _atom_site_pbe_ddec_sum_bond_order
 _atom_site_pbe_magmom
Mn  Mn0  1  0.74999850  0.04769657  0.95230394  1  1.553913  4.507089  0.618903  0.951723  4.637184  2.476214  4.448
Mn  Mn1  1  0.24999907  0.95230842  0.04769108  1  1.553539  4.507195  0.6189  0.951737  4.637232  2.476081  4.448
H  H2  1  0.36219947  0.87092780  0.73725175  1  0.144132  0.000132  0.10939  0.114309  -0.000332  1.038754  0.0
H  H3  1  0.13780046  0.26274518  0.12907296  1  0.144122  0.000132  0.109382  0.114291  -0.000332  1.038745  0.0
H  H4  1  0.63780236  0.12906920  0.26274935  1  0.144104  0.000132  0.1094  0.114299  -0.000332  1.03883  0.0
H  H5  1  0.86219648  0.73725380  0.87092972  1  0.144089  0.000132  0.109394  0.114284  -0.000332  1.038801  0.0
H  H6  1  0.81088043  0.92625981  0.63876218  1  0.101627  0.000205  0.114872  0.122309  -0.000186  1.006731  0.0
H  H7  1  0.68911922  0.36123707  0.07374149  1  0.101551  0.000205  0.114872  0.122362  -0.000186  1.006712  0.0
H  H8  1  0.18912063  0.07374019  0.36123631  1  0.101624  0.000205  0.114851  0.122281  -0.000186  1.006744  0.0
H  H9  1  0.31087803  0.63876489  0.92626101  1  0.10162  0.000205  0.114864  0.122329  -0.000186  1.006715  0.0
H  H10  1  0.67509165  0.78395381  0.38193317  1  0.117599  0.00019  0.116096  0.132389  -1.3e-05  0.992911  0.0
H  H11  1  0.82490977  0.61806480  0.21604626  1  0.117702  0.000189  0.116122  0.132402  -1.3e-05  0.992927  0.0
H  H12  1  0.32490910  0.21604320  0.61806733  1  0.117499  0.00019  0.116097  0.132403  -1.3e-05  0.992925  0.0
H  H13  1  0.17508936  0.38193418  0.78395674  1  0.117606  0.000189  0.116104  0.132391  -1.3e-05  0.992942  0.0
H  H14  1  0.04528528  0.76230275  0.56423441  1  0.177714  0.000529  0.144636  0.125474  0.000361  1.010112  0.0
H  H15  1  0.45471595  0.43576486  0.23769723  1  0.177718  0.000529  0.144634  0.125466  0.000361  1.010105  0.0
H  H16  1  0.95471578  0.23769726  0.43576317  1  0.177672  0.000529  0.144617  0.125483  0.000361  1.010159  0.0
H  H17  1  0.54528484  0.56423612  0.76230282  1  0.177689  0.000529  0.144624  0.125492  0.000361  1.010125  0.0
H  H18  1  0.86869548  0.93721327  0.21736747  1  0.225215  -4.3e-05  0.15514  0.135393  -0.00048  1.002075  0.0
H  H19  1  0.63130604  0.78263064  0.06278711  1  0.225161  -4.3e-05  0.155139  0.135391  -0.00048  1.002069  0.0
H  H20  1  0.13130448  0.06278673  0.78263040  1  0.225187  -4.3e-05  0.155147  0.135415  -0.00048  1.00205  0.0
H  H21  1  0.36869367  0.21737034  0.93721323  1  0.225178  -4.3e-05  0.155146  0.135392  -0.00048  1.002061  0.0
H  H22  1  0.31920425  0.78276231  0.38127436  1  0.649054  6.2e-05  0.296486  0.308745  -4.8e-05  1.043596  0.0
H  H23  1  0.18079557  0.61872593  0.21723786  1  0.649061  6.2e-05  0.296492  0.308755  -4.8e-05  1.043588  0.0
H  H24  1  0.68079681  0.21723769  0.61872504  1  0.649045  6.2e-05  0.296501  0.308753  -4.8e-05  1.043609  0.0
H  H25  1  0.81920549  0.38127406  0.78276154  1  0.649055  6.2e-05  0.296472  0.308731  -4.8e-05  1.043642  0.0
C  C26  1  0.47456366  0.86473707  0.67214548  1  -0.039967  0.006068  -0.06872  -0.101113  0.004546  3.898991  0.004
C  C27  1  0.02543499  0.32785301  0.13526617  1  -0.039954  0.006067  -0.068692  -0.101039  0.004545  3.898936  0.004
C  C28  1  0.52543760  0.13525795  0.32785555  1  -0.039907  0.006068  -0.068732  -0.101091  0.004546  3.899067  0.004
C  C29  1  0.97456086  0.67214595  0.86474047  1  -0.039845  0.006068  -0.068706  -0.101032  0.004546  3.899064  0.004
C  C30  1  0.58382898  0.90247149  0.70110221  1  0.016095  0.002072  -0.010151  -0.009382  0.000833  3.95417  0.0
C  C31  1  0.91617160  0.29889575  0.09753091  1  0.016073  0.002072  -0.010088  -0.009329  0.000834  3.954252  0.0
C  C32  1  0.41617234  0.09752751  0.29889655  1  0.01605  0.002072  -0.010088  -0.009359  0.000833  3.954317  0.0
C  C33  1  0.08382617  0.70110423  0.90247212  1  0.016171  0.002071  -0.010092  -0.009377  0.000833  3.954315  0.0
C  C34  1  0.72708556  0.89431685  0.61685717  1  0.016906  0.007511  -0.069991  -0.150759  0.005666  3.922815  0.005
C  C35  1  0.77291336  0.38313941  0.10568642  1  0.016918  0.007511  -0.070066  -0.150934  0.005666  3.923061  0.005
C  C36  1  0.27291576  0.10568215  0.38314158  1  0.016964  0.007511  -0.070045  -0.150792  0.005666  3.922956  0.005
C  C37  1  0.22708359  0.61685956  0.89431809  1  0.017421  0.007512  -0.070049  -0.150854  0.005666  3.922963  0.005
C  C38  1  0.75885376  0.85089276  0.50374277  1  0.260498  -0.00062  0.094674  0.164296  -0.000897  4.018943  -0.001
C  C39  1  0.74114654  0.49625559  0.14910760  1  0.260557  -0.00062  0.094683  0.164287  -0.000897  4.019004  -0.001
C  C40  1  0.24114782  0.14910524  0.49625716  1  0.260451  -0.00062  0.094679  0.164339  -0.000897  4.01899  -0.001
C  C41  1  0.25885123  0.50374439  0.85089544  1  0.259995  -0.00062  0.094639  0.164299  -0.000897  4.019094  -0.001
C  C42  1  0.65079204  0.81445542  0.47230556  1  0.021536  0.008027  -0.072195  -0.156132  0.00633  3.909887  0.005
C  C43  1  0.84920679  0.52769162  0.18554772  1  0.021546  0.008027  -0.072169  -0.156069  0.00633  3.90989  0.005
C  C44  1  0.34920844  0.18554258  0.52769467  1  0.021672  0.008027  -0.072185  -0.156154  0.00633  3.909957  0.005
C  C45  1  0.15079125  0.47230735  0.81445740  1  0.021692  0.008028  -0.072134  -0.156032  0.006331  3.910008  0.005
C  C46  1  0.50753084  0.82144909  0.55811865  1  -0.018847  -0.00088  -0.018511  -0.041206  -0.001085  4.001639  -0.001
C  C47  1  0.99246918  0.44187967  0.17855345  1  -0.018866  -0.00088  -0.018514  -0.041191  -0.001084  4.00164  -0.001
C  C48  1  0.49247017  0.17854691  0.44188302  1  -0.018381  -0.00088  -0.018508  -0.041181  -0.001085  4.001642  -0.001
C  C49  1  0.00752911  0.55811830  0.82145285  1  -0.018903  -0.00088  -0.018536  -0.041255  -0.001084  4.001731  -0.001
C  C50  1  0.03653362  0.80448942  0.46130628  1  0.995286  0.001843  0.165212  0.093186  0.001418  3.878927  0.001
C  C51  1  0.46346744  0.53869299  0.19551104  1  0.995372  0.001843  0.165228  0.093217  0.001418  3.878942  0.001
C  C52  1  0.96346718  0.19551158  0.53869103  1  0.995387  0.001843  0.165202  0.09315  0.001418  3.879026  0.001
C  C53  1  0.53653226  0.46130800  0.80448839  1  0.995388  0.001843  0.165187  0.093158  0.001418  3.879007  0.001
C  C54  1  0.94611026  0.89434043  0.28304176  1  0.965067  0.008911  0.182574  0.125295  0.006845  3.803753  0.007
C  C55  1  0.55389184  0.71695751  0.10565924  1  0.965086  0.008911  0.1826  0.125367  0.006845  3.803721  0.007
C  C56  1  0.05388970  0.10565957  0.71695703  1  0.965195  0.008911  0.182579  0.125377  0.006846  3.803746  0.007
C  C57  1  0.44610761  0.28304448  0.89433992  1  0.9652  0.008912  0.182594  0.1254  0.006846  3.803759  0.007
C  C58  1  0.54854302  0.95804357  0.81768534  1  1.592956  0.028854  0.226208  0.597566  0.027326  4.177939  0.025
C  C59  1  0.95145865  0.18231259  0.04195848  1  1.592966  0.028853  0.226214  0.597628  0.027325  4.177964  0.025
C  C60  1  0.45145752  0.04195843  0.18231170  1  1.592947  0.028855  0.226209  0.597594  0.027327  4.178054  0.025
C  C61  1  0.04854298  0.81768940  0.95804009  1  1.592658  0.028859  0.226231  0.597662  0.027327  4.178045  0.025
C  C62  1  0.38255568  0.79465438  0.52541771  1  1.527822  0.00016  0.220671  0.564845  0.000143  4.14762  0.0
C  C63  1  0.11744190  0.47458298  0.20534602  1  1.527795  0.00016  0.220686  0.564852  0.000143  4.147664  0.0
C  C64  1  0.61744235  0.20534460  0.47458467  1  1.52731  0.00016  0.220683  0.56488  0.000143  4.147566  0.0
C  C65  1  0.88255723  0.52541601  0.79465515  1  1.527737  0.00016  0.220669  0.564842  0.000143  4.147659  0.0
N  N66  1  0.90570403  0.84714536  0.41877972  1  -1.258523  0.00302  -0.210355  -0.009174  0.001676  3.764764  0.002
N  N67  1  0.59429645  0.58121837  0.15285665  1  -1.258649  0.00302  -0.210404  -0.009245  0.001676  3.764765  0.002
N  N68  1  0.09429594  0.15285465  0.58121815  1  -1.258654  0.00302  -0.210351  -0.009278  0.001676  3.764871  0.002
N  N69  1  0.40570326  0.41878260  0.84714552  1  -1.258675  0.00302  -0.210392  -0.009367  0.001676  3.765012  0.002
N  N70  1  0.15007507  0.82417333  0.35822530  1  -0.7683  0.004052  -0.206919  -0.174905  0.002049  3.365982  0.003
N  N71  1  0.34992692  0.64177360  0.17582553  1  -0.768067  0.004051  -0.206927  -0.174867  0.002049  3.365978  0.003
N  N72  1  0.84992573  0.17582768  0.64177201  1  -0.768125  0.004052  -0.206895  -0.174838  0.002049  3.365961  0.003
N  N73  1  0.65007387  0.35822740  0.82417178  1  -0.768296  0.004052  -0.206871  -0.174817  0.002049  3.365908  0.003
N  N74  1  0.09337979  0.88150866  0.24562820  1  -0.756447  0.04526  -0.213912  -0.185668  0.032778  3.397996  0.015
N  N75  1  0.40662244  0.75437147  0.11849118  1  -0.75642  0.045259  -0.21392  -0.185751  0.032777  3.397989  0.015
N  N76  1  0.90662075  0.11849333  0.75436976  1  -0.75648  0.045261  -0.213921  -0.185739  0.032779  3.398025  0.015
N  N77  1  0.59337701  0.24563052  0.88150616  1  -0.75645  0.045261  -0.213931  -0.185722  0.032779  3.398003  0.015
O  O78  1  0.41044076  0.00306172  0.86662923  1  -1.208342  0.061972  -0.31622  -0.566365  0.043432  2.330051  0.026
O  O79  1  0.08955949  0.13336819  0.99694265  1  -1.208363  0.061974  -0.316188  -0.566346  0.043434  2.330135  0.026
O  O80  1  0.58956067  0.99694527  0.13336406  1  -1.208318  0.061967  -0.316213  -0.566356  0.043432  2.330161  0.026
O  O81  1  0.91043808  0.86663680  0.00305419  1  -1.20816  0.061965  -0.316241  -0.566419  0.043433  2.330108  0.026
O  O82  1  0.66085641  0.95614657  0.85660169  1  -1.199126  0.068469  -0.308857  -0.571004  0.0509  2.358928  0.036
O  O83  1  0.83914700  0.14339682  0.04385175  1  -1.199114  0.068469  -0.308888  -0.571067  0.050901  2.358932  0.036
O  O84  1  0.33914439  0.04385443  0.14339654  1  -1.199132  0.068468  -0.308866  -0.571032  0.050901  2.358924  0.036
O  O85  1  0.16085489  0.85660419  0.95614526  1  -1.198704  0.068378  -0.308862  -0.57104  0.050901  2.359002  0.036
O  O86  1  0.25592706  0.80103148  0.59999194  1  -1.161253  0.000351  -0.298344  -0.508278  0.000196  2.164709  0.0
O  O87  1  0.24407416  0.40000749  0.19896943  1  -1.161234  0.000351  -0.298386  -0.508324  0.000196  2.164564  0.0
O  O88  1  0.74407207  0.19896751  0.40000923  1  -1.161194  0.000351  -0.298346  -0.508322  0.000196  2.164616  0.0
O  O89  1  0.75592742  0.59999052  0.80103050  1  -1.161226  0.000351  -0.298315  -0.508255  0.000196  2.164677  0.0
O  O90  1  0.41880908  0.76926104  0.40721876  1  -1.177816  0.000307  -0.341239  -0.485685  -6.7e-05  2.340961  0.0
O  O91  1  0.08119026  0.59278005  0.23073922  1  -1.177808  0.000307  -0.341252  -0.485712  -6.7e-05  2.341057  0.0
O  O92  1  0.58119005  0.23073795  0.59278333  1  -1.177826  0.000307  -0.341271  -0.485699  -6.7e-05  2.341013  0.0
O  O93  1  0.91881158  0.40721695  0.76926098  1  -1.177824  0.000307  -0.341245  -0.485689  -6.7e-05  2.341024  0.0
