# generated using pymatgen
data_Ni2H68C64N8O11
_symmetry_space_group_name_H-M   'P 1'
_cell_length_a   13.66323649
_cell_length_b   13.97046427
_cell_length_c   19.07357697
_cell_angle_alpha   67.38533804
_cell_angle_beta   74.94084026
_cell_angle_gamma   83.56267864
_symmetry_Int_Tables_number   1
_chemical_formula_structural   Ni2H68C64N8O11
_chemical_formula_sum   'Ni4 H136 C128 N16 O22'
_cell_volume   3245.14072126
_cell_formula_units_Z   2
loop_
 _symmetry_equiv_pos_site_id
 _symmetry_equiv_pos_as_xyz
  1  'x, y, z'
loop_
 _atom_site_type_symbol
 _atom_site_label
 _atom_site_symmetry_multiplicity
 _atom_site_fract_x
 _atom_site_fract_y
 _atom_site_fract_z
 _atom_site_occupancy
 _atom_site_pbe_bader_charge
 _atom_site_pbe_bader_spin_density
 _atom_site_pbe_cm5_charge
 _atom_site_pbe_ddec_charge
 _atom_site_pbe_ddec_spin_density
 _atom_site_pbe_ddec_sum_bond_order
 _atom_site_pbe_magmom
Ni  Ni0  1  0.41220711  0.63793842  0.20468427  1  0.938486  0.00014  0.603696  0.555506  0.000159  2.808913  0.0
Ni  Ni1  1  0.58358947  0.37229217  0.78463108  1  1.144396  1.558568  0.630003  0.776811  1.797341  2.460758  1.545
Ni  Ni2  1  0.18560774  0.87277510  0.60693628  1  1.128277  -1.544326  0.638023  0.739719  -1.829105  2.486061  -1.528
Ni  Ni3  1  0.82823771  0.12789730  0.38972668  1  1.127753  1.543775  0.637472  0.73675  1.777191  2.480587  1.528
H  H4  1  0.37204144  0.42135987  0.33883027  1  0.643941  0.0  0.272454  0.365678  1e-06  0.990378  0.0
H  H5  1  0.61948444  0.55723039  0.70213917  1  0.632051  -7.2e-05  0.277477  0.364649  0.000199  0.994553  0.0
H  H6  1  0.37170518  0.48277402  0.39115625  1  0.616436  -2e-06  0.302011  0.378763  -2e-06  0.917994  0.0
H  H7  1  0.56913058  0.50678900  0.65784429  1  0.59416  9.9e-05  0.31154  0.380206  0.00043  0.906197  0.0
H  H8  1  0.60270903  0.47575043  0.21211421  1  0.068568  -2e-06  0.109824  0.118681  -0.0  1.01233  0.0
H  H9  1  0.39248756  0.52190007  0.79936456  1  0.100128  -4e-06  0.107078  0.124408  -9.2e-05  1.022651  0.0
H  H10  1  0.69703257  0.54029091  0.92372238  1  0.07282  -3.1e-05  0.112239  0.1253  -2.3e-05  0.992447  0.0
H  H11  1  0.31395558  0.44606149  0.08913501  1  0.087871  0.000383  0.110501  0.124723  0.000169  0.993185  0.0
H  H12  1  0.80837894  0.43314740  0.01055804  1  0.07444  -2e-06  0.102913  0.101924  -2e-06  1.00942  0.0
H  H13  1  0.19762346  0.55633754  0.00785885  1  0.064739  -1.7e-05  0.10047  0.099303  -7e-06  1.011495  0.0
H  H14  1  0.76185990  0.39875544  0.15243150  1  0.087137  8.9e-05  0.104255  0.106841  6e-05  1.010027  0.0
H  H15  1  0.23654767  0.59668285  0.86533987  1  0.071231  -8.8e-05  0.101183  0.1028  -5.3e-05  1.011746  0.0
H  H16  1  0.32042072  0.73993459  0.08723183  1  0.147987  -1e-06  0.110708  0.180933  -0.0  1.028496  0.0
H  H17  1  0.69192069  0.27330928  0.90282035  1  0.134004  -0.000298  0.111022  0.17898  -0.000188  1.013288  0.0
H  H18  1  0.28855113  0.66450351  0.03897484  1  0.050217  -7e-06  0.100476  0.147803  -4e-06  1.019884  0.0
H  H19  1  0.71152349  0.32116559  0.97259322  1  0.051324  -0.000232  0.098183  0.141077  -9.3e-05  1.018553  0.0
H  H20  1  0.36170572  0.77765843  0.98333790  1  0.039267  0.0  0.102121  0.148654  1e-06  1.002183  0.0
H  H21  1  0.64286057  0.20541533  0.00518739  1  0.056195  -0.000374  0.101509  0.146411  -0.000153  0.996825  0.0
H  H22  1  0.42551295  0.66968512  0.90663794  1  0.051041  -2e-06  0.107301  0.084883  -1e-06  1.011519  0.0
H  H23  1  0.58732446  0.31422619  0.09527181  1  0.05274  5e-06  0.105486  0.081132  1e-06  1.010778  0.0
H  H24  1  0.54875364  0.62299567  0.87949558  1  0.063533  -1.4e-05  0.115631  0.097785  -1.5e-05  0.977884  0.0
H  H25  1  0.46699813  0.36439317  0.12596361  1  0.087048  0.000172  0.112858  0.093301  8.1e-05  0.988684  0.0
H  H26  1  0.50585259  0.83199357  0.90157272  1  -0.003515  -2e-06  0.092792  0.088672  -2e-06  0.997003  0.0
H  H27  1  0.50099038  0.15472010  0.10451702  1  0.019156  -1e-06  0.091988  0.088539  -3e-06  0.98788  0.0
H  H28  1  0.62444928  0.78573410  0.86383689  1  0.047265  -1e-06  0.093118  0.093581  -0.0  1.020179  0.0
H  H29  1  0.38366170  0.20535553  0.14075655  1  0.04019  -3e-06  0.09362  0.095369  -3e-06  1.017197  0.0
H  H30  1  0.44268753  0.85366151  0.78800280  1  -0.005915  5e-06  0.086299  0.080136  4e-06  0.989807  0.0
H  H31  1  0.56367220  0.13410120  0.21852358  1  0.021105  -1e-05  0.084106  0.077338  -8e-06  0.994732  0.0
H  H32  1  0.56109530  0.91399793  0.75666347  1  0.049481  -5e-06  0.090111  0.087204  -1.5e-05  0.995941  0.0
H  H33  1  0.44343123  0.07700979  0.25006827  1  0.046  1.8e-05  0.089479  0.085731  1.6e-05  0.999837  0.0
H  H34  1  0.51553210  0.70696035  0.75105689  1  0.016675  6.3e-05  0.091501  0.090774  2.5e-05  0.996728  0.0
H  H35  1  0.49338238  0.28621005  0.25007243  1  0.009829  1.3e-05  0.089677  0.084953  6e-06  1.000653  0.0
H  H36  1  0.63974862  0.74042483  0.73991210  1  0.050379  -7.3e-05  0.092522  0.095801  -4.1e-05  1.018856  0.0
H  H37  1  0.36867437  0.25237062  0.26350859  1  0.055483  6.4e-05  0.093331  0.098304  3.3e-05  1.014853  0.0
H  H38  1  0.63244493  0.89625594  0.62374384  1  0.078059  -0.000287  0.114088  0.096357  -0.000144  0.988172  0.0
H  H39  1  0.37646588  0.10141873  0.38290902  1  0.062497  0.000267  0.113204  0.095236  0.000123  0.99133  0.0
H  H40  1  0.60480258  0.78365125  0.61257595  1  0.084183  0.000197  0.109691  0.089876  0.00012  0.993723  0.0
H  H41  1  0.40776680  0.21658065  0.38886149  1  0.074097  -3.8e-05  0.114294  0.100997  -2e-05  0.99014  0.0
H  H42  1  0.59196009  0.06624311  0.60065529  1  0.100736  -0.000428  0.098363  0.103297  -0.000245  1.06662  0.0
H  H43  1  0.41761011  0.93073255  0.40498037  1  0.086134  0.000431  0.101191  0.107362  0.000232  1.057999  0.0
H  H44  1  0.51567125  0.24113578  0.54942203  1  0.079042  6.9e-05  0.101194  0.104105  3.5e-05  0.992745  0.0
H  H45  1  0.49654500  0.75659381  0.45209332  1  0.050612  -5.7e-05  0.097283  0.097361  -3.7e-05  1.003716  0.0
H  H46  1  0.34650089  0.26460685  0.51947935  1  0.055243  1.8e-05  0.093434  0.094356  7e-06  1.024996  0.0
H  H47  1  0.67001226  0.73458094  0.47567704  1  0.020295  7.6e-05  0.095513  0.094083  4e-05  1.001515  0.0
H  H48  1  0.24578895  0.11032055  0.54410911  1  0.097222  -8e-05  0.10734  0.121736  -2e-06  1.016617  0.0
H  H49  1  0.76878839  0.88882977  0.45248166  1  0.091893  9.1e-05  0.107403  0.120074  1e-06  1.02118  0.0
H  H50  1  0.34724186  0.71046666  0.61067925  1  0.104231  0.000397  0.109442  0.172648  0.000222  0.988221  0.0
H  H51  1  0.66708290  0.28774859  0.38820605  1  0.101132  -0.000382  0.11045  0.177193  -0.000236  0.987676  0.0
H  H52  1  0.35964005  0.68395159  0.70636200  1  0.057183  0.000438  0.100922  0.150987  0.000177  0.99525  0.0
H  H53  1  0.64687077  0.31480346  0.29460294  1  0.04924  -0.000437  0.096764  0.142509  -0.000184  1.010631  0.0
H  H54  1  0.47042986  0.68890697  0.63234630  1  0.076298  0.00084  0.094423  0.137918  0.00059  1.038376  0.0
H  H55  1  0.54061954  0.30852050  0.37347223  1  0.105864  -8.1e-05  0.101121  0.164908  -1.3e-05  1.022467  0.0
H  H56  1  0.48835767  0.81925766  0.04119098  1  0.087777  1e-06  0.10667  0.115965  -0.0  1.039802  0.0
H  H57  1  0.49796818  0.19104381  0.94790717  1  0.075379  6.7e-05  0.103416  0.111658  -2.9e-05  1.041836  0.0
H  H58  1  0.59820479  0.96283922  0.94163320  1  0.050132  4.2e-05  0.101514  0.103239  1.7e-05  1.012617  0.0
H  H59  1  0.39523421  0.04156086  0.04824429  1  0.040709  -1.1e-05  0.098971  0.101163  -4e-06  1.016464  0.0
H  H60  1  0.74725376  0.01450996  0.96935081  1  0.069565  5.5e-05  0.097948  0.096115  3.1e-05  1.005664  0.0
H  H61  1  0.24981189  0.98169279  0.02262306  1  0.045655  1e-06  0.096231  0.096812  1e-06  1.008854  0.0
H  H62  1  0.78801802  0.92649653  0.09969658  1  0.068508  -5e-06  0.096379  0.097076  -6e-06  1.062443  0.0
H  H63  1  0.20331539  0.06793537  0.89390483  1  0.067711  0.000392  0.092332  0.092789  0.000174  1.07505  0.0
H  H64  1  0.47968557  0.65034764  0.35792027  1  0.10633  -7e-06  0.109122  0.164904  -0.0  0.98443  0.0
H  H65  1  0.50674123  0.38159371  0.63909275  1  0.088545  -0.00032  0.107991  0.163196  -0.000194  1.006979  0.0
H  H66  1  0.60840953  0.61427704  0.36206462  1  0.027812  5e-06  0.101526  0.146598  2e-06  1.00973  0.0
H  H67  1  0.38682839  0.36375790  0.62575796  1  0.055517  -0.000108  0.103927  0.147188  -2.4e-05  1.008312  0.0
H  H68  1  0.53436707  0.54337283  0.33367600  1  0.139721  4e-06  0.105567  0.164072  2e-06  1.021413  0.0
H  H69  1  0.40145400  0.46438060  0.65759743  1  0.058478  -0.000203  0.106801  0.159544  -9.1e-05  0.974049  0.0
H  H70  1  0.76660091  0.84747363  0.22644545  1  0.077036  0.0  0.114379  0.093875  -1e-06  0.987415  0.0
H  H71  1  0.21325082  0.15385763  0.76904660  1  0.047015  0.000342  0.112158  0.091214  0.000162  0.994072  0.0
H  H72  1  0.68052957  0.78517527  0.31564392  1  0.088212  -3e-06  0.106824  0.08425  -4e-06  1.012223  0.0
H  H73  1  0.29739493  0.21490679  0.67853433  1  0.068617  -8.7e-05  0.10488  0.079837  -3.5e-05  1.017861  0.0
H  H74  1  0.84093921  0.66377543  0.23537065  1  0.024249  -1e-06  0.092562  0.090075  -4e-06  1.027034  0.0
H  H75  1  0.14292786  0.33789407  0.76151951  1  0.023784  3e-06  0.09234  0.089351  3e-06  1.025532  0.0
H  H76  1  0.76921310  0.61766058  0.33270393  1  0.008282  2e-06  0.093208  0.088666  1e-06  0.991517  0.0
H  H77  1  0.21346122  0.38450543  0.66371906  1  0.016869  3e-06  0.093384  0.089168  2e-06  0.988146  0.0
H  H78  1  0.85482166  0.77584962  0.34114267  1  0.015732  2e-06  0.088562  0.076622  -6e-06  1.011345  0.0
H  H79  1  0.12414499  0.23531059  0.65060206  1  0.018321  -0.0  0.08925  0.077282  5e-06  1.005955  0.0
H  H80  1  0.92124227  0.65726023  0.35204870  1  0.036782  -2e-06  0.096288  0.093768  -1e-06  0.966157  0.0
H  H81  1  0.05486104  0.35006886  0.64905583  1  0.033462  3e-06  0.096995  0.094405  0.0  0.966978  0.0
H  H82  1  0.02772833  0.72075882  0.22409753  1  0.048098  7.5e-05  0.096369  0.102668  3.2e-05  1.000421  0.0
H  H83  1  0.95029895  0.27219815  0.77431717  1  0.071502  -6.8e-05  0.098172  0.105182  -3.7e-05  0.988706  0.0
H  H84  1  0.94299393  0.82078599  0.18825567  1  -0.011172  9e-06  0.087656  0.074727  5e-06  1.023944  0.0
H  H85  1  0.04306514  0.18107653  0.80838591  1  0.007835  1e-06  0.088807  0.076837  2e-06  1.020688  0.0
H  H86  1  0.06693989  0.81557736  0.30322022  1  0.089213  1.7e-05  0.118128  0.102462  1.2e-05  0.973119  0.0
H  H87  1  0.92482118  0.17184262  0.69429755  1  0.067066  -2.9e-05  0.117618  0.102463  -3.4e-05  0.975434  0.0
H  H88  1  0.10118557  0.88276596  0.20132564  1  0.056009  0.000105  0.111092  0.094001  5e-05  0.978558  0.0
H  H89  1  0.89417616  0.10287762  0.79602677  1  0.071007  -0.000135  0.10895  0.088388  -7.4e-05  0.981592  0.0
H  H90  1  0.95732898  0.94774983  0.44085345  1  0.126388  -0.000349  0.115987  0.187529  -0.00021  0.986166  0.0
H  H91  1  0.05615563  0.04975928  0.55364176  1  0.132612  0.000362  0.11582  0.188201  0.000218  0.991545  0.0
H  H92  1  0.06286146  0.89468456  0.38921913  1  0.087653  -0.000231  0.098962  0.147876  -5.1e-05  1.038749  0.0
H  H93  1  0.94737166  0.10133368  0.60334362  1  0.100243  0.000231  0.098533  0.147431  4.1e-05  1.039266  0.0
H  H94  1  0.94520336  0.83027442  0.42826877  1  0.07369  -0.000417  0.104629  0.15017  -0.000175  0.976476  0.0
H  H95  1  0.06366122  0.16789644  0.56660007  1  0.020842  0.000406  0.10438  0.150279  0.000162  0.978235  0.0
H  H96  1  0.97842101  0.97909435  0.09955300  1  0.04228  0.000378  0.103629  0.109296  0.000167  1.010956  0.0
H  H97  1  0.01324821  0.01661056  0.89829367  1  0.040437  -0.000419  0.102885  0.10784  -0.000192  1.012023  0.0
H  H98  1  0.87295229  0.12273527  0.02831616  1  0.049735  -1.3e-05  0.099107  0.099449  -8e-06  0.992178  0.0
H  H99  1  0.11760946  0.87460732  0.97243388  1  0.038991  1.9e-05  0.100314  0.100304  9e-06  0.988447  0.0
H  H100  1  0.76717026  0.23522502  0.09263812  1  0.035251  -1.9e-05  0.090929  0.081246  -8e-06  1.05329  0.0
H  H101  1  0.23174384  0.76547165  0.90918095  1  0.036631  1.9e-05  0.092202  0.085456  8e-06  1.042466  0.0
H  H102  1  0.76926286  0.21339469  0.22876161  1  0.097994  -4.7e-05  0.106163  0.115388  -8.6e-05  1.031122  0.0
H  H103  1  0.24067666  0.78986117  0.77071396  1  0.077211  0.0  0.106613  0.117133  5.1e-05  1.026544  0.0
H  H104  1  0.85583875  0.37624227  0.84766934  1  0.093091  0.000263  0.106133  0.122425  0.000165  1.020333  0.0
H  H105  1  0.15043165  0.63052936  0.14810057  1  0.081654  -2e-06  0.108463  0.126678  -1e-06  1.013667  0.0
H  H106  1  0.12632214  0.55412294  0.78508112  1  0.082183  -0.00075  0.104008  0.116473  -0.000554  1.043795  0.0
H  H107  1  0.88023316  0.44929174  0.21916822  1  0.102955  0.000736  0.104747  0.116259  0.000543  1.047385  0.0
H  H108  1  0.89112327  0.67720037  0.66186572  1  0.131231  -0.000456  0.107476  0.118616  -0.000355  1.007028  0.0
H  H109  1  0.12278260  0.33050392  0.33507179  1  0.084654  0.000472  0.108544  0.118288  0.000327  1.004468  0.0
H  H110  1  0.18302630  0.37723394  0.85641923  1  0.039781  -1.8e-05  0.093171  0.055391  -5e-06  1.000206  0.0
H  H111  1  0.82019304  0.61501358  0.14687195  1  0.040027  1.1e-05  0.091799  0.051348  -3e-06  1.007281  0.0
H  H112  1  0.11937920  0.46580412  0.90057262  1  0.036119  -5e-06  0.095513  0.053141  1.8e-05  1.030748  0.0
H  H113  1  0.89028587  0.53110060  0.10073756  1  0.052397  -2e-06  0.097273  0.057617  -1.9e-05  1.020348  0.0
H  H114  1  0.19720960  0.31282396  0.99010197  1  0.033597  3e-06  0.093989  0.097858  3e-06  0.990533  0.0
H  H115  1  0.80197598  0.68138294  0.01486455  1  0.020798  1e-06  0.092421  0.094648  -0.0  0.995289  0.0
H  H116  1  0.11231351  0.23019706  0.98594990  1  0.040122  -5e-06  0.088671  0.087344  -3e-06  0.990815  0.0
H  H117  1  0.88480290  0.76695788  0.01790797  1  0.027332  1e-06  0.088644  0.087818  0.0  0.991876  0.0
H  H118  1  0.27351031  0.98117669  0.16271426  1  0.130431  8e-06  0.108465  0.122017  6e-06  1.03255  0.0
H  H119  1  0.71024245  0.03813363  0.83261056  1  0.091744  0.000604  0.106866  0.119319  0.000428  1.031929  0.0
H  H120  1  0.19187470  0.08647264  0.35607198  1  0.12392  -0.000557  0.114284  0.137683  -0.000405  1.005558  0.0
H  H121  1  0.81840650  0.91960257  0.64650008  1  0.11306  0.000547  0.11427  0.135952  0.000387  1.010791  0.0
H  H122  1  0.28674156  0.76958781  0.39454675  1  0.101539  -0.000686  0.103864  0.118227  -0.000489  1.010058  0.0
H  H123  1  0.71560837  0.23611065  0.59414095  1  0.133611  0.001342  0.107768  0.124478  0.000974  1.006786  0.0
H  H124  1  0.22907378  0.25455767  0.23596917  1  0.033148  -5e-06  0.09417  0.057036  -0.0  1.015811  0.0
H  H125  1  0.77384267  0.76433171  0.76081335  1  0.041134  -5e-06  0.096107  0.059029  -1e-05  1.013195  0.0
H  H126  1  0.10697423  0.19739320  0.26840462  1  0.093121  0.000118  0.102019  0.077978  6.9e-05  1.019813  0.0
H  H127  1  0.89715121  0.81663671  0.73425052  1  0.077755  -0.000109  0.102617  0.078687  -6.8e-05  1.003289  0.0
H  H128  1  0.21056405  0.31053490  0.09685452  1  0.033839  -0.0  0.086229  0.078411  -1e-06  1.033586  0.0
H  H129  1  0.78561831  0.70068907  0.90330641  1  -0.005431  0.0  0.085983  0.077793  1e-06  1.024631  0.0
H  H130  1  0.12889958  0.37789277  0.15078796  1  0.023556  -1e-06  0.083957  0.076705  -1.6e-05  1.049586  0.0
H  H131  1  0.86629245  0.63476514  0.84733647  1  0.052477  8e-06  0.086122  0.080369  1.7e-05  1.039736  0.0
H  H132  1  0.98406151  0.27402523  0.17193731  1  0.016051  -1.6e-05  0.083715  0.082331  -3.4e-05  1.019095  0.0
H  H133  1  0.01314912  0.73379339  0.82944950  1  0.028529  2.1e-05  0.08535  0.083556  4e-05  1.014346  0.0
H  H134  1  0.06200640  0.18640615  0.13508850  1  0.029686  -1e-06  0.085214  0.082515  -2e-06  1.002184  0.0
H  H135  1  0.93737620  0.81833661  0.87075588  1  0.030311  0.0  0.083812  0.078799  2e-06  1.010396  0.0
H  H136  1  0.96462319  0.32030068  0.04099103  1  0.012941  -5e-06  0.079762  0.069303  -3e-06  1.028002  0.0
H  H137  1  0.03448829  0.67855962  0.96072122  1  0.022482  5e-06  0.081735  0.072782  3e-06  1.02124  0.0
H  H138  1  0.04280297  0.41656550  0.03584568  1  -0.000322  0.0  0.080821  0.069405  1e-06  1.001652  0.0
H  H139  1  0.95557064  0.58535909  0.96235325  1  0.014333  -0.0  0.08163  0.071286  0.0  1.000027  0.0
C  C140  1  0.62408355  0.48982420  0.14984798  1  -0.000572  -2e-06  -0.090225  -0.163472  -2e-06  3.991602  0.0
C  C141  1  0.37413524  0.50534131  0.86191940  1  -0.041628  0.00108  -0.091636  -0.159863  0.000493  3.974043  0.001
C  C142  1  0.56214577  0.55110387  0.10091248  1  0.405241  2e-06  0.090046  0.140598  2e-06  4.066159  0.0
C  C143  1  0.43900060  0.44234232  0.90771301  1  0.427264  -0.000306  0.088045  0.149711  1.5e-05  4.06979  0.0
C  C144  1  0.58850583  0.56918768  0.01995701  1  0.382734  -8e-06  0.094647  0.091035  -6e-06  4.013282  0.0
C  C145  1  0.41688115  0.42107042  0.98908997  1  0.297926  0.002608  0.092312  0.087301  0.001491  4.020123  0.002
C  C146  1  0.67659926  0.52689559  0.98586172  1  -0.073894  -4e-05  -0.09196  -0.161311  -3.4e-05  4.003649  0.0
C  C147  1  0.33090087  0.46205655  0.02665560  1  -0.013733  6.5e-05  -0.094736  -0.163713  6.2e-05  4.013762  0.0
C  C148  1  0.73802239  0.46614011  0.03520816  1  -0.014175  -1e-05  -0.095986  -0.096991  -7e-06  4.03018  0.0
C  C149  1  0.26676636  0.52465099  0.98037862  1  -0.066988  0.000247  -0.099351  -0.101655  0.000142  4.044143  0.0
C  C150  1  0.71195052  0.44739066  0.11593517  1  -0.104806  3.7e-05  -0.098381  -0.103836  2.5e-05  4.037718  0.0
C  C151  1  0.28832152  0.54645110  0.89934572  1  -0.054429  -0.000852  -0.102315  -0.109472  -0.000474  4.050917  -0.001
C  C152  1  0.44111734  0.64797552  0.04976755  1  0.976949  1e-06  0.237755  0.36088  0.0  3.92454  0.0
C  C153  1  0.56289413  0.34502491  0.95236079  1  0.987995  -0.003339  0.234466  0.365066  -0.001561  3.953536  -0.002
C  C154  1  0.34774897  0.71146527  0.03924858  1  -0.0375  -6e-06  -0.234943  -0.494435  -4e-06  3.927349  0.0
C  C155  1  0.65764705  0.28240696  0.95852883  1  -0.068058  0.000472  -0.231704  -0.48107  0.000109  3.9254  0.001
C  C156  1  0.50469153  0.67425125  0.90800590  1  0.338202  -1e-05  -0.052574  -0.048853  -8e-06  3.874528  0.0
C  C157  1  0.50676090  0.31288757  0.09612582  1  0.283536  0.000815  -0.054087  -0.048995  0.000527  3.885605  0.001
C  C158  1  0.54312584  0.78564862  0.86642951  1  -0.006606  -3e-06  -0.165318  -0.176282  -5e-06  3.922234  0.0
C  C159  1  0.46511316  0.20286626  0.13859690  1  -0.001085  -5.8e-05  -0.164897  -0.17249  -3.4e-05  3.918511  0.0
C  C160  1  0.52442944  0.83780242  0.78405154  1  -0.006058  1.1e-05  -0.16703  -0.137278  3e-06  3.926882  0.0
C  C161  1  0.48234743  0.15199111  0.22155050  1  -0.031681  6.3e-05  -0.168619  -0.140965  3.7e-05  3.935194  0.0
C  C162  1  0.56452757  0.77387892  0.73268503  1  -0.002706  0.000142  -0.167926  -0.177067  9.1e-05  3.924053  0.0
C  C163  1  0.44391862  0.21904736  0.27074460  1  -0.010535  -7.3e-05  -0.167638  -0.171618  -3.5e-05  3.924041  0.0
C  C164  1  0.57635832  0.83482416  0.64525590  1  0.266269  -0.000868  -0.04971  -0.042911  -0.000572  3.872787  -0.001
C  C165  1  0.43354858  0.16236823  0.35851382  1  0.306045  0.000913  -0.049768  -0.047455  0.000599  3.86653  0.001
C  C166  1  0.46071258  0.99057094  0.60117864  1  0.294142  -0.003027  0.090851  0.086372  -0.001796  4.027498  -0.002
C  C167  1  0.55028401  0.00731527  0.40121431  1  0.323779  0.003056  0.091859  0.087533  0.001758  4.021758  0.002
C  C168  1  0.51676449  0.07522217  0.58942065  1  -0.043457  -0.000131  -0.100231  -0.161607  -0.000134  4.010118  0.0
C  C169  1  0.49397220  0.92232828  0.41399406  1  -0.015956  0.000228  -0.098241  -0.157446  0.000163  4.00081  0.0
C  C170  1  0.47272529  0.17321115  0.56112838  1  -0.054693  -0.000277  -0.102203  -0.090357  -0.000162  4.029683  0.0
C  C171  1  0.53944123  0.82464072  0.44024541  1  -0.030743  0.000177  -0.105544  -0.0993  9.5e-05  4.052609  0.0
C  C172  1  0.37575312  0.18620363  0.54534662  1  -0.020206  0.000869  -0.107917  -0.114962  0.000466  4.073546  0.001
C  C173  1  0.63783581  0.81246616  0.45337317  1  -0.082425  -0.000808  -0.110814  -0.122241  -0.000436  4.090604  -0.001
C  C174  1  0.31919437  0.10125149  0.55843353  1  -0.012697  -0.001237  -0.095258  -0.164198  -0.000629  3.983983  -0.001
C  C175  1  0.69434248  0.89768003  0.43991523  1  -0.018434  0.001211  -0.094157  -0.158663  0.000579  3.983836  0.001
C  C176  1  0.36250646  0.00244030  0.58701380  1  0.361421  0.000233  0.084878  0.150394  -0.000168  4.064356  0.0
C  C177  1  0.64989388  0.99619354  0.41291184  1  0.409428  -3.4e-05  0.086879  0.151593  0.000282  4.058825  0.0
C  C178  1  0.40062552  0.83683338  0.62405519  1  0.996026  0.003597  0.235843  0.371868  0.001448  3.938634  0.002
C  C179  1  0.61048642  0.16147321  0.37716822  1  0.985085  -0.003304  0.238771  0.377126  -0.001487  3.93102  -0.002
C  C180  1  0.39505917  0.72380843  0.64404778  1  -0.053548  0.000243  -0.232681  -0.478026  0.000352  3.947301  0.0
C  C181  1  0.61542828  0.27450420  0.35757627  1  -0.059065  0.000439  -0.233222  -0.485034  6.1e-05  3.91949  0.001
C  C182  1  0.55619633  0.83811990  0.05246889  1  0.009799  2e-06  -0.091506  -0.153428  -1e-06  3.975966  0.0
C  C183  1  0.43191449  0.16766589  0.93719229  1  -0.041452  0.000924  -0.094616  -0.150891  0.000428  3.978758  0.001
C  C184  1  0.61742864  0.91974030  0.99760744  1  -0.031439  1.5e-05  -0.096652  -0.089025  1.3e-05  4.024447  0.0
C  C185  1  0.37458225  0.08334431  0.99261144  1  0.060496  -0.000656  -0.102464  -0.098843  -0.000359  4.036589  0.0
C  C186  1  0.70136900  0.94986257  0.01385987  1  -0.134315  2.2e-05  -0.098737  -0.089282  1.7e-05  4.039709  0.0
C  C187  1  0.29197457  0.04871083  0.97769364  1  -0.050241  0.000265  -0.101396  -0.08937  0.000151  4.040229  0.0
C  C188  1  0.72527435  0.90051788  0.08633302  1  0.056172  -5e-06  -0.102181  -0.173814  -6e-06  4.034876  0.0
C  C189  1  0.26516012  0.09686898  0.90623209  1  -0.019693  0.000152  -0.10633  -0.177843  0.000115  4.041095  0.0
C  C190  1  0.66331075  0.81890700  0.14128139  1  0.337931  4e-06  0.091086  0.091627  2e-06  4.020716  0.0
C  C191  1  0.32333376  0.18112612  0.85075503  1  0.29337  0.002914  0.088213  0.089435  0.00168  4.023841  0.002
C  C192  1  0.58080214  0.78565558  0.12468180  1  0.387097  3e-06  0.089849  0.146222  1e-06  4.030273  0.0
C  C193  1  0.40521473  0.21827588  0.86544308  1  0.404238  9.9e-05  0.085342  0.150211  0.000312  4.050381  0.0
C  C194  1  0.58197473  0.69218975  0.24743086  1  1.000219  2e-06  0.239429  0.371188  1e-06  3.902045  0.0
C  C195  1  0.39905248  0.31087887  0.74454201  1  0.974249  -0.00248  0.234526  0.374286  -0.001069  3.925634  -0.001
C  C196  1  0.55080754  0.62073709  0.32988944  1  -0.095228  2e-06  -0.230263  -0.482  2e-06  3.939717  0.0
C  C197  1  0.42438557  0.38464415  0.66201023  1  -0.045297  0.00032  -0.22577  -0.472962  -3e-05  3.934018  0.0
C  C198  1  0.72795755  0.77367069  0.26320437  1  0.279048  1e-06  -0.051423  -0.046995  -1e-06  3.874292  0.0
C  C199  1  0.25254073  0.22706157  0.73149438  1  0.297459  0.000906  -0.053206  -0.048206  0.000578  3.885582  0.001
C  C200  1  0.80637517  0.68687066  0.28545809  1  0.011223  -5e-06  -0.163118  -0.175363  -6e-06  3.927692  0.0
C  C201  1  0.17543520  0.31561252  0.71076320  1  0.018738  -0.000125  -0.16406  -0.173881  -7.4e-05  3.930875  0.0
C  C202  1  0.88944173  0.72359198  0.31007217  1  -0.018246  2e-06  -0.162903  -0.136944  -5e-06  3.919563  0.0
C  C203  1  0.09041484  0.28187488  0.68654143  1  -0.022631  2.1e-05  -0.162591  -0.135196  2.1e-05  3.917925  0.0
C  C204  1  0.97476288  0.77872477  0.23952172  1  0.023226  6e-06  -0.163996  -0.173254  6e-06  3.931934  0.0
C  C205  1  0.00925821  0.21934982  0.75772901  1  -0.021003  1.7e-05  -0.163638  -0.174565  1e-05  3.925563  0.0
C  C206  1  0.03598223  0.85397812  0.25138319  1  0.29296  0.000903  -0.049653  -0.048438  0.0006  3.884493  0.001
C  C207  1  0.95738340  0.13752226  0.74558606  1  0.299807  -0.000943  -0.050044  -0.047235  -0.00065  3.886493  -0.001
C  C208  1  0.98052922  0.90714554  0.40005574  1  -0.095678  0.00044  -0.228527  -0.477456  9e-05  3.925018  0.001
C  C209  1  0.02974632  0.09036042  0.59423745  1  -0.060807  -0.000441  -0.229188  -0.478252  -9.8e-05  3.923092  -0.001
C  C210  1  0.94840027  0.96813232  0.32670571  1  0.991117  -0.00347  0.237661  0.372783  -0.001597  3.943836  -0.002
C  C211  1  0.05952884  0.03051368  0.66873976  1  0.994829  0.003376  0.238298  0.372259  0.001403  3.940481  0.002
C  C212  1  0.92784046  0.01395621  0.20558318  1  0.325144  0.002297  0.091727  0.088236  0.001316  4.025559  0.002
C  C213  1  0.07300173  0.98432071  0.79175499  1  0.300643  -0.002466  0.090604  0.083697  -0.00146  4.029912  -0.002
C  C214  1  0.93114384  0.02789734  0.12832271  1  -0.027868  4e-05  -0.102559  -0.183582  4.6e-05  4.043349  0.0
C  C215  1  0.06410856  0.96923865  0.87003163  1  0.014632  -3e-05  -0.100872  -0.183569  -5.4e-05  4.045356  0.0
C  C216  1  0.87215504  0.10866373  0.08883346  1  -0.072308  0.000313  -0.100081  -0.089244  0.000177  4.049014  0.0
C  C217  1  0.12255249  0.88945171  0.91112441  1  -0.024447  -0.000264  -0.098254  -0.08417  -0.000154  4.039974  0.0
C  C218  1  0.81248681  0.17318105  0.12529997  1  -0.012282  -0.000809  -0.104679  -0.10348  -0.000436  4.049115  -0.001
C  C219  1  0.18728660  0.82706350  0.87516087  1  -0.067009  0.000802  -0.103283  -0.103854  0.00042  4.046002  0.001
C  C220  1  0.81199256  0.16129669  0.20135220  1  -0.012486  0.001083  -0.085742  -0.145347  0.000491  3.968299  0.001
C  C221  1  0.19394698  0.84046059  0.79780189  1  0.011804  -0.001099  -0.086242  -0.14611  -0.000525  3.968594  -0.001
C  C222  1  0.87125055  0.08112750  0.24154573  1  0.42353  -0.001015  0.091118  0.153998  -0.000517  4.052052  -0.001
C  C223  1  0.13531008  0.91969988  0.75594716  1  0.418145  0.000778  0.089848  0.152237  0.000272  4.050585  0.001
C  C224  1  0.76114792  0.51203043  0.74264315  1  1.565082  -0.001005  0.20624  0.568165  0.000185  4.193378  -0.001
C  C225  1  0.25264733  0.49280637  0.24894723  1  1.554108  7e-05  0.21019  0.552748  3.8e-05  4.195834  0.0
C  C226  1  0.86401877  0.52443088  0.75280151  1  -0.103109  0.005711  -0.021682  -0.019719  0.003509  4.00817  0.004
C  C227  1  0.14633791  0.48275376  0.24326306  1  -0.012197  0.000692  -0.018663  -0.015647  0.000338  3.991694  0.001
C  C228  1  0.90104221  0.44518336  0.81156561  1  0.005741  0.001197  -0.098839  -0.21956  0.000738  3.965762  0.001
C  C229  1  0.10626654  0.56145517  0.18594898  1  -0.01215  -0.001433  -0.097694  -0.218732  -0.000853  3.960192  -0.001
C  C230  1  0.99525925  0.45435334  0.82448327  1  0.422816  -0.000497  0.076771  0.247532  -0.000265  4.104626  0.0
C  C231  1  0.01040552  0.55076717  0.17627100  1  0.391583  0.000631  0.076288  0.243781  0.000309  4.107379  0.001
C  C232  1  0.05262813  0.54316174  0.77779968  1  -0.061347  -0.000896  -0.102804  -0.233011  -0.00068  3.963402  -0.001
C  C233  1  0.95443751  0.46172353  0.22477811  1  0.018782  0.000539  -0.102545  -0.231846  0.00045  3.969831  0.0
C  C234  1  0.01453646  0.62345883  0.71986354  1  0.051291  -0.003287  -0.015204  0.001251  -0.002155  3.989589  -0.002
C  C235  1  0.99500992  0.38213929  0.28151608  1  -0.049855  0.004196  -0.01402  0.002742  0.002589  3.976963  0.003
C  C236  1  0.92068737  0.61441382  0.70661509  1  -0.016024  0.000599  -0.087517  -0.141819  0.000254  3.952261  0.0
C  C237  1  0.09041205  0.39274517  0.29176695  1  -6.3e-05  -0.000271  -0.084621  -0.138221  -3.3e-05  3.942808  0.0
C  C238  1  0.07485973  0.72064112  0.67698651  1  1.520648  0.004134  0.19041  0.541899  0.001576  4.193356  0.006
C  C239  1  0.93679608  0.28312195  0.32325329  1  1.545473  -0.004192  0.195165  0.547987  -0.001806  4.175598  -0.006
C  C240  1  0.11776402  0.38664428  0.90168304  1  0.375197  -1.2e-05  -0.071059  0.030464  9e-06  3.920243  0.0
C  C241  1  0.88635155  0.61038256  0.10053754  1  0.376634  2e-06  -0.070871  0.030078  -1.5e-05  3.920207  0.0
C  C242  1  0.12072346  0.30955931  0.98233322  1  0.004849  -5e-06  -0.169189  -0.178132  -4e-06  3.953889  0.0
C  C243  1  0.87878049  0.68743665  0.02094787  1  0.005686  7e-06  -0.171271  -0.182511  6e-06  3.964368  0.0
C  C244  1  0.31850059  0.78927943  0.23655562  1  1.545772  -3.2e-05  0.198728  0.550401  -1.2e-05  4.172132  0.0
C  C245  1  0.66676163  0.23236325  0.74275761  1  1.516377  -0.004087  0.192583  0.553356  -0.001711  4.178758  -0.006
C  C246  1  0.28450714  0.86712462  0.27446895  1  -0.005082  -0.000645  -0.023287  -0.022439  -0.000308  4.043857  -0.001
C  C247  1  0.70780409  0.14550563  0.71640321  1  -0.013165  0.004874  -0.020971  -0.015008  0.002965  4.036762  0.003
C  C248  1  0.26468326  0.96618696  0.22434491  1  -0.083324  0.001416  -0.095428  -0.216567  0.000823  3.977519  0.001
C  C249  1  0.72595771  0.04912380  0.77109202  1  -0.086275  -0.001273  -0.093968  -0.218451  -0.000635  3.963527  -0.001
C  C250  1  0.23236146  0.04610114  0.25212856  1  0.491469  -0.000537  0.083251  0.259608  -0.000272  4.102459  -0.001
C  C251  1  0.76659317  0.96717948  0.74689486  1  0.52413  0.001088  0.081963  0.254359  0.000525  4.095888  0.001
C  C252  1  0.21949243  0.02722801  0.33145906  1  -0.033782  -0.000285  -0.096822  -0.231007  -0.000324  3.933533  0.0
C  C253  1  0.78615328  0.98091487  0.66788913  1  -0.064717  -0.001037  -0.097707  -0.237031  -0.000492  3.947343  0.0
C  C254  1  0.23970770  0.92699887  0.38184867  1  -0.109557  -0.003955  -0.021691  -0.019451  -0.002541  4.031446  -0.003
C  C255  1  0.76709640  0.07823367  0.61356440  1  -0.073762  0.00458  -0.021115  -0.018131  0.00279  4.045426  0.003
C  C256  1  0.27259590  0.84668808  0.35405359  1  -0.01649  -0.000265  -0.093213  -0.152285  -0.000347  3.960737  0.0
C  C257  1  0.72871615  0.16076306  0.63714444  1  -0.002882  0.001009  -0.088621  -0.143366  0.000912  3.954166  0.001
C  C258  1  0.22239852  0.90590444  0.46698106  1  1.542823  0.004021  0.189789  0.536349  0.001447  4.209868  0.006
C  C259  1  0.78966876  0.09493847  0.52902489  1  1.5466  -0.003895  0.189917  0.536501  -0.001583  4.206585  -0.006
C  C260  1  0.17257663  0.22371246  0.21828559  1  0.383309  0.000149  -0.072891  0.019715  9.9e-05  3.887245  0.0
C  C261  1  0.82880799  0.79149175  0.78216213  1  0.363405  -9.2e-05  -0.071415  0.021954  -6.7e-05  3.885069  0.0
C  C262  1  0.14382807  0.30173511  0.14558836  1  -0.025825  8e-06  -0.177632  -0.190107  -1.3e-05  3.972917  0.0
C  C263  1  0.85313027  0.70956782  0.85501335  1  0.003311  -5e-06  -0.174793  -0.186438  1.3e-05  3.970967  0.0
C  C264  1  0.05286007  0.26856683  0.12832719  1  -0.001244  -1.5e-05  -0.173893  -0.141846  -2.2e-05  3.924412  0.0
C  C265  1  0.94510222  0.73742538  0.87430639  1  -0.020328  1.7e-05  -0.173722  -0.142565  2.1e-05  3.930527  0.0
C  C266  1  0.03989374  0.33338360  0.04610396  1  -0.014368  -7e-06  -0.170558  -0.138168  -3e-06  3.945757  0.0
C  C267  1  0.95887851  0.66734469  0.95520051  1  -0.023422  6e-06  -0.170419  -0.137463  3e-06  3.944771  0.0
N  N268  1  0.47048569  0.60137202  0.11730192  1  -1.164027  1e-05  -0.362952  -0.352398  7e-06  3.609844  0.0
N  N269  1  0.53017017  0.39383428  0.88697902  1  -1.181586  0.057387  -0.355751  -0.408709  0.035437  3.519265  0.051
N  N270  1  0.51069551  0.63033757  0.98981883  1  -1.235762  -3e-06  -0.240233  -0.079827  -2e-06  3.689602  0.0
N  N271  1  0.49654992  0.35910532  0.01548028  1  -1.220247  0.001279  -0.24352  -0.084833  0.000696  3.690455  0.001
N  N272  1  0.48266603  0.88494510  0.62449072  1  -1.203501  -0.001634  -0.240549  -0.076755  -0.000963  3.66461  -0.001
N  N273  1  0.52766609  0.11262583  0.37874148  1  -1.222414  0.001779  -0.238339  -0.073924  0.000972  3.665391  0.001
N  N274  1  0.32722222  0.90512119  0.60286447  1  -1.18977  -0.067786  -0.35603  -0.405452  -0.042361  3.544582  -0.06
N  N275  1  0.68525348  0.09373138  0.39622541  1  -1.167501  0.069006  -0.353289  -0.405122  0.041942  3.531326  0.061
N  N276  1  0.53331844  0.70500623  0.19157053  1  -1.167821  2e-05  -0.354709  -0.347371  1e-05  3.580456  0.0
N  N277  1  0.44971868  0.30030577  0.79836599  1  -1.177468  0.062691  -0.344411  -0.410309  0.038493  3.469758  0.056
N  N278  1  0.66169863  0.75878725  0.21903525  1  -1.227405  -2e-06  -0.238058  -0.074156  -0.0  3.660567  0.0
N  N279  1  0.32147177  0.24125447  0.77370042  1  -1.205287  0.00131  -0.241364  -0.078774  0.000701  3.670668  0.001
N  N280  1  0.97502779  0.94283916  0.26106911  1  -1.221634  0.001275  -0.243899  -0.085144  0.00069  3.672619  0.001
N  N281  1  0.02660162  0.05397349  0.73508425  1  -1.220611  -0.001442  -0.243713  -0.083067  -0.00083  3.668542  -0.001
N  N282  1  0.88762192  0.05177159  0.31602211  1  -1.186446  0.055257  -0.348278  -0.403743  0.034096  3.520208  0.049
N  N283  1  0.12360605  0.94950658  0.68012417  1  -1.183305  -0.059212  -0.346213  -0.39907  -0.03745  3.516823  -0.053
O  O284  1  0.72497737  0.42087995  0.77633390  1  -1.150732  0.06983  -0.316813  -0.545998  0.040994  2.370949  0.065
O  O285  1  0.28535091  0.58698787  0.21589124  1  -1.086748  4.8e-05  -0.305448  -0.475104  3e-05  2.473839  0.0
O  O286  1  0.71702953  0.59227771  0.70281739  1  -1.17808  -0.000759  -0.328816  -0.551321  -0.000676  2.176234  -0.001
O  O287  1  0.29999814  0.41316739  0.28272417  1  -1.18709  3.7e-05  -0.312665  -0.547356  -4e-06  2.212072  0.0
O  O288  1  0.31867362  0.81513503  0.16593332  1  -1.173575  -0.000118  -0.314904  -0.539008  -7.4e-05  2.170091  0.0
O  O289  1  0.64931622  0.21843811  0.81517048  1  -1.120442  0.089006  -0.310875  -0.523821  0.051362  2.200876  0.079
O  O290  1  0.34998853  0.69894531  0.27918775  1  -1.067896  -7e-06  -0.310887  -0.478955  2.3e-05  2.320603  0.0
O  O291  1  0.64715600  0.31991536  0.69267530  1  -1.13817  0.087552  -0.322043  -0.542727  0.050508  2.215713  0.079
O  O292  1  0.40672704  0.42525961  0.37793022  1  -1.286618  6e-06  -0.605066  -0.784442  3e-06  1.925491  0.0
O  O293  1  0.55328566  0.52190215  0.70537269  1  -1.208906  0.058812  -0.565598  -0.739863  0.034599  2.142056  0.051
O  O294  1  0.15988034  0.72388010  0.69312038  1  -1.143075  -0.080729  -0.320496  -0.540943  -0.04821  2.249375  -0.073
O  O295  1  0.85314229  0.27847903  0.30565045  1  -1.141586  0.081056  -0.320991  -0.542115  0.046858  2.245531  0.073
O  O296  1  0.04189196  0.79945150  0.62735499  1  -1.130408  -0.075858  -0.313234  -0.515978  -0.044999  2.145021  -0.067
O  O297  1  0.97086015  0.20423372  0.37196991  1  -1.129003  0.075478  -0.312092  -0.515876  0.043459  2.140196  0.067
O  O298  1  0.23931640  0.81547350  0.51403944  1  -1.13152  -0.08463  -0.316514  -0.520873  -0.050229  2.181933  -0.075
O  O299  1  0.77441095  0.18469304  0.48019411  1  -1.126326  0.088364  -0.311498  -0.511568  0.05092  2.216011  0.079
O  O300  1  0.19022584  0.97950459  0.49201921  1  -1.135355  -0.078728  -0.313843  -0.530593  -0.046956  2.224009  -0.071
O  O301  1  0.82353525  0.01991332  0.50616079  1  -1.144493  0.078847  -0.313544  -0.52931  0.045619  2.193773  0.07
O  O302  1  0.02483990  0.37367889  0.88388021  1  -1.078841  -0.000128  -0.192317  -0.218221  -7.7e-05  2.530045  0.0
O  O303  1  0.97771319  0.62954467  0.11737604  1  -1.074624  0.000175  -0.192401  -0.217863  9.2e-05  2.527086  0.0
O  O304  1  0.21613003  0.13776759  0.19621332  1  -1.091813  -9.8e-05  -0.184287  -0.204137  -5.5e-05  2.589593  0.0
O  O305  1  0.78509473  0.87774673  0.80432091  1  -1.085303  0.000216  -0.185414  -0.207278  9.3e-05  2.564181  0.0
