# generated using pymatgen
data_ZnH10C7N4ClO
_symmetry_space_group_name_H-M   'P 1'
_cell_length_a   8.59824971
_cell_length_b   9.66738613
_cell_length_c   12.52007272
_cell_angle_alpha   97.57447233
_cell_angle_beta   90.00002102
_cell_angle_gamma   89.99989536
_symmetry_Int_Tables_number   1
_chemical_formula_structural   ZnH10C7N4ClO
_chemical_formula_sum   'Zn4 H40 C28 N16 Cl4 O4'
_cell_volume   1031.62022300
_cell_formula_units_Z   4
loop_
 _symmetry_equiv_pos_site_id
 _symmetry_equiv_pos_as_xyz
  1  'x, y, z'
loop_
 _atom_site_type_symbol
 _atom_site_label
 _atom_site_symmetry_multiplicity
 _atom_site_fract_x
 _atom_site_fract_y
 _atom_site_fract_z
 _atom_site_occupancy
 _atom_site_hle17_bader_spin_density
 _atom_site_hle17_ddec_charge
 _atom_site_hle17_ddec_spin_density
 _atom_site_hle17_ddec_sum_bond_order
 _atom_site_hle17_magmom
 _atom_site_hse06_10hf_bader_spin_density
 _atom_site_hse06_10hf_ddec_charge
 _atom_site_hse06_10hf_ddec_spin_density
 _atom_site_hse06_10hf_ddec_sum_bond_order
 _atom_site_hse06_10hf_magmom
 _atom_site_hse06_bader_spin_density
 _atom_site_hse06_ddec_charge
 _atom_site_hse06_ddec_spin_density
 _atom_site_hse06_ddec_sum_bond_order
 _atom_site_hse06_magmom
 _atom_site_pbe_bader_spin_density
 _atom_site_pbe_cm5_charge
 _atom_site_pbe_ddec_charge
 _atom_site_pbe_ddec_spin_density
 _atom_site_pbe_ddec_sum_bond_order
 _atom_site_pbe_magmom
Zn  Zn0  1  0.90226026  0.32065166  0.80068409  1  0  0.92405  0  2.027847  0  0  0.737264  0  2.523687  0  0  0.777241  0  2.47431  0  0  0.653312  0.709651  0  2.557426  0
Zn  Zn1  1  0.40225810  0.67934514  0.69931667  1  0  0.924079  0  2.027805  0  0  0.737311  0  2.523649  0  0  0.777276  0  2.474269  0  0  0.653318  0.709699  0  2.557387  0
Zn  Zn2  1  0.09774250  0.67934433  0.19931530  1  0  0.924017  0  2.027852  0  0  0.737244  0  2.523695  0  0  0.777221  0  2.474319  0  0  0.653304  0.709638  0  2.557425  0
Zn  Zn3  1  0.59774233  0.32064878  0.30068411  1  0  0.924017  0  2.027852  0  0  0.737224  0  2.523694  0  0  0.777199  0  2.474318  0  0  0.653314  0.709618  0  2.557434  0
H  H4  1  0.72013809  0.33996561  0.04917650  1  0  0.136051  0  0.950691  0  0  0.140698  0  1.02089  0  0  0.144759  0  1.017779  0  0  0.113685  0.137782  0  1.023088  0
H  H5  1  0.22012564  0.66004088  0.45082586  1  0  0.135962  0  0.95083  0  0  0.140685  0  1.020944  0  0  0.144746  0  1.017832  0  0  0.113703  0.137773  0  1.023138  0
H  H6  1  0.27987165  0.66003563  0.95082740  1  0  0.135981  0  0.950851  0  0  0.140653  0  1.021008  0  0  0.144713  0  1.017897  0  0  0.113673  0.13774  0  1.023202  0
H  H7  1  0.77986666  0.33996346  0.54917435  1  0  0.135991  0  0.950746  0  0  0.140678  0  1.0209  0  0  0.144739  0  1.017787  0  0  0.11368  0.137765  0  1.023094  0
H  H8  1  0.26147182  0.02918519  0.12529475  1  0  0.10812  0  0.971762  0  0  0.124254  0  1.039344  0  0  0.125834  0  1.038141  0  0  0.097943  0.12301  0  1.040244  0
H  H9  1  0.76146919  0.97081496  0.37470540  1  0  0.108131  0  0.971738  0  0  0.124259  0  1.039324  0  0  0.125837  0  1.038122  0  0  0.097947  0.123014  0  1.040223  0
H  H10  1  0.73852861  0.97081601  0.87470355  1  0  0.108087  0  0.971776  0  0  0.124245  0  1.039331  0  0  0.125823  0  1.038128  0  0  0.097947  0.123  0  1.04023  0
H  H11  1  0.23852775  0.02918521  0.62529440  1  0  0.108118  0  0.971764  0  0  0.124252  0  1.03934  0  0  0.125829  0  1.038139  0  0  0.097946  0.123007  0  1.040239  0
H  H12  1  0.38360235  0.16157852  0.08516280  1  0  0.093715  0  0.970356  0  0  0.106896  0  1.044083  0  0  0.107053  0  1.045412  0  0  0.090282  0.106653  0  1.043275  0
H  H13  1  0.88360001  0.83842145  0.41483815  1  0  0.093774  0  0.970354  0  0  0.10695  0  1.044073  0  0  0.107108  0  1.045401  0  0  0.090302  0.106707  0  1.043265  0
H  H14  1  0.61639809  0.83842269  0.91483630  1  0  0.093734  0  0.970356  0  0  0.106911  0  1.044084  0  0  0.107069  0  1.045413  0  0  0.0903  0.106669  0  1.043275  0
H  H15  1  0.11639810  0.16157873  0.58516245  1  0  0.093737  0  0.970373  0  0  0.106914  0  1.044094  0  0  0.107073  0  1.045422  0  0  0.090286  0.106672  0  1.043285  0
H  H16  1  0.31839644  0.02079381  0.98819472  1  0  0.104736  0  0.962796  0  0  0.123456  0  1.026884  0  0  0.124288  0  1.026856  0  0  0.095749  0.122707  0  1.027011  0
H  H17  1  0.81839592  0.97920729  0.51180564  1  0  0.104764  0  0.962782  0  0  0.123487  0  1.026862  0  0  0.124319  0  1.026833  0  0  0.095752  0.122739  0  1.026988  0
H  H18  1  0.68160283  0.97920844  0.01180449  1  0  0.104725  0  0.962821  0  0  0.123454  0  1.026904  0  0  0.124289  0  1.026873  0  0  0.095735  0.122704  0  1.02703  0
H  H19  1  0.18160219  0.02079288  0.48819416  1  0  0.104744  0  0.962802  0  0  0.123466  0  1.026885  0  0  0.124298  0  1.026857  0  0  0.095752  0.122717  0  1.027012  0
H  H20  1  0.36052575  0.18817463  0.89251663  1  0  0.142449  0  0.947995  0  0  0.16279  0  1.001746  0  0  0.165441  0  1.001131  0  0  0.098238  0.160845  0  1.002272  0
H  H21  1  0.86052214  0.81182746  0.60748384  1  0  0.142468  0  0.9481  0  0  0.162802  0  1.001848  0  0  0.165453  0  1.001232  0  0  0.098207  0.160842  0  1.002392  0
H  H22  1  0.63947585  0.81182867  0.10748347  1  0  0.142518  0  0.948041  0  0  0.162827  0  1.00182  0  0  0.165488  0  1.001193  0  0  0.098234  0.160862  0  1.00237  0
H  H23  1  0.13947365  0.18817271  0.39251517  1  0  0.142509  0  0.948014  0  0  0.162843  0  1.001764  0  0  0.165494  0  1.001148  0  0  0.098255  0.160883  0  1.002306  0
H  H24  1  0.26566209  0.33722162  0.85031791  1  0  0.137823  0  0.97984  0  0  0.147839  0  1.055068  0  0  0.150066  0  1.054987  0  0  0.096911  0.146085  0  1.055365  0
H  H25  1  0.76566346  0.66277957  0.64968245  1  0  0.137804  0  0.979924  0  0  0.1478  0  1.055164  0  0  0.150028  0  1.055082  0  0  0.096895  0.146059  0  1.055449  0
H  H26  1  0.73433951  0.66278168  0.14968140  1  0  0.137797  0  0.97991  0  0  0.14779  0  1.055152  0  0  0.150018  0  1.055071  0  0  0.096898  0.14605  0  1.055436  0
H  H27  1  0.23433697  0.33722060  0.35031735  1  0  0.137849  0  0.979845  0  0  0.14787  0  1.055063  0  0  0.150097  0  1.054981  0  0  0.096919  0.146118  0  1.055358  0
H  H28  1  0.20782955  0.16593277  0.79644872  1  0  0.141792  0  0.952959  0  0  0.15961  0  1.017395  0  0  0.162054  0  1.016666  0  0  0.098907  0.157757  0  1.018096  0
H  H29  1  0.70782827  0.83406852  0.70355243  1  0  0.141878  0  0.952871  0  0  0.159688  0  1.017308  0  0  0.162134  0  1.016577  0  0  0.098962  0.157836  0  1.018008  0
H  H30  1  0.79217205  0.83407053  0.20355139  1  0  0.141816  0  0.952906  0  0  0.159666  0  1.01731  0  0  0.162112  0  1.016577  0  0  0.098942  0.157812  0  1.018011  0
H  H31  1  0.29216984  0.16593060  0.29644647  1  0  0.141898  0  0.95285  0  0  0.15972  0  1.017265  0  0  0.162165  0  1.016534  0  0  0.098972  0.157867  0  1.017965  0
H  H32  1  0.04326804  0.10958898  0.17981610  1  0  0.105966  0  0.97053  0  0  0.124607  0  1.034966  0  0  0.125549  0  1.034789  0  0  0.097257  0.123836  0  1.035143  0
H  H33  1  0.54326788  0.89041153  0.32018403  1  0  0.105976  0  0.970527  0  0  0.124616  0  1.034968  0  0  0.125557  0  1.034793  0  0  0.097253  0.123845  0  1.035146  0
H  H34  1  0.95673239  0.89041223  0.82018220  1  0  0.105939  0  0.97056  0  0  0.124596  0  1.034985  0  0  0.125537  0  1.034807  0  0  0.097232  0.123825  0  1.03516  0
H  H35  1  0.45673256  0.10958759  0.67981487  1  0  0.105967  0  0.970544  0  0  0.124606  0  1.034986  0  0  0.125547  0  1.034807  0  0  0.097255  0.123834  0  1.035165  0
H  H36  1  0.90758459  0.14503332  0.07946861  1  0  0.099652  0  0.957322  0  0  0.116886  0  1.025828  0  0  0.117607  0  1.025628  0  0  0.097166  0.116252  0  1.026063  0
H  H37  1  0.40758335  0.85496764  0.42053085  1  0  0.099638  0  0.957334  0  0  0.116932  0  1.025772  0  0  0.117666  0  1.025559  0  0  0.097189  0.116301  0  1.026003  0
H  H38  1  0.09241585  0.85496789  0.92053049  1  0  0.099646  0  0.957336  0  0  0.116901  0  1.025816  0  0  0.117612  0  1.025626  0  0  0.097179  0.116258  0  1.026059  0
H  H39  1  0.59241476  0.14503251  0.57946655  1  0  0.099605  0  0.957339  0  0  0.116882  0  1.025816  0  0  0.117593  0  1.025626  0  0  0.097167  0.116269  0  1.026032  0
H  H40  1  0.00189665  0.28602936  0.15832705  1  0  0.100986  0  0.941511  0  0  0.116866  0  1.010656  0  0  0.116842  0  1.011461  0  0  0.099442  0.116807  0  1.010121  0
H  H41  1  0.50189685  0.71397016  0.34167297  1  0  0.101  0  0.94147  0  0  0.116878  0  1.010627  0  0  0.116855  0  1.011433  0  0  0.099435  0.116818  0  1.010092  0
H  H42  1  0.99810263  0.71397080  0.84167195  1  0  0.101013  0  0.941499  0  0  0.116889  0  1.010654  0  0  0.116866  0  1.011457  0  0  0.099446  0.116829  0  1.010117  0
H  H43  1  0.49810242  0.28602896  0.65832592  1  0  0.101011  0  0.941466  0  0  0.116874  0  1.01063  0  0  0.116851  0  1.011434  0  0  0.099449  0.116814  0  1.010097  0
C  C44  1  0.61659969  0.45676168  0.92884915  1  0  0.139769  0  3.81345  0  0  0.136201  0  4.054963  0  0  0.138476  0  4.08009  0  0  0.093096  0.134634  0  4.038053  0
C  C45  1  0.11659193  0.54324080  0.57115210  1  0  0.139883  0  3.813405  0  0  0.136252  0  4.055018  0  0  0.138525  0  4.080144  0  0  0.093109  0.134687  0  4.038113  0
C  C46  1  0.38340540  0.54323957  0.07115635  1  0  0.139878  0  3.813213  0  0  0.136202  0  4.054884  0  0  0.138477  0  4.080012  0  0  0.093121  0.134636  0  4.037977  0
C  C47  1  0.88340386  0.45675730  0.42884910  1  0  0.139922  0  3.813491  0  0  0.136273  0  4.055107  0  0  0.13855  0  4.080235  0  0  0.093091  0.134706  0  4.038199  0
C  C48  1  0.49468989  0.54697727  0.90131653  1  0  0.128706  0  3.831173  0  0  0.120427  0  4.083242  0  0  0.122441  0  4.108702  0  0  0.090765  0.119018  0  4.066325  0
C  C49  1  0.99468586  0.45302356  0.59868464  1  0  0.128613  0  3.831198  0  0  0.120338  0  4.083281  0  0  0.122354  0  4.108737  0  0  0.090745  0.118925  0  4.066371  0
C  C50  1  0.50531752  0.45302292  0.09868566  1  0  0.1285  0  3.831217  0  0  0.12023  0  4.083319  0  0  0.122247  0  4.108775  0  0  0.090697  0.118818  0  4.066409  0
C  C51  1  0.00530993  0.54697870  0.40131536  1  0  0.128598  0  3.83126  0  0  0.120354  0  4.083337  0  0  0.122367  0  4.108798  0  0  0.090779  0.118947  0  4.06642  0
C  C52  1  0.62599676  0.40668937  0.02830505  1  0  -0.198435  0  3.684967  0  0  -0.222453  0  3.939312  0  0  -0.225752  0  3.956679  0  0  -0.083218  -0.220266  0  3.92768  0
C  C53  1  0.12598679  0.59331207  0.47169838  1  0  -0.198377  0  3.685117  0  0  -0.222454  0  3.939462  0  0  -0.22575  0  3.956827  0  0  -0.08324  -0.22027  0  3.927829  0
C  C54  1  0.37401065  0.59331081  0.97169714  1  0  -0.198406  0  3.684949  0  0  -0.222422  0  3.939326  0  0  -0.225718  0  3.956694  0  0  -0.083214  -0.220237  0  3.927693  0
C  C55  1  0.87400784  0.40668914  0.52830072  1  0  -0.19848  0  3.685216  0  0  -0.22252  0  3.939592  0  0  -0.225817  0  3.956957  0  0  -0.083252  -0.220333  0  3.92796  0
C  C56  1  0.12535925  0.23367204  0.95339760  1  0  0.581406  0  3.733144  0  0  0.53657  0  4.01111  0  0  0.566295  0  4.011738  0  0  0.244516  0.516482  0  4.009961  0
C  C57  1  0.62535803  0.76632834  0.54660344  1  0  0.581312  0  3.732996  0  0  0.536486  0  4.010958  0  0  0.566218  0  4.01159  0  0  0.244487  0.516399  0  4.009807  0
C  C58  1  0.87464235  0.76633231  0.04660261  1  0  0.581364  0  3.73316  0  0  0.536557  0  4.011091  0  0  0.566291  0  4.011723  0  0  0.24451  0.51647  0  4.009942  0
C  C59  1  0.37464008  0.23366974  0.45339536  1  0  0.581462  0  3.73311  0  0  0.536618  0  4.011089  0  0  0.566354  0  4.011717  0  0  0.24455  0.51653  0  4.009938  0
C  C60  1  0.28560340  0.09177805  0.06039734  1  0  -0.182356  0  3.642908  0  0  -0.278067  0  3.884086  0  0  -0.275162  0  3.894232  0  0  -0.144233  -0.279679  0  3.877257  0
C  C61  1  0.78560209  0.90822103  0.43960351  1  0  -0.182512  0  3.642899  0  0  -0.278211  0  3.88408  0  0  -0.275299  0  3.894231  0  0  -0.144248  -0.279821  0  3.877247  0
C  C62  1  0.71439704  0.90822316  0.93960177  1  0  -0.18237  0  3.642908  0  0  -0.278092  0  3.884066  0  0  -0.275182  0  3.894217  0  0  -0.144247  -0.279702  0  3.877234  0
C  C63  1  0.21439485  0.09177915  0.56039709  1  0  -0.182434  0  3.642927  0  0  -0.278131  0  3.884095  0  0  -0.275218  0  3.894249  0  0  -0.144252  -0.279743  0  3.877264  0
C  C64  1  0.24955195  0.23064272  0.86964528  1  0  -0.457346  0  3.678074  0  0  -0.534437  0  3.915364  0  0  -0.541349  0  3.918516  0  0  -0.249543  -0.529348  0  3.913304  0
C  C65  1  0.74955077  0.76935850  0.63035507  1  0  -0.457436  0  3.678229  0  0  -0.534495  0  3.915513  0  0  -0.541406  0  3.918661  0  0  -0.24955  -0.529406  0  3.91345  0
C  C66  1  0.75044849  0.76935954  0.13035392  1  0  -0.457379  0  3.678186  0  0  -0.534451  0  3.915453  0  0  -0.541373  0  3.918594  0  0  -0.249536  -0.529357  0  3.913395  0
C  C67  1  0.25044735  0.23064166  0.36964393  1  0  -0.457574  0  3.678099  0  0  -0.534662  0  3.915388  0  0  -0.541575  0  3.918535  0  0  -0.249642  -0.52956  0  3.913341  0
C  C68  1  0.01733594  0.17823806  0.11937001  1  0  -0.16799  0  3.64449  0  0  -0.268669  0  3.8913  0  0  -0.264657  0  3.90101  0  0  -0.143299  -0.271093  0  3.884745  0
C  C69  1  0.51733594  0.82176354  0.38063101  1  0  -0.168039  0  3.644573  0  0  -0.268769  0  3.891389  0  0  -0.264762  0  3.901097  0  0  -0.1433  -0.271196  0  3.884832  0
C  C70  1  0.98266218  0.82176420  0.88062999  1  0  -0.168012  0  3.644636  0  0  -0.26872  0  3.891448  0  0  -0.26469  0  3.901173  0  0  -0.143286  -0.271136  0  3.884897  0
C  C71  1  0.48266217  0.17823558  0.61936788  1  0  -0.167953  0  3.644557  0  0  -0.268657  0  3.891384  0  0  -0.264626  0  3.901109  0  0  -0.143269  -0.271101  0  3.884811  0
N  N72  1  0.52510533  0.57091222  0.79714850  1  0  -0.316138  0  3.251119  0  0  -0.248104  0  3.560331  0  0  -0.265023  0  3.57108  0  0  -0.242236  -0.236813  0  3.553157  0
N  N73  1  0.02510835  0.42908414  0.70285213  1  0  -0.31608  0  3.251316  0  0  -0.247992  0  3.560448  0  0  -0.264914  0  3.571206  0  0  -0.24221  -0.236699  0  3.553271  0
N  N74  1  0.47489743  0.42908484  0.20285419  1  0  -0.315918  0  3.251173  0  0  -0.247832  0  3.560303  0  0  -0.264751  0  3.571052  0  0  -0.2422  -0.236542  0  3.553131  0
N  N75  1  0.97489209  0.57091184  0.29714567  1  0  -0.315996  0  3.251221  0  0  -0.247948  0  3.560376  0  0  -0.264869  0  3.571131  0  0  -0.242192  -0.236657  0  3.553201  0
N  N76  1  0.65366295  0.50282412  0.76290280  1  0  -0.021673  0  2.985744  0  0  -0.017682  0  3.267445  0  0  -0.008629  0  3.277563  0  0  -0.081901  -0.023363  0  3.260546  0
N  N77  1  0.15366119  0.49717308  0.73709714  1  0  -0.021738  0  2.98588  0  0  -0.017763  0  3.267573  0  0  -0.008716  0  3.277696  0  0  -0.08193  -0.023444  0  3.26067  0
N  N78  1  0.34634097  0.49717084  0.23709809  1  0  -0.021896  0  2.985829  0  0  -0.017938  0  3.267546  0  0  -0.008886  0  3.277665  0  0  -0.081985  -0.023619  0  3.260644  0
N  N79  1  0.84633924  0.50282291  0.26290066  1  0  -0.021797  0  2.985863  0  0  -0.017826  0  3.26758  0  0  -0.00877  0  3.277697  0  0  -0.081958  -0.02351  0  3.260687  0
N  N80  1  0.71107822  0.43443573  0.83941925  1  0  -0.305985  0  3.239488  0  0  -0.236948  0  3.542468  0  0  -0.253281  0  3.552492  0  0  -0.243907  -0.225936  0  3.535604  0
N  N81  1  0.21107162  0.56556660  0.66058200  1  0  -0.305986  0  3.239432  0  0  -0.236936  0  3.542429  0  0  -0.253258  0  3.552446  0  0  -0.243926  -0.225922  0  3.535564  0
N  N82  1  0.28892454  0.56556446  0.16058295  1  0  -0.305883  0  3.239397  0  0  -0.2368  0  3.542386  0  0  -0.253133  0  3.552412  0  0  -0.243884  -0.225788  0  3.535524  0
N  N83  1  0.78892416  0.43443252  0.33941690  1  0  -0.305993  0  3.239412  0  0  -0.23692  0  3.542406  0  0  -0.253257  0  3.552434  0  0  -0.2439  -0.225907  0  3.535545  0
N  N84  1  0.14434782  0.16983678  0.04070384  1  0  -0.114857  0  3.400741  0  0  -0.011138  0  3.624216  0  0  -0.031518  0  3.647444  0  0  -0.267374  0.002388  0  3.608191  0
N  N85  1  0.64434552  0.83016461  0.45929719  1  0  -0.114692  0  3.400758  0  0  -0.010974  0  3.624215  0  0  -0.031381  0  3.647481  0  0  -0.267377  0.002551  0  3.60819  0
N  N86  1  0.85565378  0.83016443  0.95929526  1  0  -0.114801  0  3.400774  0  0  -0.011092  0  3.624243  0  0  -0.031502  0  3.647504  0  0  -0.267382  0.002435  0  3.608214  0
N  N87  1  0.35565259  0.16983556  0.54070260  1  0  -0.114809  0  3.400721  0  0  -0.0111  0  3.624201  0  0  -0.031511  0  3.647463  0  0  -0.267404  0.002428  0  3.60818  0
Cl  Cl88  1  0.85705474  0.10620591  0.71639320  1  0  -0.585739  0  0.945941  0  0  -0.51707  0  1.220691  0  0  -0.533255  0  1.197459  0  0  -0.295816  -0.505346  0  1.236569  0
Cl  Cl89  1  0.35705335  0.89379304  0.78360616  1  0  -0.585763  0  0.945956  0  0  -0.517084  0  1.220693  0  0  -0.533266  0  1.197462  0  0  -0.295807  -0.505358  0  1.236567  0
Cl  Cl90  1  0.14294802  0.89379216  0.28360480  1  0  -0.585756  0  0.945954  0  0  -0.517079  0  1.220694  0  0  -0.533269  0  1.197473  0  0  -0.295812  -0.505355  0  1.236568  0
Cl  Cl91  1  0.64294708  0.10620296  0.21639483  1  0  -0.585762  0  0.945969  0  0  -0.517081  0  1.220707  0  0  -0.533267  0  1.197481  0  0  -0.295818  -0.505355  0  1.236581  0
O  O92  1  0.99756111  0.29822393  0.94220518  1  0  -0.594658  0  2.059152  0  0  -0.519767  0  2.326858  0  0  -0.545288  0  2.313171  0  0  -0.315715  -0.50204  0  2.335577  0
O  O93  1  0.49755883  0.70177585  0.55779590  1  0  -0.594635  0  2.058985  0  0  -0.519757  0  2.326712  0  0  -0.545274  0  2.31302  0  0  -0.315706  -0.502031  0  2.335428  0
O  O94  1  0.00244049  0.70177937  0.05779493  1  0  -0.594629  0  2.059156  0  0  -0.519779  0  2.326896  0  0  -0.545299  0  2.313202  0  0  -0.315714  -0.502053  0  2.335614  0
O  O95  1  0.50243928  0.29822014  0.44220350  1  0  -0.594667  0  2.059175  0  0  -0.519766  0  2.326895  0  0  -0.545287  0  2.313201  0  0  -0.315723  -0.502041  0  2.335616  0
