# generated using pymatgen
data_CoH8C8(NO)4
_symmetry_space_group_name_H-M   'P 1'
_cell_length_a   8.21840596
_cell_length_b   8.21327255
_cell_length_c   9.14261737
_cell_angle_alpha   84.07116722
_cell_angle_beta   84.44655815
_cell_angle_gamma   76.12974417
_symmetry_Int_Tables_number   1
_chemical_formula_structural   CoH8C8(NO)4
_chemical_formula_sum   'Co2 H16 C16 N8 O8'
_cell_volume   594.26783276
_cell_formula_units_Z   2
loop_
 _symmetry_equiv_pos_site_id
 _symmetry_equiv_pos_as_xyz
  1  'x, y, z'
loop_
 _atom_site_type_symbol
 _atom_site_label
 _atom_site_symmetry_multiplicity
 _atom_site_fract_x
 _atom_site_fract_y
 _atom_site_fract_z
 _atom_site_occupancy
 _atom_site_hse06_10hf_ddec_charge
 _atom_site_hse06_10hf_ddec_spin_density
 _atom_site_hse06_10hf_ddec_sum_bond_order
 _atom_site_hse06_10hf_magmom
 _atom_site_hse06_ddec_charge
 _atom_site_hse06_ddec_spin_density
 _atom_site_hse06_ddec_sum_bond_order
 _atom_site_hse06_magmom
 _atom_site_pbe_cm5_charge
 _atom_site_pbe_ddec_charge
 _atom_site_pbe_ddec_spin_density
 _atom_site_pbe_ddec_sum_bond_order
 _atom_site_pbe_magmom
Co  Co0  1  0.64908080  0.34331801  0.75491318  1  0.88568  2.861257  2.462037  2.639  0.962955  2.90344  2.393479  2.713  0.641731  0.797317  2.768426  2.534419  2.533
Co  Co1  1  0.35038020  0.64929004  0.25039952  1  0.677392  -1.007819  2.949097  -0.93  0.747796  -1.017785  2.875648  -0.945  0.628085  0.647524  -0.928278  2.987446  -0.846
H  H2  1  0.20457125  0.21487805  0.02936340  1  0.11035  0.000325  1.047134  0.0  0.113126  0.000237  1.045626  0.0  0.11545  0.107608  0.000411  1.049338  0.0
H  H3  1  0.79264413  0.79604211  0.46940112  1  0.110132  0.000288  1.045969  0.0  0.112764  0.000201  1.044716  0.0  0.115989  0.107327  0.000371  1.048187  0.0
H  H4  1  0.80993209  0.79746390  0.97423387  1  0.114809  -3.2e-05  1.033774  0.0  0.11726  -3.5e-05  1.032724  0.0  0.118768  0.113705  -4.3e-05  1.033635  0.0
H  H5  1  0.20137268  0.18882843  0.52527921  1  0.114665  -3.7e-05  1.033171  0.0  0.117023  -3.9e-05  1.032234  0.0  0.119162  0.113538  -4.6e-05  1.033015  0.0
H  H6  1  0.87362726  0.18150486  0.03329617  1  0.113009  0.00013  1.008852  0.0  0.115493  8.2e-05  1.007962  0.0  0.116497  0.110796  0.000159  1.010179  0.001
H  H7  1  0.81871896  0.12955517  0.46673205  1  0.113628  0.000132  1.009067  0.0  0.116068  8.5e-05  1.008233  0.0  0.116384  0.111298  0.000165  1.010525  0.001
H  H8  1  0.14060945  0.82991466  0.97464799  1  0.117617  -0.0  1.007818  0.0  0.119787  -3e-06  1.007125  0.0  0.119693  0.116442  -2e-06  1.008007  0.0
H  H9  1  0.17045055  0.85753601  0.52591748  1  0.116684  2e-06  1.009445  0.0  0.11888  -3e-06  1.008704  0.0  0.11896  0.115479  4e-06  1.009689  0.0
H  H10  1  0.25446660  0.37813237  0.77517017  1  0.290202  0.000102  1.008555  0.0  0.299621  2e-06  1.000998  0.0  0.309498  0.282866  0.000214  1.014764  0.001
H  H11  1  0.63083566  0.74070063  0.72367544  1  0.292172  0.00018  1.005262  0.0  0.30156  9.1e-05  0.997676  0.0  0.309279  0.28497  0.00027  1.011405  0.0
H  H12  1  0.75568388  0.63342474  0.22466217  1  0.287285  7.9e-05  0.988189  0.0  0.296355  7.6e-05  0.981143  0.0  0.311158  0.281238  9.4e-05  0.992688  0.0
H  H13  1  0.36475736  0.24450914  0.27550476  1  0.28998  7.6e-05  0.985387  0.0  0.298986  7.6e-05  0.978373  0.0  0.312835  0.283923  7.8e-05  0.990004  0.0
H  H14  1  0.99433325  0.44988311  0.63520486  1  0.097681  -6e-06  1.016648  0.0  0.100899  -9e-06  1.011579  0.0  0.132536  0.094776  -1.8e-05  1.02092  0.0
H  H15  1  0.54747415  0.00079266  0.85977430  1  0.09867  -3.7e-05  1.014539  0.0  0.10196  -2.8e-05  1.009353  0.0  0.133354  0.095613  -4.3e-05  1.018835  0.0
H  H16  1  0.01728519  0.55332068  0.36763454  1  0.103348  9.2e-05  1.020918  0.0  0.106659  5e-05  1.015222  0.0  0.135537  0.101002  0.00013  1.025028  0.0
H  H17  1  0.44504539  0.98328474  0.13352892  1  0.104838  9.2e-05  1.018778  0.0  0.108079  4.9e-05  1.013148  0.0  0.135804  0.102651  0.000129  1.022728  0.0
C  C18  1  0.11106316  0.25755751  0.94970695  1  -0.046053  0.00128  3.963296  0.002  -0.044361  0.000909  3.982227  0.001  -0.004704  -0.04843  0.00164  3.953914  0.002
C  C19  1  0.74676764  0.88901785  0.54843052  1  -0.046171  0.003033  3.957156  0.004  -0.044958  0.002182  3.976623  0.003  -0.003948  -0.048402  0.003702  3.947823  0.004
C  C20  1  0.90236865  0.75329032  0.05480272  1  -0.047326  -0.00015  3.961054  0.0  -0.046024  -0.000213  3.980468  0.0  -0.000376  -0.046746  -8.9e-05  3.944951  0.0
C  C21  1  0.24610520  0.09655399  0.44535135  1  -0.048233  -0.000147  3.961326  0.0  -0.046882  -0.000214  3.980747  0.0  -0.001249  -0.047672  -6.4e-05  3.945219  0.0
C  C22  1  0.94773515  0.24227970  0.95023190  1  -0.048718  0.001034  4.026168  0.002  -0.047113  0.000703  4.047847  0.001  -0.010833  -0.050963  0.001118  4.012202  0.002
C  C23  1  0.75817124  0.05356052  0.54830725  1  -0.038259  -0.000596  4.017542  -0.001  -0.036399  -0.000796  4.039314  -0.001  -0.007194  -0.040867  -0.000483  4.004734  -0.001
C  C24  1  0.06574565  0.76803949  0.05598850  1  -0.052688  0.00125  3.998775  0.002  -0.050285  0.000848  4.019953  0.001  -0.005725  -0.053771  0.001247  3.983022  0.002
C  C25  1  0.23195881  0.93283546  0.44458555  1  -0.051843  0.001241  3.999144  0.002  -0.049381  0.000833  4.020119  0.001  -0.004868  -0.052972  0.001272  3.983503  0.002
C  C26  1  0.00414872  0.38051221  0.74265283  1  0.152672  6.9e-05  3.954123  0.0  0.167634  -0.000357  3.965835  0.0  0.136491  0.141263  0.000315  3.946762  0.001
C  C27  1  0.61773189  0.99322091  0.75305669  1  0.149647  0.004003  3.963032  0.005  0.163855  0.002907  3.97558  0.004  0.137433  0.13901  0.004492  3.955452  0.006
C  C28  1  0.00749431  0.62460421  0.26119899  1  0.140086  0.002396  3.922009  0.003  0.156585  0.001861  3.931849  0.003  0.138726  0.129667  0.002468  3.914789  0.003
C  C29  1  0.37447243  0.99241790  0.23980216  1  0.139778  0.002398  3.918533  0.003  0.156183  0.001879  3.928517  0.003  0.139141  0.129397  0.002443  3.911027  0.003
C  C30  1  0.41046112  0.49072124  0.53723411  1  0.494296  0.001123  4.194279  0.002  0.526671  0.000674  4.185635  0.001  0.209279  0.469633  0.000493  4.199816  0.001
C  C31  1  0.51453122  0.58992652  0.96582828  1  0.490858  0.000153  4.201982  0.0  0.523144  2.6e-05  4.192938  0.0  0.207197  0.466317  -0.000856  4.208326  -0.001
C  C32  1  0.57935778  0.51649535  0.46052965  1  0.485967  0.000656  4.168271  0.0  0.51976  8.4e-05  4.159666  0.0  0.208994  0.460504  -0.00026  4.174794  -0.001
C  C33  1  0.48143741  0.42238194  0.04010824  1  0.494163  -9.6e-05  4.149346  -0.001  0.528793  -0.000348  4.139639  -0.001  0.210452  0.467445  -0.0014  4.157806  -0.003
N  N34  1  0.88269161  0.31927682  0.81986778  1  -0.338077  0.031056  3.665227  0.041  -0.365598  0.025809  3.683336  0.033  -0.367319  -0.313525  0.034238  3.650917  0.045
N  N35  1  0.67705017  0.11724565  0.67713489  1  -0.348571  0.029415  3.678067  0.039  -0.376517  0.024307  3.696469  0.032  -0.371151  -0.324759  0.03209  3.666366  0.042
N  N36  1  0.12981612  0.68711352  0.18566836  1  -0.269424  0.00322  3.72042  0.006  -0.298217  0.002952  3.738255  0.006  -0.367963  -0.251721  0.002789  3.707269  0.005
N  N37  1  0.31267533  0.86938972  0.31541810  1  -0.268441  0.003007  3.716778  0.006  -0.297002  0.002768  3.734386  0.006  -0.366705  -0.250834  0.002673  3.703789  0.005
N  N38  1  0.14335336  0.34556771  0.81815859  1  -0.219079  0.001809  3.708113  0.003  -0.235188  0.00124  3.722161  0.002  -0.383637  -0.209444  0.002211  3.701862  0.004
N  N39  1  0.65765968  0.85406024  0.67844671  1  -0.214857  0.001774  3.702832  0.002  -0.230872  0.001175  3.717392  0.002  -0.381574  -0.205294  0.002169  3.695996  0.003
N  N40  1  0.86858882  0.66278783  0.18468271  1  -0.211081  0.000551  3.713615  0.001  -0.22681  0.000423  3.727171  0.001  -0.37614  -0.199854  0.000613  3.702403  0.001
N  N41  1  0.33604106  0.13114096  0.31574784  1  -0.214402  0.00054  3.711939  0.001  -0.230192  0.000419  3.725563  0.0  -0.379063  -0.203067  0.000585  3.700664  0.001
O  O42  1  0.41479634  0.43108528  0.67140591  1  -0.536871  0.025695  2.458129  0.038  -0.570606  0.020974  2.449845  0.031  -0.298331  -0.505289  0.030184  2.462037  0.046
O  O43  1  0.58788909  0.58251659  0.83684423  1  -0.536238  0.02536  2.460363  0.041  -0.568891  0.020958  2.45259  0.034  -0.296235  -0.507171  0.027838  2.46505  0.045
O  O44  1  0.57294374  0.59070937  0.32958125  1  -0.493313  0.00166  2.457978  0.003  -0.529864  0.001753  2.451053  0.004  -0.2894  -0.469451  0.001073  2.462125  0.002
O  O45  1  0.40754059  0.42719059  0.17036740  1  -0.489799  0.000743  2.45687  0.002  -0.525155  0.001205  2.449193  0.003  -0.287209  -0.467344  -0.000546  2.462361  -0.001
O  O46  1  0.28205782  0.52936819  0.46465592  1  -0.50725  -0.022206  2.293103  -0.035  -0.534735  -0.01957  2.281051  -0.031  -0.29017  -0.486107  -0.023555  2.299268  -0.037
O  O47  1  0.46841877  0.71965543  0.03589651  1  -0.510871  -0.024349  2.288249  -0.039  -0.537848  -0.02109  2.275906  -0.034  -0.292735  -0.490182  -0.026422  2.294278  -0.042
O  O48  1  0.71037398  0.46497623  0.52862749  1  -0.52231  0.022236  2.244068  0.037  -0.550247  0.017586  2.232266  0.029  -0.294564  -0.497537  0.025295  2.252359  0.041
O  O49  1  0.52729418  0.29212430  0.97033950  1  -0.525732  0.027015  2.271005  0.045  -0.554751  0.021627  2.257558  0.036  -0.297339  -0.499906  0.030705  2.28067  0.05
