# generated using pymatgen
data_CaH6C3(NO)4
_symmetry_space_group_name_H-M   'P 1'
_cell_length_a   8.70585900
_cell_length_b   7.96515750
_cell_length_c   11.01221007
_cell_angle_alpha   89.99967265
_cell_angle_beta   90.00038488
_cell_angle_gamma   90.00073205
_symmetry_Int_Tables_number   1
_chemical_formula_structural   CaH6C3(NO)4
_chemical_formula_sum   'Ca4 H24 C12 N16 O16'
_cell_volume   763.62560891
_cell_formula_units_Z   4
loop_
 _symmetry_equiv_pos_site_id
 _symmetry_equiv_pos_as_xyz
  1  'x, y, z'
loop_
 _atom_site_type_symbol
 _atom_site_label
 _atom_site_symmetry_multiplicity
 _atom_site_fract_x
 _atom_site_fract_y
 _atom_site_fract_z
 _atom_site_occupancy
 _atom_site_hle17_bader_spin_density
 _atom_site_hle17_ddec_charge
 _atom_site_hle17_ddec_spin_density
 _atom_site_hle17_ddec_sum_bond_order
 _atom_site_hle17_magmom
 _atom_site_hse06_10hf_bader_spin_density
 _atom_site_hse06_10hf_ddec_charge
 _atom_site_hse06_10hf_ddec_spin_density
 _atom_site_hse06_10hf_ddec_sum_bond_order
 _atom_site_hse06_10hf_magmom
 _atom_site_hse06_bader_spin_density
 _atom_site_hse06_ddec_charge
 _atom_site_hse06_ddec_spin_density
 _atom_site_hse06_ddec_sum_bond_order
 _atom_site_hse06_magmom
 _atom_site_pbe_bader_spin_density
 _atom_site_pbe_cm5_charge
 _atom_site_pbe_ddec_charge
 _atom_site_pbe_ddec_spin_density
 _atom_site_pbe_ddec_sum_bond_order
 _atom_site_pbe_magmom
Ca  Ca0  1  0.96109244  0.74999528  0.70567311  1  0  1.480823  0  1.191859  0  0  1.322575  0  1.572455  0  0  1.365384  0  1.528311  0  0  0.924816  1.291001  0  1.603117  0
Ca  Ca1  1  0.53890497  0.24999919  0.20566988  1  0  1.480731  0  1.191987  0  0  1.322639  0  1.572312  0  0  1.36536  0  1.528329  0  0  0.924791  1.291049  0  1.602968  0
Ca  Ca2  1  0.46109391  0.75000409  0.79433064  1  0  1.480805  0  1.191924  0  0  1.322734  0  1.572248  0  0  1.36539  0  1.528367  0  0  0.924796  1.29114  0  1.602904  0
Ca  Ca3  1  0.03890873  0.24999545  0.29433014  1  0  1.480804  0  1.191814  0  0  1.322682  0  1.572209  0  0  1.365325  0  1.528341  0  0  0.924787  1.291082  0  1.602869  0
H  H4  1  0.92060281  0.38368439  0.76128841  1  0  0.397451  0  0.919466  0  0  0.358583  0  0.99687  0  0  0.368883  0  0.982134  0  0  0.295212  0.351314  0  1.007256  0
H  H5  1  0.57939967  0.61631341  0.26129473  1  0  0.39741  0  0.919503  0  0  0.358559  0  0.996895  0  0  0.368859  0  0.982159  0  0  0.295218  0.35129  0  1.007281  0
H  H6  1  0.42060564  0.11630532  0.73871362  1  0  0.397586  0  0.919281  0  0  0.358719  0  0.99669  0  0  0.369019  0  0.981953  0  0  0.295285  0.35145  0  1.007077  0
H  H7  1  0.07938964  0.88368962  0.23870700  1  0  0.397463  0  0.919471  0  0  0.358592  0  0.99688  0  0  0.368894  0  0.982142  0  0  0.295204  0.351322  0  1.007267  0
H  H8  1  0.07939607  0.61630006  0.23870757  1  0  0.397546  0  0.919326  0  0  0.358652  0  0.996768  0  0  0.368953  0  0.982031  0  0  0.295246  0.351382  0  1.007156  0
H  H9  1  0.42060610  0.38369614  0.73870669  1  0  0.397517  0  0.919366  0  0  0.358629  0  0.996794  0  0  0.36893  0  0.982058  0  0  0.295247  0.351361  0  1.007179  0
H  H10  1  0.57938635  0.88370172  0.26128690  1  0  0.397549  0  0.919307  0  0  0.358666  0  0.996734  0  0  0.368966  0  0.981998  0  0  0.295286  0.351398  0  1.00712  0
H  H11  1  0.92061384  0.11629608  0.76128807  1  0  0.397577  0  0.919287  0  0  0.358688  0  0.996719  0  0  0.368988  0  0.981984  0  0  0.295296  0.35142  0  1.007105  0
H  H12  1  0.96378465  0.38846228  0.62128937  1  0  0.429941  0  0.869621  0  0  0.396479  0  0.937992  0  0  0.407036  0  0.922528  0  0  0.304391  0.388948  0  0.949017  0
H  H13  1  0.53622008  0.61153409  0.12129276  1  0  0.430007  0  0.869537  0  0  0.396503  0  0.937994  0  0  0.40706  0  0.92253  0  0  0.304378  0.388965  0  0.949035  0
H  H14  1  0.46380011  0.11153807  0.87871017  1  0  0.429982  0  0.869582  0  0  0.396536  0  0.937925  0  0  0.407091  0  0.922465  0  0  0.304418  0.389003  0  0.948955  0
H  H15  1  0.03618832  0.88846459  0.37870693  1  0  0.43002  0  0.869535  0  0  0.396524  0  0.937968  0  0  0.40708  0  0.922505  0  0  0.304402  0.388988  0  0.949004  0
H  H16  1  0.03623146  0.61152845  0.37872386  1  0  0.4299  0  0.869665  0  0  0.396451  0  0.938013  0  0  0.407005  0  0.922554  0  0  0.304355  0.388922  0  0.949033  0
H  H17  1  0.46377305  0.38847045  0.87871321  1  0  0.430013  0  0.869543  0  0  0.396532  0  0.937957  0  0  0.407087  0  0.922495  0  0  0.304401  0.388996  0  0.948993  0
H  H18  1  0.53621026  0.88846772  0.12128763  1  0  0.429956  0  0.86962  0  0  0.396502  0  0.93798  0  0  0.407058  0  0.922517  0  0  0.304413  0.38897  0  0.949007  0
H  H19  1  0.96378873  0.11153241  0.62128633  1  0  0.429941  0  0.869618  0  0  0.396474  0  0.938  0  0  0.407031  0  0.922537  0  0  0.30441  0.388941  0  0.949029  0
H  H20  1  0.31955925  0.64085557  0.38518829  1  0  0.145443  0  0.913988  0  0  0.15707  0  0.974778  0  0  0.160575  0  0.97205  0  0  0.126924  0.154597  0  0.976803  0
H  H21  1  0.18044188  0.35915081  0.88518806  1  0  0.14546  0  0.913924  0  0  0.157094  0  0.974706  0  0  0.160596  0  0.971978  0  0  0.126937  0.15462  0  0.976736  0
H  H22  1  0.81955831  0.85914696  0.11480836  1  0  0.145444  0  0.913989  0  0  0.157054  0  0.974757  0  0  0.160555  0  0.972034  0  0  0.126923  0.154581  0  0.976786  0
H  H23  1  0.68043833  0.14085322  0.61481270  1  0  0.145443  0  0.914019  0  0  0.157052  0  0.974767  0  0  0.160555  0  0.97204  0  0  0.126916  0.154579  0  0.976797  0
H  H24  1  0.68043849  0.35913515  0.61480678  1  0  0.145432  0  0.914145  0  0  0.157038  0  0.974889  0  0  0.16054  0  0.972164  0  0  0.126901  0.154563  0  0.976921  0
H  H25  1  0.81955471  0.64085875  0.11481064  1  0  0.145478  0  0.913969  0  0  0.157065  0  0.974757  0  0  0.160568  0  0.972029  0  0  0.126936  0.154592  0  0.976787  0
H  H26  1  0.18044516  0.14086008  0.88519125  1  0  0.145331  0  0.91406  0  0  0.156952  0  0.974887  0  0  0.160454  0  0.972162  0  0  0.126862  0.154479  0  0.976915  0
H  H27  1  0.31955251  0.85916010  0.38519418  1  0  0.145479  0  0.913993  0  0  0.157112  0  0.974768  0  0  0.160613  0  0.972046  0  0  0.12693  0.154639  0  0.976797  0
C  C28  1  0.22242369  0.74999465  0.54269932  1  0  0.75288  0  3.808228  0  0  0.699878  0  4.104894  0  0  0.734428  0  4.096674  0  0  0.235423  0.676372  0  4.109688  0
C  C29  1  0.27757567  0.25000682  0.04269554  1  0  0.752451  0  3.808956  0  0  0.699459  0  4.105641  0  0  0.734002  0  4.097414  0  0  0.235337  0.675956  0  4.110426  0
C  C30  1  0.72242551  0.75000148  0.95730135  1  0  0.752842  0  3.80814  0  0  0.699824  0  4.104778  0  0  0.734377  0  4.096545  0  0  0.235478  0.676322  0  4.109567  0
C  C31  1  0.77757979  0.24998855  0.45730574  1  0  0.752772  0  3.808315  0  0  0.699786  0  4.104897  0  0  0.734339  0  4.096662  0  0  0.2354  0.676282  0  4.10969  0
C  C32  1  0.34341880  0.75000840  0.44393473  1  0  -0.366016  0  3.673531  0  0  -0.402459  0  3.913147  0  0  -0.409092  0  3.916105  0  0  -0.139962  -0.398005  0  3.911191  0
C  C33  1  0.15658283  0.25000506  0.94393393  1  0  -0.365734  0  3.673428  0  0  -0.402148  0  3.913085  0  0  -0.408773  0  3.916035  0  0  -0.139919  -0.397693  0  3.911129  0
C  C34  1  0.84342180  0.75000199  0.05605751  1  0  -0.36606  0  3.67342  0  0  -0.402331  0  3.912951  0  0  -0.408979  0  3.915885  0  0  -0.139963  -0.397863  0  3.911007  0
C  C35  1  0.65657779  0.24999864  0.55606034  1  0  -0.366017  0  3.673695  0  0  -0.402275  0  3.913128  0  0  -0.408923  0  3.916079  0  0  -0.139899  -0.397808  0  3.911188  0
C  C36  1  0.50951397  0.75001443  0.47641366  1  0  0.371617  0  3.744181  0  0  0.346161  0  4.013725  0  0  0.35821  0  4.030855  0  0  0.228173  0.338186  0  4.001958  0
C  C37  1  0.99048574  0.24999805  0.97641191  1  0  0.371503  0  3.744301  0  0  0.345958  0  4.013958  0  0  0.358005  0  4.031088  0  0  0.228126  0.337981  0  4.002192  0
C  C38  1  0.00952003  0.74999895  0.02358588  1  0  0.371531  0  3.744467  0  0  0.345903  0  4.014144  0  0  0.358013  0  4.0312  0  0  0.228038  0.337882  0  4.002435  0
C  C39  1  0.49048261  0.24999262  0.52359049  1  0  0.371553  0  3.744573  0  0  0.345892  0  4.01428  0  0  0.357985  0  4.031356  0  0  0.228064  0.337871  0  4.002571  0
N  N40  1  0.57644638  0.75000442  0.58601037  1  0  -0.402591  0  3.036908  0  0  -0.360577  0  3.31702  0  0  -0.375959  0  3.332788  0  0  -0.278303  -0.349957  0  3.306047  0
N  N41  1  0.92355691  0.25000728  0.08600554  1  0  -0.402642  0  3.03706  0  0  -0.360575  0  3.31718  0  0  -0.375957  0  3.332949  0  0  -0.278296  -0.349951  0  3.306205  0
N  N42  1  0.07644771  0.74999474  0.91399407  1  0  -0.402643  0  3.03694  0  0  -0.360538  0  3.317061  0  0  -0.375967  0  3.332812  0  0  -0.27829  -0.349909  0  3.306104  0
N  N43  1  0.42355480  0.24999509  0.41399469  1  0  -0.402605  0  3.037119  0  0  -0.360516  0  3.317255  0  0  -0.375927  0  3.33301  0  0  -0.278268  -0.349881  0  3.30629  0
N  N44  1  0.73016919  0.75001057  0.56258587  1  0  -0.164071  0  3.100097  0  0  -0.132468  0  3.403846  0  0  -0.137879  0  3.417671  0  0  -0.136516  -0.128401  0  3.39423  0
N  N45  1  0.76983505  0.24999377  0.06258205  1  0  -0.16394  0  3.100126  0  0  -0.132355  0  3.403857  0  0  -0.137751  0  3.417673  0  0  -0.136455  -0.128285  0  3.39424  0
N  N46  1  0.23016958  0.74999444  0.93741847  1  0  -0.164008  0  3.099936  0  0  -0.13243  0  3.403658  0  0  -0.137822  0  3.417491  0  0  -0.136457  -0.128361  0  3.394039  0
N  N47  1  0.26983314  0.24999898  0.43741374  1  0  -0.16415  0  3.100098  0  0  -0.132583  0  3.403861  0  0  -0.137973  0  3.417687  0  0  -0.136547  -0.128509  0  3.394239  0
N  N48  1  0.75441213  0.75001747  0.44514902  1  0  -0.047007  0  2.969256  0  0  -0.047826  0  3.253397  0  0  -0.04403  0  3.264158  0  0  -0.080803  -0.050303  0  3.246374  0
N  N49  1  0.74558502  0.24998144  0.94514778  1  0  -0.047056  0  2.969344  0  0  -0.04789  0  3.253512  0  0  -0.044089  0  3.26426  0  0  -0.080824  -0.050365  0  3.246483  0
N  N50  1  0.25441616  0.74999799  0.05485637  1  0  -0.046936  0  2.969311  0  0  -0.047742  0  3.253452  0  0  -0.043943  0  3.264201  0  0  -0.080853  -0.050209  0  3.246397  0
N  N51  1  0.24558330  0.24999837  0.55484969  1  0  -0.046876  0  2.969173  0  0  -0.047665  0  3.253299  0  0  -0.043869  0  3.264054  0  0  -0.08078  -0.050148  0  3.246281  0
N  N52  1  0.61753166  0.75001675  0.38824000  1  0  -0.375355  0  3.090665  0  0  -0.31068  0  3.343832  0  0  -0.326544  0  3.355021  0  0  -0.217505  -0.299993  0  3.336317  0
N  N53  1  0.88246156  0.24998258  0.88823496  1  0  -0.375365  0  3.090719  0  0  -0.31065  0  3.343899  0  0  -0.326516  0  3.355092  0  0  -0.217515  -0.29996  0  3.336379  0
N  N54  1  0.11753961  0.75000186  0.11176647  1  0  -0.375333  0  3.091008  0  0  -0.310629  0  3.344228  0  0  -0.326515  0  3.355398  0  0  -0.217395  -0.299929  0  3.336722  0
N  N55  1  0.38245803  0.24999531  0.61176687  1  0  -0.375324  0  3.090969  0  0  -0.310626  0  3.344206  0  0  -0.326505  0  3.355382  0  0  -0.217438  -0.299924  0  3.3367  0
O  O56  1  0.08251316  0.74998254  0.50600695  1  0  -0.711234  0  2.00793  0  0  -0.63708  0  2.2329  0  0  -0.665642  0  2.22339  0  0  -0.342926  -0.61692  0  2.238599  0
O  O57  1  0.41749967  0.25001796  0.00600119  1  0  -0.711276  0  2.007919  0  0  -0.637159  0  2.232874  0  0  -0.665743  0  2.223436  0  0  -0.343042  -0.616996  0  2.238573  0
O  O58  1  0.58250380  0.75000164  0.99399479  1  0  -0.711327  0  2.00758  0  0  -0.637262  0  2.232644  0  0  -0.665802  0  2.223113  0  0  -0.343074  -0.617092  0  2.238341  0
O  O59  1  0.91749836  0.24999312  0.49399084  1  0  -0.711255  0  2.008016  0  0  -0.637197  0  2.233029  0  0  -0.665737  0  2.223506  0  0  -0.342979  -0.617028  0  2.238722  0
O  O60  1  0.25421540  0.75000196  0.65500747  1  0  -0.705116  0  1.959359  0  0  -0.634419  0  2.201754  0  0  -0.662849  0  2.191389  0  0  -0.361176  -0.614314  0  2.208153  0
O  O61  1  0.24577457  0.24999864  0.15498263  1  0  -0.704634  0  1.959869  0  0  -0.633962  0  2.202254  0  0  -0.662364  0  2.191892  0  0  -0.360961  -0.613861  0  2.208646  0
O  O62  1  0.75422545  0.74999836  0.84500426  1  0  -0.704959  0  1.959427  0  0  -0.634236  0  2.201797  0  0  -0.66267  0  2.191424  0  0  -0.361093  -0.614136  0  2.20819  0
O  O63  1  0.74577774  0.24999755  0.34500304  1  0  -0.704965  0  1.959224  0  0  -0.63428  0  2.201568  0  0  -0.662701  0  2.191201  0  0  -0.36111  -0.614175  0  2.207963  0
O  O64  1  0.95482705  0.45931552  0.69461144  1  0  -0.889812  0  1.845413  0  0  -0.833705  0  2.048207  0  0  -0.854506  0  2.015944  0  0  -0.642134  -0.818709  0  2.070638  0
O  O65  1  0.54517716  0.54068656  0.19461700  1  0  -0.889824  0  1.845344  0  0  -0.833768  0  2.048106  0  0  -0.85455  0  2.015849  0  0  -0.64211  -0.818768  0  2.070544  0
O  O66  1  0.45483185  0.04067968  0.80539168  1  0  -0.889964  0  1.845293  0  0  -0.833885  0  2.04804  0  0  -0.854651  0  2.015783  0  0  -0.642215  -0.818886  0  2.070479  0
O  O67  1  0.04515941  0.95931224  0.30538455  1  0  -0.88991  0  1.845376  0  0  -0.833813  0  2.048183  0  0  -0.854582  0  2.015928  0  0  -0.64212  -0.818811  0  2.070623  0
O  O68  1  0.04517872  0.54068273  0.30539452  1  0  -0.889875  0  1.845265  0  0  -0.833771  0  2.048063  0  0  -0.85454  0  2.015806  0  0  -0.642127  -0.818772  0  2.0705  0
O  O69  1  0.45483321  0.45932049  0.80538806  1  0  -0.889968  0  1.845176  0  0  -0.833888  0  2.048022  0  0  -0.854656  0  2.015767  0  0  -0.642194  -0.818887  0  2.070459  0
O  O70  1  0.54516014  0.95932360  0.19460793  1  0  -0.889897  0  1.845275  0  0  -0.833798  0  2.048062  0  0  -0.854577  0  2.0158  0  0  -0.642226  -0.818801  0  2.070499  0
O  O71  1  0.95484062  0.04067220  0.69461052  1  0  -0.889935  0  1.845204  0  0  -0.83383  0  2.048077  0  0  -0.854631  0  2.015814  0  0  -0.642239  -0.818834  0  2.07051  0
