# generated using pymatgen
data_ZnH14C15(NO2)2
_symmetry_space_group_name_H-M   'P 1'
_cell_length_a   7.88694561
_cell_length_b   9.42565678
_cell_length_c   10.38150182
_cell_angle_alpha   109.57371690
_cell_angle_beta   94.15987309
_cell_angle_gamma   104.07942083
_symmetry_Int_Tables_number   1
_chemical_formula_structural   ZnH14C15(NO2)2
_chemical_formula_sum   'Zn2 H28 C30 N4 O8'
_cell_volume   695.22318445
_cell_formula_units_Z   2
loop_
 _symmetry_equiv_pos_site_id
 _symmetry_equiv_pos_as_xyz
  1  'x, y, z'
loop_
 _atom_site_type_symbol
 _atom_site_label
 _atom_site_symmetry_multiplicity
 _atom_site_fract_x
 _atom_site_fract_y
 _atom_site_fract_z
 _atom_site_occupancy
 _atom_site_hle17_bader_spin_density
 _atom_site_hle17_ddec_charge
 _atom_site_hle17_ddec_spin_density
 _atom_site_hle17_ddec_sum_bond_order
 _atom_site_hle17_magmom
 _atom_site_hse06_10hf_bader_spin_density
 _atom_site_hse06_10hf_ddec_charge
 _atom_site_hse06_10hf_ddec_spin_density
 _atom_site_hse06_10hf_ddec_sum_bond_order
 _atom_site_hse06_10hf_magmom
 _atom_site_hse06_bader_spin_density
 _atom_site_hse06_ddec_charge
 _atom_site_hse06_ddec_spin_density
 _atom_site_hse06_ddec_sum_bond_order
 _atom_site_hse06_magmom
 _atom_site_pbe_bader_spin_density
 _atom_site_pbe_cm5_charge
 _atom_site_pbe_ddec_charge
 _atom_site_pbe_ddec_spin_density
 _atom_site_pbe_ddec_sum_bond_order
 _atom_site_pbe_magmom
Zn  Zn0  1  0.84215686  0.01159009  0.85919966  1  0  1.038072  0  1.81911  0  0  0.844909  0  2.291704  0  0  0.897562  0  2.231735  0  0  0.679352  0.808267  0  2.333132  0
Zn  Zn1  1  0.15784172  0.98840591  0.14079800  1  0  1.038042  0  1.81912  0  0  0.844894  0  2.291716  0  0  0.897548  0  2.231747  0  0  0.679352  0.808251  0  2.333146  0
H  H2  1  0.63296921  0.06394477  0.10011881  1  0  0.089922  0  0.953761  0  0  0.097341  0  1.018299  0  0  0.099919  0  1.016206  0  0  0.118371  0.095624  0  1.019534  0
H  H3  1  0.36702667  0.93605475  0.89987786  1  0  0.090055  0  0.953828  0  0  0.097472  0  1.018358  0  0  0.100051  0  1.016262  0  0  0.118427  0.095755  0  1.019594  0
H  H4  1  0.67088091  0.65451373  0.72627542  1  0  0.085872  0  0.944924  0  0  0.094319  0  1.008369  0  0  0.097234  0  1.005875  0  0  0.117076  0.092338  0  1.010055  0
H  H5  1  0.32912234  0.34549284  0.27372570  1  0  0.085856  0  0.944976  0  0  0.094315  0  1.008395  0  0  0.097228  0  1.005905  0  0  0.117077  0.092336  0  1.010077  0
H  H6  1  0.03601246  0.96453378  0.61176480  1  0  0.08502  0  0.958537  0  0  0.093657  0  1.022358  0  0  0.095915  0  1.02071  0  0  0.119055  0.092102  0  1.023497  0
H  H7  1  0.96399606  0.03546927  0.38824033  1  0  0.084961  0  0.958566  0  0  0.093589  0  1.022403  0  0  0.095845  0  1.020758  0  0  0.119026  0.092035  0  1.02354  0
H  H8  1  0.04445594  0.75808427  0.39130425  1  0  0.131349  0  0.987468  0  0  0.138172  0  1.050849  0  0  0.142356  0  1.048172  0  0  0.111508  0.135164  0  1.052896  0
H  H9  1  0.95555373  0.24192230  0.60870394  1  0  0.131449  0  0.987351  0  0  0.138164  0  1.05087  0  0  0.142349  0  1.048192  0  0  0.111497  0.135158  0  1.05291  0
H  H10  1  0.62769506  0.26275398  0.31770888  1  0  0.114124  0  0.961523  0  0  0.121344  0  1.02616  0  0  0.125312  0  1.023916  0  0  0.108802  0.118524  0  1.027978  0
H  H11  1  0.37229987  0.73723849  0.68229041  1  0  0.114113  0  0.961557  0  0  0.12135  0  1.026167  0  0  0.125322  0  1.023915  0  0  0.108818  0.118529  0  1.027984  0
H  H12  1  0.03715252  0.36700815  0.00617868  1  0  0.075259  0  0.951678  0  0  0.086576  0  1.01234  0  0  0.088124  0  1.011921  0  0  0.116403  0.085569  0  1.012519  0
H  H13  1  0.96284189  0.63299489  0.99381418  1  0  0.075237  0  0.951811  0  0  0.08657  0  1.01247  0  0  0.088113  0  1.012065  0  0  0.116433  0.085577  0  1.012612  0
H  H14  1  0.51437716  0.26761549  0.96421520  1  0  0.10362  0  0.943564  0  0  0.117799  0  1.003789  0  0  0.119563  0  1.004496  0  0  0.096659  0.116454  0  1.003632  0
H  H15  1  0.48562237  0.73237933  0.03578793  1  0  0.103635  0  0.943547  0  0  0.117814  0  1.003759  0  0  0.119574  0  1.004465  0  0  0.096671  0.11647  0  1.0036  0
H  H16  1  0.39289465  0.40493767  0.98696956  1  0  0.097322  0  0.940069  0  0  0.116428  0  0.996584  0  0  0.118085  0  0.996371  0  0  0.101536  0.115231  0  0.996792  0
H  H17  1  0.60711111  0.59506068  0.01303592  1  0  0.097326  0  0.940002  0  0  0.116392  0  0.996568  0  0  0.118045  0  0.996352  0  0  0.101525  0.115194  0  0.996778  0
H  H18  1  0.65978949  0.43030467  0.51139837  1  0  0.108902  0  0.949371  0  0  0.121236  0  1.005533  0  0  0.12451  0  1.004492  0  0  0.110082  0.118694  0  1.006841  0
H  H19  1  0.34021729  0.56969720  0.48859763  1  0  0.108843  0  0.949388  0  0  0.121211  0  1.00552  0  0  0.12445  0  1.004524  0  0  0.110081  0.11867  0  1.006827  0
H  H20  1  0.05453146  0.58532744  0.22451323  1  0  0.130933  0  0.997571  0  0  0.137992  0  1.061684  0  0  0.142324  0  1.058774  0  0  0.110329  0.135026  0  1.063487  0
H  H21  1  0.94545511  0.41467089  0.77547974  1  0  0.130833  0  0.997663  0  0  0.137926  0  1.061738  0  0  0.142246  0  1.058821  0  0  0.110345  0.134968  0  1.063534  0
H  H22  1  0.51304654  0.38442733  0.77495572  1  0  0.06084  0  0.930545  0  0  0.080101  0  0.990645  0  0  0.081489  0  0.990048  0  0  0.086605  0.079025  0  0.991084  0
H  H23  1  0.48696035  0.61557454  0.22505089  1  0  0.060885  0  0.930599  0  0  0.080094  0  0.990718  0  0  0.081481  0  0.990122  0  0  0.086582  0.07903  0  0.991145  0
H  H24  1  0.28063307  0.29891171  0.73039229  1  0  0.060285  0  0.983696  0  0  0.076773  0  1.050461  0  0  0.07726  0  1.052346  0  0  0.083845  0.076405  0  1.049114  0
H  H25  1  0.71936836  0.70108899  0.26961369  1  0  0.060242  0  0.983745  0  0  0.076743  0  1.05047  0  0  0.077225  0  1.05236  0  0  0.083818  0.076375  0  1.049124  0
H  H26  1  0.43447659  0.13839909  0.56832227  1  0  0.101045  0  0.924159  0  0  0.118985  0  0.977574  0  0  0.120917  0  0.977301  0  0  0.096023  0.117319  0  0.978352  0
H  H27  1  0.56552860  0.86160160  0.43167908  1  0  0.10105  0  0.924253  0  0  0.119002  0  0.977644  0  0  0.12094  0  0.977361  0  0  0.096017  0.117334  0  0.978424  0
H  H28  1  0.32399666  0.03059212  0.66473630  1  0  0.092428  0  0.951226  0  0  0.106702  0  1.014136  0  0  0.108649  0  1.013754  0  0  0.092087  0.105373  0  1.014272  0
H  H29  1  0.67600765  0.96940975  0.33526729  1  0  0.092435  0  0.951245  0  0  0.106694  0  1.014168  0  0  0.108638  0  1.013788  0  0  0.092072  0.105366  0  1.014303  0
C  C30  1  0.84382058  0.44614328  0.29569764  1  0  0.09116  0  3.74913  0  0  0.102788  0  3.97959  0  0  0.106324  0  4.00222  0  0  0.012471  0.100525  0  3.964035  0
C  C31  1  0.15617823  0.55385741  0.70430147  1  0  0.091193  0  3.749213  0  0  0.102875  0  3.979593  0  0  0.106413  0  4.002215  0  0  0.012497  0.100612  0  3.964039  0
C  C32  1  0.84904104  0.57299722  0.42837812  1  0  0.090464  0  3.749678  0  0  0.101698  0  3.981459  0  0  0.105292  0  4.0033  0  0  0.012739  0.099535  0  3.966412  0
C  C33  1  0.15096376  0.42700230  0.57162093  1  0  0.09046  0  3.7497  0  0  0.101709  0  3.981426  0  0  0.105304  0  4.003258  0  0  0.012729  0.099546  0  3.96638  0
C  C34  1  0.72643981  0.18010310  0.13092558  1  0  0.139679  0  3.688642  0  0  0.107447  0  3.943534  0  0  0.114588  0  3.960909  0  0  0.048491  0.102811  0  3.931101  0
C  C35  1  0.27356000  0.81990464  0.86907669  1  0  0.139615  0  3.688498  0  0  0.107339  0  3.943453  0  0  0.114483  0  3.960823  0  0  0.048489  0.102701  0  3.931024  0
C  C36  1  0.74988215  0.67074328  0.64771570  1  0  0.128044  0  3.709799  0  0  0.09714  0  3.962624  0  0  0.103619  0  3.981141  0  0  0.046406  0.09278  0  3.950254  0
C  C37  1  0.25012083  0.32925858  0.35228108  1  0  0.127993  0  3.709815  0  0  0.097085  0  3.962656  0  0  0.103565  0  3.981164  0  0  0.046376  0.092726  0  3.950285  0
C  C38  1  0.95439186  0.84402560  0.58390261  1  0  0.129125  0  3.697154  0  0  0.098418  0  3.947997  0  0  0.104485  0  3.967068  0  0  0.048816  0.09436  0  3.934617  0
C  C39  1  0.04560679  0.15597861  0.41609564  1  0  0.129205  0  3.69712  0  0  0.098524  0  3.947926  0  0  0.104592  0  3.967001  0  0  0.048871  0.094467  0  3.934545  0
C  C40  1  0.95729040  0.72699962  0.46050556  1  0  -0.155517  0  3.664991  0  0  -0.17289  0  3.910551  0  0  -0.180036  0  3.930148  0  0  -0.078714  -0.167738  0  3.897018  0
C  C41  1  0.04271010  0.27300225  0.53949785  1  0  -0.155526  0  3.664865  0  0  -0.172851  0  3.910473  0  0  -0.179991  0  3.930054  0  0  -0.078671  -0.167704  0  3.89695  0
C  C42  1  0.72445512  0.29571063  0.25565306  1  0  -0.148216  0  3.676045  0  0  -0.168291  0  3.927945  0  0  -0.175272  0  3.947759  0  0  -0.078571  -0.163408  0  3.91391  0
C  C43  1  0.27553924  0.70428419  0.74434210  1  0  -0.14829  0  3.67596  0  0  -0.16837  0  3.927857  0  0  -0.175351  0  3.947663  0  0  -0.078649  -0.163486  0  3.91382  0
C  C44  1  0.95041178  0.34976815  0.07988316  1  0  0.134052  0  3.711223  0  0  0.102997  0  3.961864  0  0  0.10922  0  3.981721  0  0  0.045168  0.098642  0  3.948607  0
C  C45  1  0.04957896  0.65023136  0.92010844  1  0  0.134069  0  3.711253  0  0  0.102994  0  3.961904  0  0  0.109212  0  3.981762  0  0  0.045169  0.098642  0  3.94865  0
C  C46  1  0.39590302  0.28749101  0.91907109  1  0  -0.269778  0  3.6686  0  0  -0.305509  0  3.919803  0  0  -0.311777  0  3.928219  0  0  -0.168977  -0.301339  0  3.914181  0
C  C47  1  0.60409814  0.71250499  0.08093152  1  0  -0.269761  0  3.668452  0  0  -0.305505  0  3.919652  0  0  -0.311755  0  3.928039  0  0  -0.169007  -0.301336  0  3.914035  0
C  C48  1  0.23346272  0.17559194  0.93865105  1  0  0.712969  0  3.835495  0  0  0.659949  0  4.141886  0  0  0.694776  0  4.133307  0  0  0.217251  0.636504  0  4.146875  0
C  C49  1  0.76653609  0.82440875  0.06134806  1  0  0.713073  0  3.835489  0  0  0.660056  0  4.141849  0  0  0.694878  0  4.133271  0  0  0.217318  0.636607  0  4.146839  0
C  C50  1  0.74440450  0.54667563  0.52657270  1  0  -0.159959  0  3.705681  0  0  -0.179122  0  3.955202  0  0  -0.186769  0  3.976931  0  0  -0.080633  -0.174343  0  3.940818  0
C  C51  1  0.25560118  0.45332271  0.47342507  1  0  -0.159911  0  3.705655  0  0  -0.179111  0  3.955202  0  0  -0.186733  0  3.976941  0  0  -0.08066  -0.174337  0  3.940813  0
C  C52  1  0.95752361  0.47217675  0.20237462  1  0  -0.166262  0  3.676956  0  0  -0.184245  0  3.922835  0  0  -0.19187  0  3.943403  0  0  -0.083314  -0.178937  0  3.908617  0
C  C53  1  0.04246476  0.52781924  0.79761868  1  0  -0.166172  0  3.676848  0  0  -0.184197  0  3.922739  0  0  -0.191801  0  3.943297  0  0  -0.08333  -0.178899  0  3.90853  0
C  C54  1  0.60760128  0.11149224  0.72247975  1  0  0.682775  0  3.888879  0  0  0.639895  0  4.187304  0  0  0.672448  0  4.181678  0  0  0.193899  0.618079  0  4.190159  0
C  C55  1  0.39240064  0.88850611  0.27752265  1  0  0.682882  0  3.888855  0  0  0.639983  0  4.187288  0  0  0.672539  0  4.181664  0  0  0.193969  0.618164  0  4.190145  0
C  C56  1  0.40412113  0.28414914  0.77181023  1  0  -0.059748  0  3.69877  0  0  -0.103919  0  3.960276  0  0  -0.103633  0  3.973656  0  0  -0.169198  -0.104031  0  3.951187  0
C  C57  1  0.59588296  0.71584803  0.22819385  1  0  -0.059768  0  3.698799  0  0  -0.103857  0  3.960144  0  0  -0.103572  0  3.973519  0  0  -0.169136  -0.103977  0  3.951051  0
C  C58  1  0.43263873  0.13259411  0.67234857  1  0  -0.26235  0  3.661213  0  0  -0.299556  0  3.912587  0  0  -0.305486  0  3.920843  0  0  -0.171653  -0.295561  0  3.907035  0
C  C59  1  0.56736049  0.86740776  0.32765381  1  0  -0.2624  0  3.66141  0  0  -0.299601  0  3.912708  0  0  -0.30553  0  3.920959  0  0  -0.171641  -0.295605  0  3.907158  0
N  N60  1  0.83933950  0.20443920  0.04441536  1  0  -0.33279  0  3.280872  0  0  -0.253787  0  3.54854  0  0  -0.272614  0  3.56507  0  0  -0.31934  -0.240562  0  3.536949  0
N  N61  1  0.16065473  0.79555914  0.95558087  1  0  -0.332807  0  3.280924  0  0  -0.253795  0  3.548629  0  0  -0.272625  0  3.565162  0  0  -0.319377  -0.240571  0  3.537038  0
N  N62  1  0.85307273  0.81774388  0.67690513  1  0  -0.312795  0  3.257617  0  0  -0.235695  0  3.522181  0  0  -0.25355  0  3.539062  0  0  -0.318263  -0.223071  0  3.51048  0
N  N63  1  0.14692736  0.18225681  0.32309501  1  0  -0.312817  0  3.257589  0  0  -0.235712  0  3.522145  0  0  -0.253571  0  3.539031  0  0  -0.31826  -0.223088  0  3.510442  0
O  O64  1  0.09510230  0.12259302  0.84635429  1  0  -0.640595  0  2.088094  0  0  -0.56909  0  2.367964  0  0  -0.596723  0  2.35247  0  0  -0.310555  -0.550353  0  2.377311  0
O  O65  1  0.90489534  0.87741589  0.15364631  1  0  -0.64057  0  2.088076  0  0  -0.569104  0  2.367995  0  0  -0.596724  0  2.352475  0  0  -0.310598  -0.55039  0  2.3774  0
O  O66  1  0.24695376  0.14994188  0.05098056  1  0  -0.662423  0  2.109531  0  0  -0.598366  0  2.400691  0  0  -0.626034  0  2.384943  0  0  -0.324867  -0.579955  0  2.411313  0
O  O67  1  0.75303693  0.85004941  0.94901335  1  0  -0.662537  0  2.109573  0  0  -0.598423  0  2.400679  0  0  -0.626092  0  2.384932  0  0  -0.324867  -0.580013  0  2.411313  0
O  O68  1  0.59752233  0.99937189  0.76947093  1  0  -0.666556  0  2.036899  0  0  -0.593735  0  2.301019  0  0  -0.624541  0  2.290536  0  0  -0.333376  -0.573248  0  2.308365  0
O  O69  1  0.40247892  0.00062058  0.23052483  1  0  -0.666651  0  2.036881  0  0  -0.593823  0  2.300989  0  0  -0.624609  0  2.290461  0  0  -0.333493  -0.573335  0  2.308338  0
O  O70  1  0.75148380  0.20454694  0.72175842  1  0  -0.646248  0  1.936076  0  0  -0.598444  0  2.166951  0  0  -0.62166  0  2.157011  0  0  -0.335514  -0.581782  0  2.172811  0
O  O71  1  0.24852030  0.79545023  0.27824565  1  0  -0.646267  0  1.936054  0  0  -0.598461  0  2.166928  0  0  -0.621688  0  2.156997  0  0  -0.335472  -0.581794  0  2.172788  0
