# generated using pymatgen
data_AgH10C15N5O4
_symmetry_space_group_name_H-M   'P 1'
_cell_length_a   3.81410904
_cell_length_b   11.82057945
_cell_length_c   16.78279748
_cell_angle_alpha   90.00079382
_cell_angle_beta   90.30487783
_cell_angle_gamma   89.99996113
_symmetry_Int_Tables_number   1
_chemical_formula_structural   AgH10C15N5O4
_chemical_formula_sum   'Ag2 H20 C30 N10 O8'
_cell_volume   756.64135954
_cell_formula_units_Z   2
loop_
 _symmetry_equiv_pos_site_id
 _symmetry_equiv_pos_as_xyz
  1  'x, y, z'
loop_
 _atom_site_type_symbol
 _atom_site_label
 _atom_site_symmetry_multiplicity
 _atom_site_fract_x
 _atom_site_fract_y
 _atom_site_fract_z
 _atom_site_occupancy
 _atom_site_hle17_bader_spin_density
 _atom_site_hle17_ddec_charge
 _atom_site_hle17_ddec_spin_density
 _atom_site_hle17_ddec_sum_bond_order
 _atom_site_hle17_magmom
 _atom_site_hse06_10hf_bader_spin_density
 _atom_site_hse06_10hf_ddec_charge
 _atom_site_hse06_10hf_ddec_spin_density
 _atom_site_hse06_10hf_ddec_sum_bond_order
 _atom_site_hse06_10hf_magmom
 _atom_site_hse06_bader_spin_density
 _atom_site_hse06_ddec_charge
 _atom_site_hse06_ddec_spin_density
 _atom_site_hse06_ddec_sum_bond_order
 _atom_site_hse06_magmom
 _atom_site_pbe_bader_spin_density
 _atom_site_pbe_cm5_charge
 _atom_site_pbe_ddec_charge
 _atom_site_pbe_ddec_spin_density
 _atom_site_pbe_ddec_sum_bond_order
 _atom_site_pbe_magmom
Ag  Ag0  1  0.89929815  0.57463676  0.26232500  1  0  0.662618  0  1.504004  0  0  0.549589  0  1.976104  0  0  0.569489  0  1.927342  0  0  0.52837  0.536553  0  2.009625  0
Ag  Ag1  1  0.10067903  0.07464243  0.73767860  1  0  0.662641  0  1.504067  0  0  0.549609  0  1.976195  0  0  0.569509  0  1.927434  0  0  0.528373  0.536569  0  2.009712  0
H  H2  1  0.93782648  0.68619821  0.69468976  1  0  0.296005  0  0.940488  0  0  0.27275  0  1.012427  0  0  0.281731  0  1.004937  0  0  0.304734  0.266419  0  1.017681  0
H  H3  1  0.06217705  0.18619949  0.30531026  1  0  0.296063  0  0.94038  0  0  0.272794  0  1.0123  0  0  0.281782  0  1.004809  0  0  0.304749  0.26646  0  1.017557  0
H  H4  1  0.98569268  0.64235051  0.56690291  1  0  0.114758  0  0.937583  0  0  0.127327  0  0.993219  0  0  0.130697  0  0.991193  0  0  0.111143  0.124915  0  0.994735  0
H  H5  1  0.01429238  0.14235605  0.43309959  1  0  0.114712  0  0.937541  0  0  0.127248  0  0.993222  0  0  0.130618  0  0.991196  0  0  0.11114  0.124833  0  0.994731  0
H  H6  1  0.40951090  0.41765441  0.74487471  1  0  0.125138  0  0.967502  0  0  0.133196  0  1.028253  0  0  0.13732  0  1.02532  0  0  0.108642  0.130236  0  1.030402  0
H  H7  1  0.59049522  0.91765883  0.25512278  1  0  0.12506  0  0.967523  0  0  0.133153  0  1.028239  0  0  0.137275  0  1.02531  0  0  0.10862  0.130193  0  1.030391  0
H  H8  1  0.93457222  0.78439999  0.79678997  1  0  0.297877  0  0.933855  0  0  0.277707  0  1.002163  0  0  0.286414  0  0.994866  0  0  0.303232  0.271514  0  1.007381  0
H  H9  1  0.06544698  0.28440009  0.20320986  1  0  0.297822  0  0.933957  0  0  0.277716  0  1.002177  0  0  0.286424  0  0.99488  0  0  0.303225  0.27152  0  1.007409  0
H  H10  1  0.45327763  0.32761402  0.49408437  1  0  0.11351  0  0.962837  0  0  0.117535  0  1.031624  0  0  0.121913  0  1.02823  0  0  0.104531  0.114358  0  1.034123  0
H  H11  1  0.54673396  0.82761499  0.50591049  1  0  0.113392  0  0.962807  0  0  0.117435  0  1.031606  0  0  0.121813  0  1.028212  0  0  0.104472  0.114261  0  1.034107  0
H  H12  1  0.00637091  0.00711657  0.01687293  1  0  0.092121  0  0.965344  0  0  0.103097  0  1.025789  0  0  0.105126  0  1.025852  0  0  0.102307  0.101625  0  1.025866  0
H  H13  1  0.99365887  0.50711425  0.98312905  1  0  0.092049  0  0.965366  0  0  0.103035  0  1.025819  0  0  0.105072  0  1.025862  0  0  0.102305  0.101552  0  1.02593  0
H  H14  1  0.42074590  0.61877944  0.95199285  1  0  0.127282  0  0.983276  0  0  0.132659  0  1.04917  0  0  0.137014  0  1.045991  0  0  0.109714  0.129553  0  1.051468  0
H  H15  1  0.57923129  0.11878392  0.04800999  1  0  0.127332  0  0.983223  0  0  0.132736  0  1.049087  0  0  0.137094  0  1.045903  0  0  0.109727  0.129623  0  1.051393  0
H  H16  1  0.89610966  0.92669000  0.88328225  1  0  0.110464  0  0.95272  0  0  0.121841  0  1.014  0  0  0.125223  0  1.011661  0  0  0.105301  0.11936  0  1.015802  0
H  H17  1  0.10394080  0.42668328  0.11671909  1  0  0.110423  0  0.952779  0  0  0.1218  0  1.014057  0  0  0.12518  0  1.011722  0  0  0.105301  0.119321  0  1.015864  0
H  H18  1  0.14771769  0.50762944  0.46064858  1  0  0.106625  0  0.945913  0  0  0.116125  0  1.004886  0  0  0.118995  0  1.003604  0  0  0.104055  0.114045  0  1.005937  0
H  H19  1  0.85229139  0.00763010  0.53934855  1  0  0.106627  0  0.945997  0  0  0.116135  0  1.004935  0  0  0.119007  0  1.003649  0  0  0.104068  0.114053  0  1.005984  0
H  H20  1  0.31666598  0.89548856  0.12061006  1  0  0.121555  0  0.948836  0  0  0.130894  0  1.008506  0  0  0.134888  0  1.005595  0  0  0.110744  0.127995  0  1.010681  0
H  H21  1  0.68332133  0.39548845  0.87939548  1  0  0.121513  0  0.94879  0  0  0.130863  0  1.008462  0  0  0.134854  0  1.005556  0  0  0.110714  0.127966  0  1.010635  0
C  C22  1  0.18509411  0.53927373  0.66320879  1  0  0.276567  0  3.79026  0  0  0.269663  0  4.043978  0  0  0.277681  0  4.065184  0  0  0.104808  0.264025  0  4.029627  0
C  C23  1  0.81489650  0.03928051  0.33678976  1  0  0.276823  0  3.789931  0  0  0.269876  0  4.043645  0  0  0.277899  0  4.06485  0  0  0.104972  0.264238  0  4.029286  0
C  C24  1  0.11525066  0.56304333  0.58218254  1  0  -0.134655  0  3.664474  0  0  -0.158941  0  3.917572  0  0  -0.161629  0  3.936294  0  0  -0.078599  -0.157034  0  3.904972  0
C  C25  1  0.88473716  0.06304833  0.41781861  1  0  -0.134524  0  3.66419  0  0  -0.158807  0  3.9173  0  0  -0.161492  0  3.936017  0  0  -0.07861  -0.156898  0  3.904692  0
C  C26  1  0.44722662  0.36280138  0.62141782  1  0  0.010485  0  3.936315  0  0  0.035806  0  4.164869  0  0  0.031709  0  4.189869  0  0  -0.006358  0.038554  0  4.14792  0
C  C27  1  0.55277971  0.86280404  0.37857676  1  0  0.0106  0  3.935786  0  0  0.035858  0  4.164429  0  0  0.03176  0  4.189444  0  0  -0.006371  0.038584  0  4.147524  0
C  C28  1  0.35220248  0.43750562  0.68304089  1  0  -0.189844  0  3.661352  0  0  -0.219587  0  3.907922  0  0  -0.223827  0  3.92718  0  0  -0.088368  -0.216538  0  3.894881  0
C  C29  1  0.64779851  0.93750872  0.31695438  1  0  -0.189987  0  3.660897  0  0  -0.219734  0  3.907502  0  0  -0.223978  0  3.926758  0  0  -0.088488  -0.216683  0  3.894471  0
C  C30  1  0.37592097  0.38601772  0.54091577  1  0  -0.095373  0  3.708122  0  0  -0.123725  0  3.960806  0  0  -0.125177  0  3.980285  0  0  -0.084275  -0.122583  0  3.947621  0
C  C31  1  0.62408267  0.88602197  0.45907962  1  0  -0.095283  0  3.707752  0  0  -0.123648  0  3.960423  0  0  -0.125103  0  3.979905  0  0  -0.084239  -0.122503  0  3.94725  0
C  C32  1  0.17890533  0.62714047  0.79756877  1  0  0.737096  0  3.839075  0  0  0.664301  0  4.149649  0  0  0.699877  0  4.143953  0  0  0.333271  0.640269  0  4.152718  0
C  C33  1  0.82109300  0.12714204  0.20243125  1  0  0.737152  0  3.83896  0  0  0.664334  0  4.149515  0  0  0.699916  0  4.143813  0  0  0.333253  0.640302  0  4.152584  0
C  C34  1  0.09641199  0.92198866  0.00314342  1  0  -0.040603  0  3.776197  0  0  -0.054116  0  4.031638  0  0  -0.055896  0  4.053986  0  0  -0.086071  -0.05289  0  4.016405  0
C  C35  1  0.90359378  0.42198829  0.99686006  1  0  -0.04052  0  3.77618  0  0  -0.054039  0  4.031624  0  0  -0.055819  0  4.053975  0  0  -0.086153  -0.052818  0  4.0164  0
C  C36  1  0.32468463  0.70268073  0.96642824  1  0  -0.199485  0  3.663629  0  0  -0.229594  0  3.913191  0  0  -0.233502  0  3.931087  0  0  -0.089096  -0.226831  0  3.901175  0
C  C37  1  0.67529507  0.20268405  0.03357542  1  0  -0.199563  0  3.663488  0  0  -0.229744  0  3.913043  0  0  -0.233648  0  3.930936  0  0  -0.089143  -0.226982  0  3.90102  0
C  C38  1  0.03556147  0.87688420  0.92792849  1  0  -0.143368  0  3.672251  0  0  -0.165732  0  3.922699  0  0  -0.168868  0  3.942405  0  0  -0.084007  -0.16351  0  3.909434  0
C  C39  1  0.96445484  0.37688143  0.07207461  1  0  -0.143393  0  3.672374  0  0  -0.165744  0  3.922811  0  0  -0.168882  0  3.94252  0  0  -0.084002  -0.163532  0  3.90956  0
C  C40  1  0.14754615  0.76646724  0.90832856  1  0  0.28276  0  3.784575  0  0  0.277039  0  4.033693  0  0  0.285474  0  4.054213  0  0  0.106295  0.271128  0  4.019874  0
C  C41  1  0.85245986  0.26646828  0.09167284  1  0  0.282826  0  3.784525  0  0  0.277107  0  4.033668  0  0  0.285543  0  4.054186  0  0  0.106397  0.27121  0  4.019832  0
C  C42  1  0.20709063  0.48734678  0.52251433  1  0  -0.036032  0  3.757925  0  0  -0.049262  0  4.012501  0  0  -0.050808  0  4.033605  0  0  -0.082899  -0.048263  0  3.998283  0
C  C43  1  0.79291008  0.98734965  0.47748500  1  0  -0.03617  0  3.757902  0  0  -0.049369  0  4.012434  0  0  -0.050916  0  4.033533  0  0  -0.082939  -0.048369  0  3.998209  0
C  C44  1  0.37846846  0.74969374  0.04249479  1  0  0.017046  0  3.930197  0  0  0.041585  0  4.159646  0  0  0.038112  0  4.183356  0  0  -0.004543  0.043914  0  4.143605  0
C  C45  1  0.62150076  0.24969773  0.95750808  1  0  0.017071  0  3.929996  0  0  0.041704  0  4.159369  0  0  0.038222  0  4.183091  0  0  -0.004462  0.044038  0  4.143319  0
C  C46  1  0.26683033  0.85943392  0.06204254  1  0  -0.100898  0  3.703051  0  0  -0.129551  0  3.955504  0  0  -0.130864  0  3.974188  0  0  -0.082994  -0.128503  0  3.942793  0
C  C47  1  0.73314920  0.35943411  0.93796202  1  0  -0.100817  0  3.70293  0  0  -0.129519  0  3.955384  0  0  -0.130826  0  3.97407  0  0  -0.082906  -0.128472  0  3.942672  0
C  C48  1  0.62055260  0.26103160  0.64255726  1  0  0.335792  0  3.727581  0  0  0.320496  0  3.981979  0  0  0.334685  0  3.999119  0  0  0.218856  0.310731  0  3.970606  0
C  C49  1  0.37945914  0.76103389  0.35743576  1  0  0.335792  0  3.727436  0  0  0.320518  0  3.981838  0  0  0.334704  0  3.99898  0  0  0.218857  0.310763  0  3.970477  0
C  C50  1  0.54866223  0.68417891  0.10196501  1  0  0.338998  0  3.719891  0  0  0.322253  0  3.976266  0  0  0.336435  0  3.99347  0  0  0.222061  0.312472  0  3.96486  0
C  C51  1  0.45129918  0.18418007  0.89803779  1  0  0.339145  0  3.71983  0  0  0.322371  0  3.97621  0  0  0.336557  0  3.993415  0  0  0.221996  0.312583  0  3.964798  0
N  N52  1  0.08057222  0.62016119  0.71854869  1  0  -0.495631  0  3.330878  0  0  -0.442171  0  3.582576  0  0  -0.465342  0  3.58928  0  0  -0.409127  -0.426148  0  3.577581  0
N  N53  1  0.91941818  0.12016515  0.28145242  1  0  -0.495863  0  3.331014  0  0  -0.442302  0  3.582632  0  0  -0.465462  0  3.589294  0  0  -0.409159  -0.426284  0  3.577635  0
N  N54  1  0.46013254  0.37143080  0.32208959  1  0  0.699755  0  4.11816  0  0  0.739202  0  4.397497  0  0  0.768851  0  4.402435  0  0  0.096881  0.719299  0  4.393599  0
N  N55  1  0.53988398  0.87143520  0.67790989  1  0  0.699893  0  4.11825  0  0  0.739342  0  4.39752  0  0  0.768979  0  4.402474  0  0  0.09694  0.719439  0  4.393619  0
N  N56  1  0.68255070  0.63143325  0.15239353  1  0  -0.466208  0  3.002704  0  0  -0.416175  0  3.32322  0  0  -0.431016  0  3.324046  0  0  -0.357584  -0.406497  0  3.322939  0
N  N57  1  0.31739236  0.13143429  0.84760988  1  0  -0.466392  0  3.002816  0  0  -0.416362  0  3.323384  0  0  -0.431207  0  3.324214  0  0  -0.357614  -0.406687  0  3.323112  0
N  N58  1  0.07287777  0.72807497  0.83181889  1  0  -0.492323  0  3.308095  0  0  -0.436265  0  3.551847  0  0  -0.459464  0  3.558648  0  0  -0.408134  -0.42032  0  3.546926  0
N  N59  1  0.92713361  0.22807413  0.16818097  1  0  -0.492274  0  3.308027  0  0  -0.436279  0  3.551773  0  0  -0.459482  0  3.558574  0  0  -0.408138  -0.420343  0  3.546853  0
N  N60  1  0.75830948  0.17682524  0.66148832  1  0  -0.472094  0  2.960305  0  0  -0.422408  0  3.268731  0  0  -0.43705  0  3.269253  0  0  -0.35661  -0.412893  0  3.268782  0
N  N61  1  0.24169696  0.67682549  0.33850685  1  0  -0.472096  0  2.960214  0  0  -0.42241  0  3.268631  0  0  -0.437054  0  3.269155  0  0  -0.356566  -0.412902  0  3.268694  0
O  O62  1  0.68070175  0.43694903  0.35483888  1  0  -0.449001  0  1.840073  0  0  -0.433265  0  2.084044  0  0  -0.451618  0  2.075877  0  0  -0.18375  -0.420333  0  2.089226  0
O  O63  1  0.31930931  0.93695116  0.64516359  1  0  -0.449044  0  1.839989  0  0  -0.433331  0  2.08398  0  0  -0.451705  0  2.075859  0  0  -0.183796  -0.420392  0  2.089154  0
O  O64  1  0.33654508  0.39583925  0.25303711  1  0  -0.516387  0  1.834657  0  0  -0.506644  0  2.084456  0  0  -0.522519  0  2.072487  0  0  -0.206614  -0.495463  0  2.092311  0
O  O65  1  0.66347403  0.89584331  0.74696261  1  0  -0.516519  0  1.83472  0  0  -0.506707  0  2.084419  0  0  -0.522583  0  2.072455  0  0  -0.206629  -0.495544  0  2.092319  0
O  O66  1  0.36404467  0.28273077  0.35731439  1  0  -0.438629  0  1.801196  0  0  -0.423928  0  2.0074  0  0  -0.440118  0  2.002384  0  0  -0.165638  -0.412872  0  2.010856  0
O  O67  1  0.63597995  0.78273783  0.64268248  1  0  -0.438626  0  1.801283  0  0  -0.423935  0  2.007497  0  0  -0.440072  0  2.002445  0  0  -0.165646  -0.412886  0  2.010963  0
O  O68  1  0.34709647  0.55308268  0.83353300  1  0  -0.59589  0  1.917858  0  0  -0.541702  0  2.134979  0  0  -0.563958  0  2.127871  0  0  -0.300263  -0.52625  0  2.139394  0
O  O69  1  0.65290200  0.05308611  0.16646572  1  0  -0.595895  0  1.917824  0  0  -0.541702  0  2.134952  0  0  -0.56396  0  2.127842  0  0  -0.300263  -0.526255  0  2.139368  0
