# generated using pymatgen
data_Zn4H12C44Br16O13
_symmetry_space_group_name_H-M   'P 1'
_cell_length_a   24.06637178
_cell_length_b   24.06821670
_cell_length_c   24.06617677
_cell_angle_alpha   66.75673415
_cell_angle_beta   72.38787442
_cell_angle_gamma   107.62256484
_symmetry_Int_Tables_number   1
_chemical_formula_structural   Zn4H12C44Br16O13
_chemical_formula_sum   'Zn8 H24 C88 Br32 O26'
_cell_volume   10696.22488752
_cell_formula_units_Z   2
loop_
 _symmetry_equiv_pos_site_id
 _symmetry_equiv_pos_as_xyz
  1  'x, y, z'
loop_
 _atom_site_type_symbol
 _atom_site_label
 _atom_site_symmetry_multiplicity
 _atom_site_fract_x
 _atom_site_fract_y
 _atom_site_fract_z
 _atom_site_occupancy
 _atom_site_pbe_bader_charge
 _atom_site_pbe_bader_spin_density
 _atom_site_pbe_cm5_charge
 _atom_site_pbe_ddec_charge
 _atom_site_pbe_ddec_spin_density
 _atom_site_pbe_ddec_sum_bond_order
 _atom_site_pbe_magmom
Zn  Zn0  1  0.05597593  0.95710376  0.48697656  1  1.325045  0  0.682641  0.977043  0  2.371423  0
Zn  Zn1  1  0.05597661  0.09887362  0.45706084  1  1.32438  0  0.682622  0.977101  0  2.371584  0
Zn  Zn2  1  0.94401631  0.98697408  0.45709635  1  1.325465  0  0.682634  0.977149  0  2.37134  0
Zn  Zn3  1  0.94403768  0.95705798  0.59887444  1  1.324392  0  0.682666  0.977052  0  2.371576  0
Zn  Zn4  1  0.94407063  0.54294391  0.01302085  1  1.325267  0  0.68263  0.977156  0  2.371402  0
Zn  Zn5  1  0.05593938  0.51302817  0.04294689  1  1.325622  0  0.682594  0.977154  0  2.371464  0
Zn  Zn6  1  0.94406561  0.40112495  0.04290032  1  1.323761  0  0.682677  0.977167  0  2.371372  0
Zn  Zn7  1  0.05591521  0.54289412  0.90112568  1  1.32377  0  0.682621  0.97705  0  2.371388  0
H  H8  1  0.85727257  0.75696447  0.82386395  1  0.033693  0  0.089838  0.125535  0  1.005722  0
H  H9  1  0.90874370  0.84155732  0.75007719  1  0.09138  0  0.087904  0.142834  0  1.083725  0
H  H10  1  0.91900665  0.81847988  0.82425555  1  0.021542  0  0.089793  0.125447  0  1.005658  0
H  H11  1  0.08084137  0.68115024  0.67613036  1  0.039145  0  0.089735  0.125311  0  1.005632  0
H  H12  1  0.09164956  0.65883515  0.74992246  1  0.094118  0  0.087837  0.142733  0  1.083589  0
H  H13  1  0.14274551  0.74326993  0.67574898  1  0.029032  0  0.089772  0.12536  0  1.005912  0
H  H14  1  0.91915897  0.74302302  0.89969646  1  0.059528  0  0.089653  0.125198  0  1.005687  0
H  H15  1  0.90835040  0.65842924  0.93281663  1  0.092922  0  0.087854  0.142697  0  1.083603  0
H  H16  1  0.85725443  0.68151271  0.89946866  1  0.020128  0  0.089746  0.125306  0  1.005805  0
H  H17  1  0.14272861  0.81885603  0.60031455  1  0.061147  0  0.089972  0.125661  0  1.005756  0
H  H18  1  0.09125805  0.84117842  0.56718230  1  0.093732  0  0.087891  0.142817  0  1.083681  0
H  H19  1  0.08099524  0.75674495  0.60051789  1  0.022028  0  0.089774  0.125467  0  1.005781  0
H  H20  1  0.85727441  0.10031312  0.31883191  1  0.061362  0  0.089791  0.125385  0  1.005711  0
H  H21  1  0.90874792  0.06719087  0.34115132  1  0.094621  0  0.087951  0.142928  0  1.083553  0
H  H22  1  0.91900779  0.10053669  0.25671030  1  0.022192  0  0.089787  0.12536  0  1.005731  0
H  H23  1  0.08084312  0.39968234  0.24305582  1  0.05906  0  0.089934  0.125526  0  1.005778  0
H  H24  1  0.09164426  0.43280962  0.15845728  1  0.094145  0  0.08786  0.142833  0  1.083726  0
H  H25  1  0.14274486  0.39947273  0.18153560  1  0.020186  0  0.089667  0.125245  0  1.005715  0
H  H26  1  0.91916099  0.17614159  0.18112726  1  0.039268  0  0.089746  0.125398  0  1.005775  0
H  H27  1  0.90835830  0.24993105  0.15880809  1  0.094127  0  0.087828  0.142661  0  1.083891  0
H  H28  1  0.85725901  0.17575664  0.24324144  1  0.029427  0  0.089798  0.125415  0  1.005767  0
H  H29  1  0.14272358  0.32385931  0.25699611  1  0.033639  0  0.089657  0.125287  0  1.005534  0
H  H30  1  0.09125001  0.25007045  0.34158769  1  0.091287  0  0.087828  0.142639  0  1.083768  0
H  H31  1  0.08099047  0.32424529  0.31850827  1  0.022276  0  0.08976  0.125292  0  1.005997  0
C  C32  1  0.18013959  0.09007815  0.40993523  1  1.593402  0  0.224923  0.623439  0  4.13952  0
C  C33  1  0.99999776  0.13800935  0.36198994  1  1.537982  0  0.240088  0.625007  0  4.087466  0
C  C34  1  0.99999465  0.90994958  0.40995479  1  1.597574  0  0.2246  0.622446  0  4.139932  0
C  C35  1  0.81986412  0.90991780  0.59009025  1  1.593562  0  0.22475  0.622995  0  4.140369  0
C  C36  1  0.00000005  0.86198633  0.63801150  1  1.537938  0  0.239501  0.623781  0  4.088263  0
C  C37  1  0.99999714  0.09004835  0.59005548  1  1.620348  0  0.224746  0.622666  0  4.139905  0
C  C38  1  0.99999691  0.59005494  0.09007820  1  1.598836  0  0.225114  0.623601  0  4.139793  0
C  C39  1  0.00000480  0.36199085  0.13800874  1  1.535483  0  0.239397  0.62358  0  4.088397  0
C  C40  1  0.81989815  0.40993968  0.09003962  1  1.591809  0  0.224709  0.622765  0  4.139545  0
C  C41  1  0.99998854  0.40991652  0.90994237  1  1.620298  0  0.224918  0.62332  0  4.139605  0
C  C42  1  0.99999730  0.63801070  0.86198635  1  1.539518  0  0.240059  0.625113  0  4.087407  0
C  C43  1  0.18009843  0.59004758  0.90993245  1  1.591794  0  0.224443  0.62234  0  4.13956  0
C  C44  1  0.00000096  0.80432359  0.69567565  1  -0.07701  0  -0.013029  -0.158415  0  3.845113  0
C  C45  1  0.99999902  0.69567560  0.80432363  1  -0.077095  0  -0.012987  -0.158622  0  3.845117  0
C  C46  1  0.95675182  0.77686841  0.76639367  1  0.033306  0  -0.001438  0.105028  0  3.857431  0
C  C47  1  0.04326759  0.72314968  0.73360557  1  0.03334  0  -0.001331  0.105086  0  3.857409  0
C  C48  1  0.95673163  0.72312598  0.82011734  1  0.015966  0  -0.001286  0.105131  0  3.857312  0
C  C49  1  0.04324892  0.77685430  0.67988157  1  0.019367  0  -0.001441  0.1051  0  3.857373  0
C  C50  1  0.99999812  0.19567392  0.30432526  1  -0.07685  0  -0.012975  -0.158496  0  3.845147  0
C  C51  1  0.00000347  0.30432738  0.19567618  1  -0.077298  0  -0.012936  -0.15812  0  3.844785  0
C  C52  1  0.95675281  0.17988663  0.27684263  1  0.018924  0  -0.001373  0.105161  0  3.857556  0
C  C53  1  0.04326788  0.32011519  0.22314037  1  0.017191  0  -0.001474  0.105001  0  3.857353  0
C  C54  1  0.95673483  0.23361206  0.22313846  1  0.034334  0  -0.001309  0.105023  0  3.857661  0
C  C55  1  0.04324652  0.26638914  0.27688370  1  0.033524  0  -0.001313  0.104948  0  3.857759  0
C  C56  1  0.00000024  0.62783223  0.12785567  1  0.072357  0  -0.015915  -0.103126  0  3.845486  0
C  C57  1  0.95741477  0.65782990  0.13478572  1  0.027083  0  -0.012556  0.052009  0  3.893779  0
C  C58  1  0.95754301  0.69243444  0.17008133  1  -0.106613  0  -0.017551  0.022732  0  3.902015  0
C  C59  1  0.99999387  0.69956705  0.19959063  1  0.243899  0  -0.005837  0.074008  0  4.071082  0
C  C60  1  0.04244449  0.67006360  0.19246997  1  -0.108028  0  -0.017444  0.02257  0  3.902368  0
C  C61  1  0.04258010  0.63476942  0.15786315  1  0.027943  0  -0.012788  0.051938  0  3.894193  0
C  C62  1  0.99998645  0.73475691  0.23479327  1  -0.245579  0  -0.038002  -0.06044  0  4.08138  0
C  C63  1  0.99998128  0.76521502  0.26525689  1  -0.044994  0  -0.037504  -0.05989  0  4.081605  0
C  C64  1  0.99998024  0.80040971  0.30045360  1  0.243424  0  -0.005642  0.074001  0  4.071764  0
C  C65  1  0.95753594  0.82991951  0.30756795  1  -0.106589  0  -0.017655  0.022715  0  3.902075  0
C  C66  1  0.95740459  0.86521536  0.34217075  1  0.027665  0  -0.012655  0.051752  0  3.893808  0
C  C67  1  0.99997631  0.87214598  0.37219284  1  0.072192  0  -0.015548  -0.102252  0  3.844431  0
C  C68  1  0.04253588  0.84211622  0.36529161  1  0.026061  0  -0.012818  0.051776  0  3.893931  0
C  C69  1  0.04241290  0.80752158  0.32998592  1  -0.105423  0  -0.017316  0.022863  0  3.902102  0
C  C70  1  0.00000793  0.37213468  0.87217264  1  0.052005  0  -0.015895  -0.102978  0  3.845331  0
C  C71  1  0.04259878  0.40777970  0.79959238  1  0.038154  0  -0.012615  0.051915  0  3.893599  0
C  C72  1  0.04245851  0.37235680  0.76511526  1  -0.08739  0  -0.017552  0.0228  0  3.902226  0
C  C73  1  0.00000052  0.30040772  0.80043398  1  0.209059  0  -0.005943  0.073966  0  4.071277  0
C  C74  1  0.95755762  0.26508322  0.87239021  1  -0.087905  0  -0.017538  0.022436  0  3.902386  0
C  C75  1  0.95743210  0.29955328  0.90781983  1  0.037338  0  -0.01268  0.051909  0  3.894389  0
C  C76  1  0.99999418  0.26521541  0.76523547  1  -0.245224  0  -0.037867  -0.060529  0  4.081515  0
C  C77  1  0.99999227  0.23475797  0.73477125  1  -0.043469  0  -0.037497  -0.059654  0  4.081786  0
C  C78  1  0.99999034  0.19956856  0.69957084  1  0.1718  0  -0.00563  0.074068  0  4.071904  0
C  C79  1  0.04242269  0.23489489  0.62761251  1  -0.087267  0  -0.017354  0.022805  0  3.901883  0
C  C80  1  0.04254483  0.20042404  0.59218256  1  0.037293  0  -0.012729  0.051824  0  3.894005  0
C  C81  1  0.99998446  0.12783797  0.62782817  1  0.051779  0  -0.015706  -0.102442  0  3.844783  0
C  C82  1  0.95740658  0.09219301  0.70041446  1  0.037545  0  -0.012684  0.051757  0  3.893635  0
C  C83  1  0.95754231  0.12761550  0.73489103  1  -0.049782  0  -0.017655  0.0226  0  3.901998  0
C  C84  1  0.74433439  0.37216122  0.12783132  1  0.050029  0  -0.015645  -0.102621  0  3.844712  0
C  C85  1  0.70739405  0.40780612  0.13475321  1  -0.100853  0  -0.01267  0.051976  0  3.893989  0
C  C86  1  0.63749436  0.37238119  0.17005120  1  0.02022  0  -0.017455  0.022526  0  3.90199  0
C  C87  1  0.60086057  0.30042658  0.19956381  1  0.25091  0  -0.005668  0.074258  0  4.071601  0
C  C88  1  0.63749209  0.26510194  0.19245296  1  -0.098511  0  -0.01749  0.022577  0  3.901755  0
C  C89  1  0.70739227  0.29957388  0.15785748  1  0.064096  0  -0.012657  0.052006  0  3.893954  0
C  C90  1  0.53046969  0.26523557  0.23475088  1  -0.005585  0  -0.037639  -0.060025  0  4.081783  0
C  C91  1  0.46954856  0.23478031  0.26521069  1  -0.320241  0  -0.037812  -0.060255  0  4.081529  0
C  C92  1  0.39915760  0.19959128  0.30039991  1  0.251185  0  -0.005935  0.073837  0  4.071419  0
C  C93  1  0.36252810  0.23491640  0.30751702  1  -0.100099  0  -0.017495  0.022392  0  3.902595  0
C  C94  1  0.29262807  0.20044616  0.34211178  1  0.064082  0  -0.012669  0.05204  0  3.894411  0
C  C95  1  0.25569206  0.12786492  0.37211997  1  0.050664  0  -0.015957  -0.102969  0  3.845254  0
C  C96  1  0.29262599  0.09222082  0.36516729  1  -0.101781  0  -0.01252  0.05204  0  3.893326  0
C  C97  1  0.36252470  0.12764220  0.32988887  1  0.020121  0  -0.017587  0.022788  0  3.902149  0
C  C98  1  0.25566232  0.62782308  0.87215933  1  0.050067  0  -0.015619  -0.102466  0  3.844756  0
C  C99  1  0.29260784  0.63473364  0.90780980  1  -0.100397  0  -0.012699  0.051952  0  3.894054  0
C  C100  1  0.36250835  0.67003649  0.87238569  1  0.019849  0  -0.017378  0.022725  0  3.902054  0
C  C101  1  0.39913778  0.69955677  0.80042838  1  0.250953  0  -0.005631  0.074064  0  4.071693  0
C  C102  1  0.36249886  0.69243838  0.76510180  1  -0.098263  0  -0.017558  0.02266  0  3.90158  0
C  C103  1  0.29259958  0.65784238  0.79957149  1  0.063745  0  -0.012745  0.051835  0  3.893927  0
C  C104  1  0.46952937  0.73474694  0.76523478  1  -0.005768  0  -0.037658  -0.060012  0  4.081761  0
C  C105  1  0.53045029  0.76520716  0.73478181  1  -0.320058  0  -0.037808  -0.060214  0  4.081379  0
C  C106  1  0.60084249  0.80040414  0.69959073  1  0.25131  0  -0.005899  0.073875  0  4.071254  0
C  C107  1  0.63748043  0.80752929  0.73491536  1  -0.099689  0  -0.017516  0.022437  0  3.902153  0
C  C108  1  0.70738133  0.84213000  0.70044456  1  0.063842  0  -0.0127  0.052018  0  3.894048  0
C  C109  1  0.74431054  0.87213042  0.62786246  1  0.049602  0  -0.015828  -0.102916  0  3.845311  0
C  C110  1  0.70736955  0.86518929  0.59221480  1  -0.099705  0  -0.012723  0.051903  0  3.89371  0
C  C111  1  0.63747066  0.82990148  0.62763789  1  0.019358  0  -0.017486  0.022788  0  3.902083  0
C  C112  1  0.90827078  0.80057504  0.79124589  1  -0.059608  0  -0.255434  -0.42729  0  3.981388  0
C  C113  1  0.09183413  0.69952752  0.70875188  1  -0.075559  0  -0.255239  -0.426803  0  3.981119  0
C  C114  1  0.90816570  0.69941432  0.89230649  1  -0.084811  0  -0.25517  -0.426579  0  3.980839  0
C  C115  1  0.09173178  0.80048340  0.60769282  1  -0.091257  0  -0.255556  -0.427481  0  3.981581  0
C  C116  1  0.90827349  0.10769981  0.30045690  1  -0.092593  0  -0.255469  -0.427144  0  3.980998  0
C  C117  1  0.09183186  0.39230198  0.19944068  1  -0.085853  0  -0.255436  -0.427104  0  3.981111  0
C  C118  1  0.90817194  0.20876182  0.19950360  1  -0.077089  0  -0.255341  -0.427035  0  3.981656  0
C  C119  1  0.09172538  0.29124054  0.30060334  1  -0.060735  0  -0.255202  -0.426641  0  3.981228  0
Br  Br120  1  0.89766743  0.65512088  0.09802735  1  0.020434  0  0.045955  -0.00873  0  1.59152  0
Br  Br121  1  0.10233343  0.59802874  0.15516436  1  0.020499  0  0.046081  -0.008587  0  1.591234  0
Br  Br122  1  0.09877829  0.68049367  0.23183633  1  -0.000353  0  0.039388  -0.033342  0  1.612943  0
Br  Br123  1  0.90121361  0.73179532  0.18049395  1  0.011452  0  0.039411  -0.033404  0  1.612785  0
Br  Br124  1  0.90122495  0.81950913  0.26817653  1  -0.000403  0  0.039496  -0.033296  0  1.612765  0
Br  Br125  1  0.09873316  0.76814589  0.31958067  1  0.010833  0  0.039257  -0.033549  0  1.612605  0
Br  Br126  1  0.10224435  0.84477246  0.40209795  1  0.022253  0  0.046118  -0.008619  0  1.59169  0
Br  Br127  1  0.89765886  0.90196416  0.34486028  1  0.021572  0  0.045995  -0.008733  0  1.591422  0
Br  Br128  1  0.10238460  0.50426434  0.74254877  1  0.021586  0  0.045934  -0.008737  0  1.591503  0
Br  Br129  1  0.89771200  0.24251249  0.00431887  1  0.022002  0  0.046037  -0.008599  0  1.591575  0
Br  Br130  1  0.90122577  0.16939049  0.91829603  1  -0.005373  0  0.039422  -0.033293  0  1.612801  0
Br  Br131  1  0.09878678  0.41825578  0.66942675  1  -0.00531  0  0.039526  -0.033325  0  1.612986  0
Br  Br132  1  0.09873695  0.33058914  0.58171224  1  0.006251  0  0.03928  -0.03351  0  1.612535  0
Br  Br133  1  0.90123070  0.08171048  0.83058520  1  0.006412  0  0.039454  -0.03335  0  1.612826  0
Br  Br134  1  0.89764267  0.99570433  0.75745307  1  0.021245  0  0.046003  -0.008708  0  1.591398  0
Br  Br135  1  0.10226037  0.25747558  0.49568168  1  0.022  0  0.046089  -0.008617  0  1.591605  0
Br  Br136  1  0.74684702  0.50430099  0.09799817  1  0.023563  0  0.045988  -0.008706  0  1.59171  0
Br  Br137  1  0.74684154  0.24252450  0.15518975  1  0.023546  0  0.046058  -0.008659  0  1.591584  0
Br  Br138  1  0.58769768  0.16940900  0.23183502  1  -0.008799  0  0.039371  -0.033394  0  1.612602  0
Br  Br139  1  0.58770544  0.41828461  0.18046265  1  0.00992  0  0.039346  -0.033387  0  1.612635  0
Br  Br140  1  0.41231651  0.33060594  0.26815474  1  -0.009073  0  0.039424  -0.033261  0  1.612885  0
Br  Br141  1  0.41231262  0.08174087  0.31946194  1  0.00972  0  0.039518  -0.03332  0  1.612894  0
Br  Br142  1  0.25318373  0.99573854  0.40185141  1  0.022095  0  0.045905  -0.008817  0  1.591322  0
Br  Br143  1  0.25317202  0.25748928  0.34478528  1  0.023865  0  0.046023  -0.008677  0  1.591479  0
Br  Br144  1  0.25316286  0.59794577  0.00431315  1  0.023174  0  0.046022  -0.008729  0  1.591711  0
Br  Br145  1  0.25314326  0.65516852  0.74252011  1  0.02417  0  0.046094  -0.008608  0  1.591703  0
Br  Br146  1  0.41228044  0.73181698  0.66940426  1  -0.00839  0  0.0394  -0.033366  0  1.612563  0
Br  Br147  1  0.41230502  0.68045419  0.91829190  1  0.009688  0  0.039319  -0.033453  0  1.612668  0
Br  Br148  1  0.58770001  0.76817093  0.83060870  1  -0.008432  0  0.039372  -0.033331  0  1.612716  0
Br  Br149  1  0.58767549  0.81947547  0.58173408  1  0.009347  0  0.039459  -0.03336  0  1.612796  0
Br  Br150  1  0.74680674  0.90190057  0.49572515  1  0.021854  0  0.045978  -0.008723  0  1.591404  0
Br  Br151  1  0.74684298  0.84482210  0.75748962  1  0.024504  0  0.046051  -0.008632  0  1.591537  0
O  O152  1  0.00000021  0.00000309  0.49999865  1  -1.234261  0  -0.573296  -1.032083  0  2.559695  0
O  O153  1  0.15074707  0.02601894  0.43302056  1  -1.174164  0  -0.314311  -0.543076  0  2.466312  0
O  O154  1  0.03957909  0.15355687  0.38526032  1  -1.173703  0  -0.310866  -0.53711  0  2.422247  0
O  O155  1  0.95906130  0.93310364  0.41619033  1  -1.172617  0  -0.314392  -0.542909  0  2.465895  0
O  O156  1  0.15074863  0.12474005  0.41627945  1  -1.171089  0  -0.314319  -0.543014  0  2.466448  0
O  O157  1  0.04093826  0.91621365  0.43308752  1  -1.172215  0  -0.314264  -0.542811  0  2.466588  0
O  O158  1  0.96041380  0.07516506  0.38601452  1  -1.180118  0  -0.310935  -0.537248  0  2.422144  0
O  O159  1  0.84925122  0.93297506  0.52602824  1  -1.174288  0  -0.314299  -0.542969  0  2.466157  0
O  O160  1  0.96046912  0.88529900  0.65356204  1  -1.173884  0  -0.310611  -0.536629  0  2.422277  0
O  O161  1  0.84925982  0.91626802  0.62474674  1  -1.171155  0  -0.314214  -0.542698  0  2.467154  0
O  O162  1  0.03953141  0.88596832  0.57516576  1  -1.17972  0  -0.310589  -0.536587  0  2.422358  0
O  O163  1  0.04091594  0.12474261  0.52596727  1  -1.1818  0  -0.314458  -0.543036  0  2.466143  0
O  O164  1  0.95910373  0.02596342  0.62474707  1  -1.182401  0  -0.314244  -0.542804  0  2.466561  0
O  O165  1  0.99999958  0.49999793  0.00000037  1  -1.234706  0  -0.573204  -1.032004  0  2.559559  0
O  O166  1  0.95899480  0.58371335  0.06702429  1  -1.172904  0  -0.31435  -0.543124  0  2.46682  0
O  O167  1  0.03888379  0.42483811  0.11468938  1  -1.175294  0  -0.310574  -0.536689  0  2.42227  0
O  O168  1  0.84928801  0.37525093  0.08381479  1  -1.170456  0  -0.314395  -0.542945  0  2.466833  0
O  O169  1  0.04100546  0.56700705  0.08373867  1  -1.173291  0  -0.314477  -0.54311  0  2.466106  0
O  O170  1  0.84929545  0.47402995  0.06686121  1  -1.174101  0  -0.314403  -0.543095  0  2.465687  0
O  O171  1  0.96113539  0.34644268  0.11402929  1  -1.175171  0  -0.310576  -0.536499  0  2.422446  0
O  O172  1  0.95898728  0.37525491  0.97399625  1  -1.180883  0  -0.314381  -0.543036  0  2.466489  0
O  O173  1  0.03880903  0.61397887  0.84643769  1  -1.177617  0  -0.310882  -0.537195  0  2.422211  0
O  O174  1  0.04096911  0.47397563  0.87527302  1  -1.18127  0  -0.314244  -0.542938  0  2.466222  0
O  O175  1  0.96118140  0.61474473  0.92483209  1  -1.177007  0  -0.310884  -0.537262  0  2.422279  0
O  O176  1  0.15070827  0.56690468  0.97401468  1  -1.173868  0  -0.314368  -0.542941  0  2.465683  0
O  O177  1  0.15070006  0.58380461  0.87524604  1  -1.170726  0  -0.31418  -0.542721  0  2.466594  0
