# generated using pymatgen
data_ErH17C18(NO3)4
_symmetry_space_group_name_H-M   'P 1'
_cell_length_a   7.46665510
_cell_length_b   12.08999852
_cell_length_c   13.84500000
_cell_angle_alpha   71.49462190
_cell_angle_beta   82.66935259
_cell_angle_gamma   78.77578353
_symmetry_Int_Tables_number   1
_chemical_formula_structural   ErH17C18(NO3)4
_chemical_formula_sum   'Er2 H34 C36 N8 O24'
_cell_volume   1159.60779571
_cell_formula_units_Z   2
loop_
 _symmetry_equiv_pos_site_id
 _symmetry_equiv_pos_as_xyz
  1  'x, y, z'
loop_
 _atom_site_type_symbol
 _atom_site_label
 _atom_site_symmetry_multiplicity
 _atom_site_fract_x
 _atom_site_fract_y
 _atom_site_fract_z
 _atom_site_occupancy
 _atom_site_hle17_bader_spin_density
 _atom_site_hle17_ddec_charge
 _atom_site_hle17_ddec_spin_density
 _atom_site_hle17_ddec_sum_bond_order
 _atom_site_hle17_magmom
 _atom_site_hse06_10hf_bader_spin_density
 _atom_site_hse06_10hf_ddec_charge
 _atom_site_hse06_10hf_ddec_spin_density
 _atom_site_hse06_10hf_ddec_sum_bond_order
 _atom_site_hse06_10hf_magmom
 _atom_site_hse06_bader_spin_density
 _atom_site_hse06_ddec_charge
 _atom_site_hse06_ddec_spin_density
 _atom_site_hse06_ddec_sum_bond_order
 _atom_site_hse06_magmom
 _atom_site_pbe_bader_charge
 _atom_site_pbe_bader_spin_density
 _atom_site_pbe_cm5_charge
 _atom_site_pbe_ddec_charge
 _atom_site_pbe_ddec_spin_density
 _atom_site_pbe_ddec_sum_bond_order
 _atom_site_pbe_magmom
Er  Er0  1  0.99448485  0.06781529  0.16941267  1  0  2.210164  0  1.576337  0  0  2.060399  0  2.056846  0  0  2.130813  0  1.973974  0  2.151588  0  1.459568  2.024799  0  2.086054  0
Er  Er1  1  0.00551224  0.93218565  0.83058597  1  0  2.21016  0  1.576237  0  0  2.060334  0  2.056817  0  0  2.130833  0  1.973816  0  2.151552  0  1.459568  2.024734  0  2.086028  0
H  H2  1  0.80557246  0.32458639  0.21547866  1  0  0.334362  0  0.871248  0  0  0.316693  0  0.927227  0  0  0.324677  0  0.920666  0  0.529469  0  0.329615  0.310978  0  0.932083  0
H  H3  1  0.19442036  0.67542073  0.78452939  1  0  0.334294  0  0.871304  0  0  0.316579  0  0.927344  0  0  0.32456  0  0.92079  0  0.529469  0  0.329556  0.310863  0  0.932199  0
H  H4  1  0.26996659  0.60183701  0.46188861  1  0  0.299676  0  0.932812  0  0  0.271036  0  1.010972  0  0  0.281057  0  1.002481  0  0.548597  0  0.301168  0.263971  0  1.016899  0
H  H5  1  0.73004445  0.39816215  0.53810956  1  0  0.299531  0  0.93298  0  0  0.270908  0  1.011092  0  0  0.280915  0  1.002617  0  0.548408  0  0.301137  0.263847  0  1.017019  0
H  H6  1  0.34426925  0.10947635  0.37151962  1  0  0.400545  0  0.817981  0  0  0.383554  0  0.872785  0  0  0.392506  0  0.863016  0  0.620005  0  0.340985  0.37705  0  0.879936  0
H  H7  1  0.65572672  0.89052900  0.62846920  1  0  0.400498  0  0.818071  0  0  0.383531  0  0.872855  0  0  0.392476  0  0.863086  0  0.620216  0  0.340946  0.377029  0  0.880001  0
H  H8  1  0.80472882  0.11891681  0.98418198  1  0  0.445044  0  0.834715  0  0  0.419419  0  0.893863  0  0  0.429914  0  0.878299  0  0.640967  0  0.310762  0.411895  0  0.905068  0
H  H9  1  0.19527547  0.88107705  0.01581380  1  0  0.445027  0  0.834685  0  0  0.419396  0  0.893889  0  0  0.429887  0  0.878334  0  0.641041  0  0.310763  0.411871  0  0.905098  0
H  H10  1  0.78895526  0.98903614  0.04388066  1  0  0.437847  0  0.859815  0  0  0.409431  0  0.919455  0  0  0.420184  0  0.903574  0  0.656501  0  0.302252  0.401734  0  0.930874  0
H  H11  1  0.21104655  0.01095683  0.95611914  1  0  0.437899  0  0.859745  0  0  0.40949  0  0.919373  0  0  0.420243  0  0.903493  0  0.656456  0  0.302294  0.401793  0  0.930787  0
H  H12  1  0.90282079  0.53902268  0.05880886  1  0  0.119875  0  0.938001  0  0  0.129926  0  0.997199  0  0  0.133642  0  0.994541  0  0.105611  0  0.112596  0.127238  0  0.999214  0
H  H13  1  0.09718981  0.46097294  0.94119971  1  0  0.119923  0  0.937887  0  0  0.129954  0  0.997109  0  0  0.133668  0  0.994454  0  0.105405  0  0.112611  0.127265  0  0.999125  0
H  H14  1  0.80614628  0.68574360  0.36662122  1  0  0.108108  0  0.969939  0  0  0.116741  0  1.034545  0  0  0.120042  0  1.031999  0  0.088276  0  0.104065  0.114366  0  1.036406  0
H  H15  1  0.19385464  0.31426352  0.63338266  1  0  0.108103  0  0.970123  0  0  0.116766  0  1.034686  0  0  0.120063  0  1.03214  0  0.088467  0  0.104086  0.11439  0  1.036546  0
H  H16  1  0.70676959  0.27336197  0.40123982  1  0  0.077381  0  0.92037  0  0  0.0908  0  0.977188  0  0  0.093127  0  0.97413  0  0.120271  0  0.132608  0.089024  0  0.979466  0
H  H17  1  0.29322909  0.72664869  0.59876324  1  0  0.077348  0  0.920232  0  0  0.09073  0  0.977108  0  0  0.093057  0  0.974051  0  0.120206  0  0.132568  0.088955  0  0.979385  0
H  H18  1  0.14632149  0.38661557  0.49620170  1  0  0.117583  0  0.966078  0  0  0.12737  0  1.026451  0  0  0.130881  0  1.023729  0  0.114801  0  0.11231  0.124851  0  1.028463  0
H  H19  1  0.85368776  0.61339067  0.50379608  1  0  0.11757  0  0.966123  0  0  0.127355  0  1.026503  0  0  0.130869  0  1.023779  0  0.114785  0  0.112332  0.124834  0  1.028514  0
H  H20  1  0.39001695  0.44856340  0.12980065  1  0  0.128329  0  0.908341  0  0  0.141948  0  0.958528  0  0  0.145761  0  0.956234  0  0.090028  0  0.119029  0.139181  0  0.960386  0
H  H21  1  0.60997361  0.55143665  0.87019074  1  0  0.12833  0  0.908424  0  0  0.141966  0  0.95858  0  0  0.145777  0  0.956293  0  0.090007  0  0.119065  0.1392  0  0.960434  0
H  H22  1  0.39409614  0.75817345  0.29948432  1  0  0.086389  0  0.917461  0  0  0.09875  0  0.97286  0  0  0.101062  0  0.969704  0  0.143384  0  0.135845  0.096987  0  0.975193  0
H  H23  1  0.60591715  0.24181687  0.70051326  1  0  0.086372  0  0.917375  0  0  0.098764  0  0.972738  0  0  0.101071  0  0.969586  0  0.143414  0  0.135828  0.096999  0  0.975071  0
H  H24  1  0.08082753  0.03543375  0.38132433  1  0  0.423711  0  0.87427  0  0  0.39549  0  0.932546  0  0  0.405005  0  0.918544  0  0.628016  0  0.300587  0.388722  0  0.94254  0
H  H25  1  0.91916506  0.96456365  0.61867343  1  0  0.423706  0  0.874251  0  0  0.395459  0  0.932579  0  0  0.404982  0  0.918562  0  0.628017  0  0.300573  0.388692  0  0.942572  0
H  H26  1  0.97457284  0.92873202  0.39782900  1  0  0.440462  0  0.85885  0  0  0.408306  0  0.923224  0  0  0.419755  0  0.906506  0  0.672215  0  0.29725  0.400245  0  0.934987  0
H  H27  1  0.02542268  0.07126450  0.60216736  1  0  0.440342  0  0.858971  0  0  0.408154  0  0.923371  0  0  0.419609  0  0.906648  0  0.672272  0  0.297178  0.400093  0  0.935132  0
H  H28  1  0.72186744  0.10986451  0.30676912  1  0  0.425351  0  0.835793  0  0  0.40544  0  0.893295  0  0  0.414575  0  0.882453  0  0.619174  0  0.317936  0.39876  0  0.901533  0
H  H29  1  0.27811322  0.89013730  0.69323040  1  0  0.42533  0  0.835775  0  0  0.405434  0  0.893242  0  0  0.414569  0  0.882447  0  0.619235  0  0.317961  0.398755  0  0.901478  0
H  H30  1  0.60434280  0.18153573  0.20728798  1  0  0.445627  0  0.858002  0  0  0.409029  0  0.929319  0  0  0.421221  0  0.911932  0  0.660492  0  0.29614  0.400435  0  0.941565  0
H  H31  1  0.39563854  0.81846874  0.79270860  1  0  0.445558  0  0.858077  0  0  0.40903  0  0.929298  0  0  0.421215  0  0.91192  0  0.660411  0  0.296166  0.400437  0  0.941542  0
H  H32  1  0.37926005  0.06202741  0.17117432  1  0  0.434799  0  0.863811  0  0  0.400397  0  0.93229  0  0  0.412652  0  0.914287  0  0.65711  0  0.296306  0.391635  0  0.945209  0
H  H33  1  0.62074065  0.93797529  0.82882503  1  0  0.434891  0  0.863736  0  0  0.400521  0  0.932174  0  0  0.412786  0  0.914153  0  0.657135  0  0.296372  0.391746  0  0.945106  0
H  H34  1  0.37108959  0.93901952  0.15404986  1  0  0.451165  0  0.79298  0  0  0.438548  0  0.836776  0  0  0.446551  0  0.827151  0  0.634208  0  0.336559  0.432807  0  0.843041  0
H  H35  1  0.62890997  0.06097169  0.84595925  1  0  0.451251  0  0.792792  0  0  0.438587  0  0.836662  0  0  0.446591  0  0.827084  0  0.634193  0  0.336572  0.432846  0  0.842929  0
C  C36  1  0.92729873  0.84001369  0.20113968  1  0  0.654833  0  3.913749  0  0  0.610508  0  4.202538  0  0  0.644359  0  4.196679  0  1.528508  0  0.194684  0.587241  0  4.207266  0
C  C37  1  0.07269612  0.15999078  0.79886175  1  0  0.654976  0  3.914076  0  0  0.610613  0  4.202901  0  0  0.644468  0  4.197044  0  1.529158  0  0.194663  0.587342  0  4.207636  0
C  C38  1  0.88514808  0.72217824  0.20707655  1  0  -0.06054  0  3.718299  0  0  -0.050436  0  3.959285  0  0  -0.056724  0  3.981477  0  -0.016713  0  -0.015335  -0.046392  0  3.944374  0
C  C39  1  0.11485825  0.27782357  0.79292266  1  0  -0.060666  0  3.718227  0  0  -0.050513  0  3.959167  0  0  -0.056818  0  3.981393  0  -0.016459  0  -0.015276  -0.046465  0  3.94426  0
C  C40  1  0.91061207  0.68227670  0.11938164  1  0  -0.039175  0  3.712013  0  0  -0.029719  0  3.952842  0  0  -0.034264  0  3.973509  0  0.012371  0  -0.007361  -0.02676  0  3.938944  0
C  C41  1  0.08940235  0.31771981  0.88061992  1  0  -0.038939  0  3.712077  0  0  -0.029504  0  3.952857  0  0  -0.034057  0  3.973552  0  0.012423  0  -0.007277  -0.026549  0  3.938963  0
C  C42  1  0.94451148  0.76571998  0.01607704  1  0  0.659636  0  3.904392  0  0  0.61295  0  4.19701  0  0  0.646971  0  4.189658  0  1.554701  0  0.196668  0.5895  0  4.202879  0
C  C43  1  0.05550587  0.23428096  0.98392527  1  0  0.659215  0  3.904677  0  0  0.612566  0  4.197276  0  0  0.646584  0  4.189916  0  1.554581  0  0.196527  0.589115  0  4.203143  0
C  C44  1  0.88681955  0.56840418  0.12654590  1  0  -0.138658  0  3.697931  0  0  -0.169009  0  3.951176  0  0  -0.170295  0  3.968224  0  -0.000834  0  -0.077975  -0.168071  0  3.93967  0
C  C45  1  0.11319171  0.43158880  0.87346120  1  0  -0.138749  0  3.697904  0  0  -0.169061  0  3.951146  0  0  -0.170344  0  3.968202  0  -0.000253  0  -0.078088  -0.168122  0  3.93964  0
C  C46  1  0.83382204  0.49677186  0.22258166  1  0  0.168062  0  3.784238  0  0  0.158491  0  4.032439  0  0  0.163013  0  4.054551  0  0.338646  0  0.102145  0.155441  0  4.017463  0
C  C47  1  0.16618787  0.50322642  0.77742334  1  0  0.167855  0  3.784406  0  0  0.15824  0  4.032646  0  0  0.162756  0  4.054762  0  0.338367  0  0.102076  0.155192  0  4.017663  0
C  C48  1  0.80329078  0.53588913  0.31090980  1  0  0.140795  0  3.82352  0  0  0.14  0  4.077852  0  0  0.142105  0  4.101477  0  0.433103  0  0.085345  0.138526  0  4.06193  0
C  C49  1  0.19671644  0.46411446  0.68909102  1  0  0.140885  0  3.823683  0  0  0.140094  0  4.078043  0  0  0.142211  0  4.101654  0  0.433917  0  0.08538  0.138617  0  4.062121  0
C  C50  1  0.82857905  0.65037528  0.30220349  1  0  -0.138547  0  3.712832  0  0  -0.171827  0  3.972047  0  0  -0.172342  0  3.990394  0  0.011611  0  -0.084102  -0.171309  0  3.959582  0
C  C51  1  0.17143493  0.34962830  0.69779758  1  0  -0.13857  0  3.713171  0  0  -0.171902  0  3.972427  0  0  -0.172405  0  3.990769  0  0.010304  0  -0.084184  -0.171384  0  3.959964  0
C  C52  1  0.74326462  0.35856566  0.35696389  1  0  0.259021  0  3.71145  0  0  0.193339  0  4.007896  0  0  0.209295  0  4.017665  0  1.016348  0  0.153717  0.183036  0  4.000719  0
C  C53  1  0.25672843  0.64143528  0.64303936  1  0  0.259065  0  3.711457  0  0  0.193388  0  4.007913  0  0  0.209343  0  4.017686  0  1.016286  0  0.153747  0.18308  0  4.000739  0
C  C54  1  0.26968176  0.23817314  0.21557115  1  0  0.649536  0  3.912928  0  0  0.598025  0  4.21472  0  0  0.631843  0  4.207038  0  1.549885  0  0.214463  0.575095  0  4.219586  0
C  C55  1  0.73030498  0.76183133  0.78442217  1  0  0.649249  0  3.913148  0  0  0.597643  0  4.215073  0  0  0.631451  0  4.2074  0  1.549991  0  0.214235  0.574715  0  4.219938  0
C  C56  1  0.28035931  0.32935569  0.26689969  1  0  -0.093886  0  3.765688  0  0  -0.090178  0  4.028505  0  0  -0.094856  0  4.051242  0  -0.021703  0  -0.027313  -0.087085  0  4.013071  0
C  C57  1  0.71962338  0.67064347  0.73310621  1  0  -0.093776  0  3.765447  0  0  -0.08998  0  4.028232  0  0  -0.094648  0  4.050956  0  -0.020871  0  -0.027299  -0.086892  0  4.012803  0
C  C58  1  0.21242897  0.31220691  0.37103134  1  0  -0.140993  0  3.8487  0  0  -0.135004  0  4.107134  0  0  -0.145507  0  4.134179  0  0.001155  0  -0.035882  -0.127935  0  4.0888  0
C  C59  1  0.78756250  0.68778960  0.62897181  1  0  -0.140927  0  3.848462  0  0  -0.13502  0  4.106971  0  0  -0.145532  0  4.134018  0  0.000889  0  -0.035836  -0.127948  0  4.088634  0
C  C60  1  0.15926253  0.20188527  0.44016158  1  0  0.654854  0  3.763454  0  0  0.602322  0  4.066841  0  0  0.635868  0  4.05791  0  1.403945  0  0.240078  0.579337  0  4.072547  0
C  C61  1  0.84073434  0.79811124  0.55983686  1  0  0.654577  0  3.762818  0  0  0.602049  0  4.066247  0  0  0.635596  0  4.057332  0  1.403394  0  0.240064  0.579059  0  4.071949  0
C  C62  1  0.20240865  0.40047341  0.41779713  1  0  -0.11948  0  3.725085  0  0  -0.151355  0  3.980698  0  0  -0.150607  0  3.998816  0  -0.006342  0  -0.078608  -0.151748  0  3.968512  0
C  C63  1  0.79759024  0.59952575  0.58220260  1  0  -0.119424  0  3.725289  0  0  -0.151277  0  3.980913  0  0  -0.150527  0  3.999028  0  -0.006575  0  -0.078616  -0.151667  0  3.968723  0
C  C64  1  0.26923245  0.50230068  0.36104781  1  0  0.146081  0  3.825855  0  0  0.137076  0  4.072493  0  0  0.139635  0  4.096206  0  0.364878  0  0.093501  0.135224  0  4.056547  0
C  C65  1  0.73076420  0.49770733  0.63895179  1  0  0.145915  0  3.825889  0  0  0.136868  0  4.072556  0  0  0.139425  0  4.096272  0  0.364701  0  0.093444  0.135017  0  4.05661  0
C  C66  1  0.33730223  0.52242298  0.25698600  1  0  0.163494  0  3.797361  0  0  0.164754  0  4.053339  0  0  0.169393  0  4.07471  0  0.51532  0  0.099328  0.161706  0  4.038859  0
C  C67  1  0.66269419  0.47758061  0.74301484  1  0  0.163612  0  3.79723  0  0  0.164871  0  4.053234  0  0  0.169509  0  4.074606  0  0.515654  0  0.099356  0.161819  0  4.038759  0
C  C68  1  0.34193619  0.43454993  0.20983392  1  0  -0.117595  0  3.660806  0  0  -0.150314  0  3.918646  0  0  -0.151537  0  3.935837  0  -0.025465  0  -0.074274  -0.149476  0  3.907049  0
C  C69  1  0.65805730  0.56544923  0.79016546  1  0  -0.117626  0  3.660968  0  0  -0.150374  0  3.918809  0  0  -0.1516  0  3.935998  0  -0.025842  0  -0.074291  -0.149536  0  3.907219  0
C  C70  1  0.36278022  0.67373901  0.30023581  1  0  0.276045  0  3.652113  0  0  0.218097  0  3.941312  0  0  0.2337  0  3.950962  0  1.013728  0  0.164321  0.208032  0  3.934173  0
C  C71  1  0.63723487  0.32626016  0.69976136  1  0  0.276002  0  3.651623  0  0  0.218018  0  3.940849  0  0  0.233626  0  3.950497  0  1.012872  0  0.164348  0.207954  0  3.933709  0
N  N72  1  0.74712994  0.44629900  0.39437518  1  0  -0.426838  0  3.014052  0  0  -0.386784  0  3.286258  0  0  -0.402226  0  3.299634  0  -1.19025  0  -0.336711  -0.376239  0  3.276919  0
N  N73  1  0.25286896  0.55370547  0.60562669  1  0  -0.426836  0  3.014169  0  0  -0.386763  0  3.286373  0  0  -0.402214  0  3.299752  0  -1.190286  0  -0.336682  -0.376217  0  3.277031  0
N  N74  1  0.79303320  0.38400015  0.25538033  1  0  -0.336789  0  3.403701  0  0  -0.276061  0  3.644019  0  0  -0.293615  0  3.656531  0  -1.26419  0  -0.375162  -0.264178  0  3.635226  0
N  N75  1  0.20696907  0.61600167  0.74462710  1  0  -0.336588  0  3.403575  0  0  -0.275762  0  3.643847  0  0  -0.293313  0  3.656366  0  -1.264114  0  -0.374993  -0.263878  0  3.63505  0
N  N76  1  0.28739608  0.60035423  0.38626670  1  0  -0.342207  0  3.384125  0  0  -0.279202  0  3.624998  0  0  -0.298202  0  3.637651  0  -1.308123  0  -0.375395  -0.266196  0  3.616047  0
N  N77  1  0.71261115  0.39965466  0.61372759  1  0  -0.341894  0  3.383771  0  0  -0.278829  0  3.62462  0  0  -0.29782  0  3.637293  0  -1.307112  0  -0.375343  -0.265829  0  3.615656  0
N  N78  1  0.39307189  0.63163319  0.22080085  1  0  -0.393673  0  2.894556  0  0  -0.378242  0  3.173005  0  0  -0.390882  0  3.183837  0  -1.144811  0  -0.343544  -0.369706  0  3.165458  0
N  N79  1  0.60693376  0.36836597  0.77919986  1  0  -0.393723  0  2.894355  0  0  -0.378292  0  3.172819  0  0  -0.390932  0  3.183647  0  -1.144501  0  -0.343543  -0.369757  0  3.165271  0
O  O80  1  0.82508571  0.90360522  0.25083056  1  0  -0.679478  0  1.922546  0  0  -0.632301  0  2.148267  0  0  -0.658394  0  2.138594  0  -1.172979  0  -0.379173  -0.615416  0  2.154112  0
O  O81  1  0.17489293  0.09639925  0.74917126  1  0  -0.679494  0  1.922679  0  0  -0.632279  0  2.148392  0  0  -0.658378  0  2.13871  0  -1.173512  0  -0.379157  -0.615398  0  2.154245  0
O  O82  1  0.06891171  0.87698062  0.14580131  1  0  -0.742687  0  2.038868  0  0  -0.68851  0  2.279866  0  0  -0.717636  0  2.270807  0  -1.195047  0  -0.386617  -0.669578  0  2.285234  0
O  O83  1  0.93108786  0.12302120  0.85419331  1  0  -0.742771  0  2.039173  0  0  -0.68859  0  2.280201  0  0  -0.717728  0  2.271137  0  -1.195068  0  -0.386642  -0.669658  0  2.285571  0
O  O84  1  0.84707288  0.87022190  0.99206017  1  0  -0.749403  0  2.042795  0  0  -0.692199  0  2.276388  0  0  -0.720392  0  2.264266  0  -1.196735  0  -0.392873  -0.673975  0  2.283849  0
O  O85  1  0.15294267  0.12977549  0.00794829  1  0  -0.749157  0  2.042847  0  0  -0.691973  0  2.276418  0  0  -0.720153  0  2.264294  0  -1.196789  0  -0.392754  -0.673746  0  2.283876  0
O  O86  1  0.06365520  0.73482741  0.95144962  1  0  -0.65685  0  1.910683  0  0  -0.609125  0  2.133046  0  0  -0.63496  0  2.124016  0  -1.169554  0  -0.367969  -0.592423  0  2.138428  0
O  O87  1  0.93635944  0.26515761  0.04855800  1  0  -0.656776  0  1.910785  0  0  -0.60908  0  2.133156  0  0  -0.634899  0  2.124117  0  -1.169446  0  -0.368042  -0.592383  0  2.138546  0
O  O88  1  0.11727558  0.20307715  0.22428781  1  0  -0.701408  0  2.072548  0  0  -0.650941  0  2.331715  0  0  -0.680074  0  2.324058  0  -1.181675  0  -0.376891  -0.6321  0  2.335305  0
O  O89  1  0.88270913  0.79690875  0.77572524  1  0  -0.70122  0  2.072493  0  0  -0.650713  0  2.331705  0  0  -0.679841  0  2.324019  0  -1.182001  0  -0.376732  -0.631876  0  2.335296  0
O  O90  1  0.41425638  0.19776143  0.16900155  1  0  -0.608741  0  1.991417  0  0  -0.544517  0  2.198471  0  0  -0.569517  0  2.186059  0  -1.171337  0  -0.295794  -0.527073  0  2.206592  0
O  O91  1  0.58572789  0.80223685  0.83099582  1  0  -0.608596  0  1.991302  0  0  -0.544412  0  2.19842  0  0  -0.569405  0  2.186003  0  -1.171481  0  -0.295751  -0.526963  0  2.206533  0
O  O92  1  0.25142260  0.09584044  0.42884362  1  0  -0.545187  0  2.053187  0  0  -0.489442  0  2.244584  0  0  -0.50735  0  2.226899  0  -1.123111  0  -0.330293  -0.476877  0  2.256791  0
O  O93  1  0.74857000  0.90417287  0.57114756  1  0  -0.545123  0  2.053092  0  0  -0.489378  0  2.244474  0  0  -0.507273  0  2.226788  0  -1.123068  0  -0.330272  -0.476818  0  2.25668  0
O  O94  1  0.04293467  0.19759078  0.51212083  1  0  -0.514187  0  1.975016  0  0  -0.462903  0  2.184019  0  0  -0.4841  0  2.175288  0  -1.145837  0  -0.257975  -0.448453  0  2.189813  0
O  O95  1  0.95709438  0.80241192  0.48787007  1  0  -0.514174  0  1.974486  0  0  -0.46282  0  2.183397  0  0  -0.484026  0  2.174683  0  -1.145617  0  -0.258012  -0.448368  0  2.189186  0
O  O96  1  0.31634324  0.99086552  0.19491149  1  0  -0.899841  0  1.843977  0  0  -0.858323  0  2.029959  0  0  -0.878266  0  1.997486  0  -1.272113  0  -0.628132  -0.845848  0  2.050638  0
O  O97  1  0.68364395  0.00913718  0.80508662  1  0  -0.900011  0  1.843698  0  0  -0.858475  0  2.029701  0  0  -0.878437  0  1.997256  0  -1.272141  0  -0.628197  -0.845984  0  2.050418  0
O  O98  1  0.99089228  0.00901693  0.35170874  1  0  -0.921409  0  1.908457  0  0  -0.868776  0  2.098171  0  0  -0.890571  0  2.064477  0  -1.285592  0  -0.643763  -0.854911  0  2.120339  0
O  O99  1  0.00912415  0.99096632  0.64828192  1  0  -0.921259  0  1.908383  0  0  -0.868612  0  2.098266  0  0  -0.89043  0  2.064559  0  -1.285619  0  -0.643667  -0.854751  0  2.120435  0
O  O100  1  0.72814075  0.16487237  0.23798489  1  0  -0.898004  0  1.898727  0  0  -0.847793  0  2.105217  0  0  -0.870058  0  2.075364  0  -1.260213  0  -0.628659  -0.833704  0  2.124877  0
O  O101  1  0.27184622  0.83513122  0.76201588  1  0  -0.897965  0  1.89885  0  0  -0.847777  0  2.105235  0  0  -0.870056  0  2.075428  0  -1.260158  0  -0.628749  -0.833691  0  2.124893  0
O  O102  1  0.77835150  0.06793907  0.05392529  1  0  -0.893198  0  1.836074  0  0  -0.845884  0  2.010912  0  0  -0.867249  0  1.978974  0  -1.272279  0  -0.630011  -0.83236  0  2.031981  0
O  O103  1  0.22164177  0.93206098  0.94607025  1  0  -0.893221  0  1.836093  0  0  -0.845913  0  2.010989  0  0  -0.867294  0  1.979052  0  -1.272317  0  -0.630037  -0.832385  0  2.032063  0
