# generated using pymatgen
data_AgH6(C3O)4
_symmetry_space_group_name_H-M   'P 1'
_cell_length_a   6.65892140
_cell_length_b   12.13444474
_cell_length_c   12.82062391
_cell_angle_alpha   90.00025454
_cell_angle_beta   89.99706994
_cell_angle_gamma   90.00425966
_symmetry_Int_Tables_number   1
_chemical_formula_structural   AgH6(C3O)4
_chemical_formula_sum   'Ag4 H24 C48 O16'
_cell_volume   1035.93607058
_cell_formula_units_Z   4
loop_
 _symmetry_equiv_pos_site_id
 _symmetry_equiv_pos_as_xyz
  1  'x, y, z'
loop_
 _atom_site_type_symbol
 _atom_site_label
 _atom_site_symmetry_multiplicity
 _atom_site_fract_x
 _atom_site_fract_y
 _atom_site_fract_z
 _atom_site_occupancy
 _atom_site_hle17_ddec_charge
 _atom_site_hle17_ddec_spin_density
 _atom_site_hle17_ddec_sum_bond_order
 _atom_site_hle17_magmom
 _atom_site_hse06_10hf_ddec_charge
 _atom_site_hse06_10hf_ddec_spin_density
 _atom_site_hse06_10hf_ddec_sum_bond_order
 _atom_site_hse06_10hf_magmom
 _atom_site_hse06_ddec_charge
 _atom_site_hse06_ddec_spin_density
 _atom_site_hse06_ddec_sum_bond_order
 _atom_site_hse06_magmom
 _atom_site_pbe_cm5_charge
 _atom_site_pbe_ddec_charge
 _atom_site_pbe_ddec_spin_density
 _atom_site_pbe_ddec_sum_bond_order
 _atom_site_pbe_magmom
Ag  Ag0  1  0.46773125  0.72423005  0.05520237  1  0.787882  0.465857  1.5139  0.244  0.728317  0.590175  1.964997  0.347  0.794524  0.649691  1.899724  0.383  0.618883  0.686063  0.546604  2.010306  0.322
Ag  Ag1  1  0.96771787  0.27568701  0.94490186  1  0.787131  0.463185  1.510165  0.242  0.727528  0.588164  1.960753  0.346  0.793623  0.647532  1.895566  0.382  0.618016  0.685326  0.544581  2.006009  0.321
Ag  Ag2  1  0.46770134  0.22422827  0.94479768  1  0.787934  -0.46591  1.513918  -0.244  0.728359  -0.59024  1.965053  -0.347  0.794568  -0.649762  1.899776  -0.383  0.618882  0.686098  -0.546661  2.010366  -0.322
Ag  Ag3  1  0.96778084  0.77570362  0.05508893  1  0.787089  -0.463056  1.510075  -0.242  0.727501  -0.588053  1.960637  -0.346  0.793585  -0.647408  1.895469  -0.381  0.618021  0.6853  -0.544492  2.005897  -0.321
H  H4  1  0.70622922  0.60274113  0.38692304  1  0.094672  -0.000654  0.997375  -0.001  0.106859  -9.6e-05  1.060889  0.0  0.108984  -9.1e-05  1.061755  0.0  0.102418  0.105307  -8.9e-05  1.060431  0.0
H  H5  1  0.20589945  0.39740115  0.61294951  1  0.094881  -0.000657  0.997004  -0.001  0.106696  -9.7e-05  1.060955  0.0  0.108895  -9.2e-05  1.061847  0.0  0.102361  0.105183  -9e-05  1.06037  0.0
H  H6  1  0.70620172  0.10273280  0.61306936  1  0.094786  0.000642  0.997361  0.001  0.106871  9.6e-05  1.060899  0.0  0.109068  9.1e-05  1.061685  0.0  0.102466  0.105304  8.9e-05  1.060486  0.0
H  H7  1  0.20594795  0.89740865  0.38706449  1  0.0949  0.000661  0.997138  0.001  0.106669  9.7e-05  1.061153  0.0  0.108918  9.2e-05  1.061887  0.0  0.10244  0.105157  9e-05  1.060567  0.0
H  H8  1  0.69849547  0.55683167  0.57387807  1  0.092615  -0.000376  0.97231  0.0  0.104109  -3e-05  1.033941  0.0  0.106164  -2.8e-05  1.03485  0.0  0.100533  0.102647  -2.6e-05  1.033379  0.0
H  H9  1  0.19839046  0.44319338  0.42621620  1  0.092705  -0.000381  0.972832  0.0  0.104125  -3e-05  1.034496  0.0  0.106165  -2.8e-05  1.035462  0.0  0.100529  0.102657  -2.6e-05  1.033916  0.0
H  H10  1  0.69848928  0.05682574  0.42611825  1  0.092632  0.000371  0.972297  0.0  0.104125  3e-05  1.033957  0.0  0.106192  2.8e-05  1.034834  0.0  0.100526  0.102663  2.6e-05  1.033396  0.0
H  H11  1  0.19841018  0.94321084  0.57379506  1  0.092659  0.000382  0.972863  0.0  0.104073  3e-05  1.034579  0.0  0.106123  2.8e-05  1.035512  0.0  0.10047  0.102604  2.6e-05  1.033997  0.0
H  H12  1  0.76704468  0.42384376  0.71675058  1  0.11393  -0.00034  0.930503  0.0  0.120358  -6.8e-05  0.990332  0.0  0.122852  -6.2e-05  0.988708  0.0  0.107746  0.118348  -6.5e-05  0.99176  0.0
H  H13  1  0.26701363  0.57632738  0.28340971  1  0.114845  -0.000335  0.930122  0.0  0.121113  -6.9e-05  0.990041  0.0  0.123615  -6.2e-05  0.988416  0.0  0.107999  0.119094  -6.7e-05  0.991471  0.0
H  H14  1  0.76703126  0.92382933  0.28323214  1  0.113856  0.000344  0.930446  0.0  0.120281  6.8e-05  0.990289  0.0  0.122777  6.2e-05  0.988671  0.0  0.107684  0.118271  6.5e-05  0.991714  0.0
H  H15  1  0.26703457  0.07634428  0.71659432  1  0.114763  0.000339  0.930395  0.0  0.121108  6.9e-05  0.990209  0.0  0.123544  6.2e-05  0.988664  0.0  0.108029  0.11908  6.7e-05  0.991652  0.0
H  H16  1  0.90422346  0.23902621  0.67578469  1  0.096662  -0.000188  0.966008  0.0  0.103082  -0.000128  1.031386  0.0  0.10462  -0.000124  1.032008  0.0  0.100567  0.101792  -0.000128  1.03123  0.0
H  H17  1  0.40410147  0.76105145  0.32457864  1  0.096503  -0.000188  0.966912  0.0  0.102866  -0.000127  1.032267  0.0  0.104307  -0.000124  1.033036  0.0  0.100443  0.101645  -0.000128  1.032006  0.0
H  H18  1  0.90426310  0.73902929  0.32421468  1  0.096759  0.000185  0.966069  0.0  0.103184  0.000128  1.031391  0.0  0.104698  0.000124  1.032039  0.0  0.1006  0.101895  0.000128  1.031246  0.0
H  H19  1  0.40409942  0.26107639  0.67542482  1  0.096656  0.000192  0.966608  0.0  0.102999  0.000127  1.032015  0.0  0.104442  0.000123  1.032781  0.0  0.100532  0.101769  0.000128  1.031767  0.0
H  H20  1  0.95455363  0.18043622  0.49243947  1  0.091274  -0.000489  0.981117  -0.001  0.101033  -3.9e-05  1.046483  0.0  0.102965  -2.8e-05  1.047519  0.0  0.099116  0.099621  -4.7e-05  1.045884  0.0
H  H21  1  0.45459544  0.81957937  0.50786714  1  0.091071  -0.000483  0.981705  -0.001  0.101029  -3.8e-05  1.046825  0.0  0.102903  -2.7e-05  1.047912  0.0  0.099054  0.099615  -4.7e-05  1.04624  0.0
H  H22  1  0.95460236  0.68044760  0.50754895  1  0.091304  0.00049  0.981218  0.001  0.101022  3.9e-05  1.046603  0.0  0.102951  2.8e-05  1.047645  0.0  0.099148  0.09961  4.7e-05  1.046002  0.0
H  H23  1  0.45457828  0.31960343  0.49213443  1  0.091136  0.000487  0.981546  0.001  0.101037  3.9e-05  1.046728  0.0  0.102962  2.7e-05  1.047743  0.0  0.099118  0.099624  4.7e-05  1.046144  0.0
H  H24  1  0.92972653  0.22333149  0.30023863  1  0.114916  -0.000568  0.933023  -0.001  0.12592  0.000219  0.991926  0.0  0.12868  0.000152  0.990968  0.0  0.110853  0.123974  0.000272  0.992548  0.0
H  H25  1  0.43005117  0.77657300  0.70004757  1  0.115262  -0.000572  0.932657  -0.001  0.125975  0.000218  0.991824  0.0  0.128736  0.000151  0.990879  0.0  0.11107  0.124028  0.000271  0.992436  0.0
H  H26  1  0.92973993  0.72332978  0.69975687  1  0.114886  0.000572  0.932984  0.001  0.125843  -0.000219  0.991957  0.0  0.128616  -0.000151  0.990976  0.0  0.11082  0.123887  -0.000272  0.992602  0.0
H  H27  1  0.43003780  0.27658376  0.29994824  1  0.115317  0.000571  0.932526  0.001  0.125971  -0.000219  0.991801  0.0  0.128748  -0.000151  0.990814  0.0  0.111059  0.124025  -0.000272  0.992417  0.0
C  C28  1  0.78346176  0.58710358  0.18801356  1  0.662298  -0.000858  3.878356  -0.001  0.618898  0.000635  4.168069  0.0  0.659194  0.000378  4.159121  0.0  0.22473  0.592053  0.000833  4.172613  0.0
C  C29  1  0.28330302  0.41266997  0.81191230  1  0.663952  -0.00086  3.875944  -0.001  0.620841  0.000601  4.165092  0.0  0.66117  0.000344  4.156039  0.0  0.225812  0.593966  0.000798  4.169742  0.0
C  C30  1  0.78343132  0.08709951  0.81197827  1  0.662117  0.000863  3.877821  0.001  0.618752  -0.000634  4.167546  0.0  0.659046  -0.000376  4.158608  0.0  0.224704  0.591905  -0.000833  4.172095  0.0
C  C31  1  0.28335748  0.91266745  0.18809501  1  0.664199  0.000862  3.875677  0.001  0.620938  -0.000601  4.165043  0.0  0.661262  -0.000344  4.156009  0.0  0.225829  0.594073  -0.0008  4.169675  0.0
C  C32  1  0.89113733  0.34506171  0.13260793  1  0.610209  -0.016013  3.873255  -0.021  0.568141  -0.004738  4.164724  -0.012  0.605068  -0.006747  4.158245  -0.014  0.200033  0.543753  -0.003084  4.16837  -0.01
C  C33  1  0.39101972  0.65507905  0.86756777  1  0.611122  -0.015958  3.872284  -0.021  0.568779  -0.004695  4.163583  -0.012  0.605717  -0.006692  4.157156  -0.014  0.199873  0.54438  -0.003052  4.167238  -0.01
C  C34  1  0.89112831  0.84507483  0.86738910  1  0.610238  0.016  3.874182  0.021  0.568279  0.004735  4.165318  0.012  0.605187  0.006746  4.158862  0.014  0.200106  0.543897  0.003081  4.168981  0.01
C  C35  1  0.39103175  0.15508489  0.13243872  1  0.61032  0.015959  3.873155  0.021  0.568055  0.004694  4.164379  0.012  0.604992  0.006691  4.157971  0.014  0.19958  0.543651  0.003049  4.168025  0.01
C  C36  1  0.80449804  0.49406725  0.26592583  1  -0.024864  0.008183  3.659653  0.007  -0.016429  0.005353  3.899465  0.005  -0.022637  0.004265  3.922139  0.004  0.002773  -0.012625  0.005885  3.884721  0.006
C  C37  1  0.30450032  0.50586593  0.73419602  1  -0.025241  0.00822  3.659205  0.007  -0.017329  0.005398  3.898755  0.005  -0.023552  0.004309  3.921438  0.004  0.003038  -0.01347  0.005912  3.883945  0.006
C  C38  1  0.80448105  0.99405747  0.73405228  1  -0.024813  -0.008279  3.659563  -0.007  -0.016543  -0.005355  3.899371  -0.005  -0.022757  -0.004266  3.922085  -0.004  0.002824  -0.012722  -0.005886  3.884593  -0.006
C  C39  1  0.30453684  0.00586747  0.26581764  1  -0.025458  -0.008227  3.659351  -0.007  -0.017456  -0.005402  3.898932  -0.005  -0.0237  -0.004311  3.921663  -0.004  0.003035  -0.013599  -0.005916  3.884111  -0.006
C  C40  1  0.75982751  0.52047188  0.36823586  1  -0.113092  0.018206  3.701756  0.015  -0.149535  0.005094  3.953404  0.004  -0.153427  0.003158  3.976367  0.003  -0.078882  -0.147099  0.006363  3.938113  0.005
C  C41  1  0.25989964  0.47953260  0.63184429  1  -0.113171  0.018267  3.703306  0.015  -0.149337  0.005145  3.955298  0.005  -0.153337  0.003194  3.978148  0.003  -0.079011  -0.146902  0.006395  3.940055  0.005
C  C42  1  0.75980870  0.02046859  0.63174620  1  -0.112914  -0.018086  3.702043  -0.015  -0.149161  -0.005095  3.953624  -0.004  -0.153105  -0.003158  3.976549  -0.003  -0.078778  -0.146732  -0.006365  3.938331  -0.005
C  C43  1  0.25994098  0.97953506  0.36815767  1  -0.113161  -0.018277  3.703463  -0.015  -0.149413  -0.005148  3.955332  -0.005  -0.153392  -0.003198  3.978222  -0.003  -0.079194  -0.14698  -0.006399  3.940095  -0.005
C  C44  1  0.78654921  0.44458682  0.45073991  1  0.049744  -0.001607  3.802511  -0.002  0.070905  0.000317  4.027222  0.0  0.073248  0.000469  4.049268  0.0  -0.006863  0.06961  0.000217  4.012206  0.0
C  C45  1  0.28661152  0.55543982  0.54943312  1  0.04966  -0.001656  3.802968  -0.002  0.070431  0.000314  4.028212  0.0  0.07275  0.000461  4.050332  0.0  -0.006864  0.069137  0.000218  4.013187  0.0
C  C46  1  0.78653679  0.94458933  0.54925798  1  0.049904  0.00154  3.802882  0.002  0.070909  -0.000317  4.027697  0.0  0.073253  -0.00047  4.049762  0.0  -0.006927  0.069611  -0.000216  4.012681  0.0
C  C47  1  0.28663447  0.05545461  0.45057732  1  0.049588  0.001645  3.802704  0.002  0.070663  -0.000311  4.027468  0.0  0.072974  -0.000458  4.049602  0.0  -0.006739  0.069357  -0.000215  4.012464  0.0
C  C48  1  0.75243007  0.47418417  0.55630393  1  -0.107293  0.009737  3.714643  0.008  -0.132689  0.002002  3.968383  0.002  -0.138022  0.000679  3.990936  0.001  -0.086246  -0.129257  0.002937  3.953191  0.002
C  C49  1  0.25248387  0.52580527  0.44387313  1  -0.1061  0.009912  3.714931  0.008  -0.131249  0.00205  3.968479  0.002  -0.136578  0.000721  3.991044  0.001  -0.085789  -0.127809  0.002968  3.953259  0.002
C  C50  1  0.75242347  0.97417381  0.44370279  1  -0.107249  -0.009666  3.714521  -0.008  -0.132651  -0.002006  3.968315  -0.002  -0.137984  -0.000678  3.990882  -0.001  -0.086234  -0.129214  -0.002941  3.953121  -0.002
C  C51  1  0.25250250  0.02582140  0.55613966  1  -0.106109  -0.009897  3.715486  -0.008  -0.131365  -0.002054  3.968931  -0.002  -0.136686  -0.000722  3.991482  -0.001  -0.085787  -0.127918  -0.00297  3.953703  -0.002
C  C52  1  0.79066148  0.40039576  0.63570502  1  -0.035328  0.009079  3.711289  0.007  -0.056529  0.004021  3.977888  0.003  -0.05636  0.003528  3.998284  0.003  -0.079568  -0.056524  0.004105  3.964238  0.003
C  C53  1  0.29074833  0.59963181  0.36451626  1  -0.037595  0.008931  3.712661  0.007  -0.058711  0.003984  3.97934  0.003  -0.058566  0.003486  3.999732  0.003  -0.080114  -0.058688  0.004084  3.96568  0.003
C  C54  1  0.79066866  0.90037926  0.36429414  1  -0.03525  -0.009162  3.711146  -0.007  -0.056461  -0.004024  3.977712  -0.003  -0.056299  -0.003536  3.998118  -0.003  -0.079464  -0.056453  -0.00411  3.964062  -0.003
C  C55  1  0.29075919  0.09964502  0.63549581  1  -0.037352  -0.00894  3.713346  -0.007  -0.058527  -0.003975  3.98003  -0.003  -0.058327  -0.003478  4.000437  -0.003  -0.080129  -0.058499  -0.004076  3.966354  -0.003
C  C56  1  0.86598964  0.29455012  0.61211525  1  -0.061355  -0.002256  3.740501  -0.003  -0.079528  -0.000308  4.003235  -0.001  -0.082356  -0.001048  4.025459  -0.001  -0.089033  -0.077769  0.000375  3.988562  0.0
C  C57  1  0.36607369  0.70547788  0.38818982  1  -0.061228  -0.002119  3.741202  -0.003  -0.079268  -0.000259  4.004113  -0.001  -0.082057  -0.001004  4.026369  -0.001  -0.088988  -0.077543  0.000405  3.989421  0.0
C  C58  1  0.86600803  0.79453867  0.38787601  1  -0.061723  0.002324  3.74102  0.003  -0.079826  0.000308  4.00368  0.001  -0.082638  0.001051  4.025913  0.001  -0.089126  -0.078075  -0.000374  3.989024  0.0
C  C59  1  0.36606735  0.20549180  0.61181443  1  -0.061553  0.002116  3.740947  0.003  -0.079615  0.000256  4.003897  0.001  -0.082406  0.001  4.026145  0.001  -0.089096  -0.077879  -0.000408  3.9892  0.0
C  C60  1  0.89650719  0.26229747  0.51002770  1  -0.107519  0.01727  3.735792  0.014  -0.131948  0.005681  3.988857  0.005  -0.134926  0.004783  4.011188  0.004  -0.08593  -0.129831  0.006084  3.973888  0.005
C  C61  1  0.39659005  0.73773136  0.49025394  1  -0.107446  0.017192  3.736046  0.014  -0.132228  0.005667  3.989275  0.005  -0.135151  0.004755  4.011608  0.004  -0.086208  -0.130129  0.006079  3.974331  0.005
C  C62  1  0.89653060  0.76229146  0.48995793  1  -0.107018  -0.017348  3.735842  -0.014  -0.131502  -0.005685  3.988842  -0.005  -0.134472  -0.004791  4.01116  -0.004  -0.085879  -0.129386  -0.006091  3.973875  -0.005
C  C63  1  0.39657868  0.23775220  0.50974339  1  -0.107294  -0.017212  3.735878  -0.014  -0.132053  -0.005661  3.989065  -0.005  -0.135002  -0.004748  4.011373  -0.004  -0.08624  -0.129949  -0.006074  3.97411  -0.005
C  C64  1  0.85667959  0.33582049  0.42671418  1  0.033121  -0.004364  3.813287  -0.004  0.052824  -0.000353  4.041908  -0.001  0.051755  -0.00075  4.064429  -0.001  -0.011187  0.053308  -1.6e-05  4.026702  0.0
C  C65  1  0.35669303  0.66418088  0.57353576  1  0.033117  -0.004342  3.814159  -0.004  0.053055  -0.000351  4.042662  -0.001  0.051978  -0.000745  4.065203  -0.001  -0.011079  0.053561  -1.5e-05  4.027417  0.0
C  C66  1  0.85667383  0.83581488  0.57327203  1  0.032651  0.004423  3.813212  0.005  0.05254  0.000353  4.041703  0.001  0.051465  0.000753  4.064227  0.001  -0.011263  0.053028  1.7e-05  4.02649  0.0
C  C67  1  0.35669731  0.16419720  0.42647091  1  0.032903  0.004354  3.814359  0.004  0.052887  0.000348  4.042639  0.001  0.051807  0.000742  4.065197  0.001  -0.011142  0.053397  1.3e-05  4.027391  0.0
C  C68  1  0.88565236  0.30717078  0.32072513  1  -0.08803  0.02485  3.660201  0.021  -0.125675  0.011546  3.918837  0.01  -0.124682  0.010035  3.938407  0.009  -0.069642  -0.125899  0.012269  3.905403  0.011
C  C69  1  0.38550890  0.69280171  0.67953261  1  -0.087488  0.024881  3.661243  0.021  -0.125323  0.01156  3.91941  0.01  -0.124349  0.010032  3.938977  0.009  -0.069454  -0.125548  0.012292  3.905979  0.011
C  C70  1  0.88564223  0.80717722  0.67927345  1  -0.087803  -0.024957  3.659935  -0.021  -0.12553  -0.011556  3.918478  -0.01  -0.124521  -0.01005  3.938025  -0.009  -0.069548  -0.125752  -0.012282  3.905038  -0.011
C  C71  1  0.38551004  0.19281423  0.32046483  1  -0.087539  -0.024869  3.66148  -0.021  -0.1254  -0.011547  3.919713  -0.01  -0.124417  -0.010019  3.939276  -0.009  -0.069528  -0.12563  -0.012281  3.906278  -0.011
C  C72  1  0.86170431  0.38377615  0.24111950  1  -0.053333  0.003705  3.709608  0.002  -0.043907  0.003792  3.951299  0.002  -0.054111  0.002943  3.976045  0.002  -0.006725  -0.037549  0.004153  3.934859  0.002
C  C73  1  0.36143566  0.61620722  0.75914981  1  -0.054488  0.003624  3.709725  0.002  -0.043627  0.00374  3.94946  0.002  -0.053811  0.002887  3.974195  0.002  -0.006784  -0.037287  0.004118  3.933059  0.002
C  C74  1  0.86169540  0.88377886  0.75889485  1  -0.0538  -0.003641  3.710331  -0.002  -0.044171  -0.003795  3.951673  -0.002  -0.054381  -0.002944  3.976429  -0.002  -0.006897  -0.037815  -0.004155  3.935243  -0.002
C  C75  1  0.36145210  0.11621852  0.24086824  1  -0.05413  -0.00362  3.710117  -0.002  -0.043341  -0.003739  3.949872  -0.002  -0.053518  -0.002887  3.97461  -0.002  -0.006665  -0.036996  -0.004116  3.933466  -0.002
O  O76  1  0.60310263  0.61633850  0.17196533  1  -0.568253  0.07924  2.053467  0.095  -0.510473  0.067695  2.317669  0.091  -0.547424  0.064487  2.307504  0.091  -0.293892  -0.485674  0.067857  2.324085  0.089
O  O77  1  0.10289953  0.38347296  0.82794663  1  -0.569116  0.078785  2.053916  0.095  -0.511275  0.067458  2.317854  0.091  -0.548213  0.064277  2.307665  0.09  -0.294221  -0.486502  0.067563  2.324316  0.088
O  O78  1  0.60306462  0.11634028  0.82802676  1  -0.568263  -0.079237  2.05365  -0.095  -0.510452  -0.067689  2.317806  -0.091  -0.5474  -0.064481  2.307636  -0.091  -0.293927  -0.485658  -0.067847  2.324232  -0.089
O  O79  1  0.10295856  0.88348436  0.17205134  1  -0.568958  -0.078759  2.053977  -0.095  -0.51108  -0.067442  2.318  -0.091  -0.548021  -0.06426  2.30782  -0.09  -0.294092  -0.486313  -0.067549  2.324465  -0.088
O  O80  1  0.94460455  0.63114234  0.15478378  1  -0.580073  -0.059751  2.056757  -0.071  -0.529115  -0.051742  2.333203  -0.069  -0.565644  -0.050218  2.32017  -0.069  -0.299386  -0.504263  -0.051275  2.341496  -0.067
O  O81  1  0.44438357  0.36841148  0.84498021  1  -0.581004  -0.059849  2.057037  -0.071  -0.530163  -0.051593  2.333741  -0.069  -0.566677  -0.050075  2.320602  -0.069  -0.300506  -0.505333  -0.05115  2.342124  -0.066
O  O82  1  0.94458288  0.13113843  0.84520626  1  -0.579963  0.059767  2.056606  0.071  -0.529006  0.051748  2.333026  0.069  -0.565537  0.050226  2.319992  0.069  -0.299331  -0.504153  0.051274  2.341322  0.067
O  O83  1  0.44443976  0.86839891  0.15503743  1  -0.581236  0.059827  2.057028  0.071  -0.530317  0.05158  2.333735  0.069  -0.566828  0.050063  2.320608  0.069  -0.300642  -0.505492  0.051138  2.342112  0.066
O  O84  1  0.95896838  0.40952030  0.06186333  1  -0.467776  0.170403  1.888732  0.203  -0.426285  0.134427  2.124252  0.179  -0.450546  0.14149  2.112527  0.196  -0.271104  -0.410425  0.126659  2.132329  0.164
O  O85  1  0.45918067  0.59070309  0.93828092  1  -0.468124  0.170566  1.888962  0.203  -0.426877  0.134314  2.124895  0.179  -0.451291  0.141255  2.113214  0.196  -0.271179  -0.410941  0.126631  2.132944  0.164
O  O86  1  0.95896746  0.90953458  0.93811655  1  -0.467689  -0.170401  1.888964  -0.203  -0.426294  -0.134443  2.124449  -0.179  -0.45054  -0.141509  2.112728  -0.196  -0.271126  -0.410439  -0.126664  2.132534  -0.164
O  O87  1  0.45916508  0.09069539  0.06171881  1  -0.467863  -0.170559  1.889183  -0.203  -0.426638  -0.134315  2.125066  -0.179  -0.451057  -0.141253  2.113395  -0.196  -0.271126  -0.410708  -0.126636  2.133127  -0.164
O  O88  1  0.84957769  0.24477961  0.10890350  1  -0.539812  0.140233  1.899342  0.167  -0.497594  0.116654  2.144175  0.155  -0.526947  0.117497  2.135161  0.163  -0.288535  -0.478928  0.11323  2.150639  0.146
O  O89  1  0.34947280  0.75535177  0.89125303  1  -0.539938  0.139979  1.898514  0.166  -0.497897  0.116469  2.143475  0.154  -0.527422  0.117111  2.134538  0.162  -0.288668  -0.479154  0.113172  2.149918  0.146
O  O90  1  0.84957387  0.74480520  0.89110983  1  -0.539776  -0.14025  1.899701  -0.167  -0.497606  -0.116669  2.144474  -0.155  -0.526942  -0.117527  2.135454  -0.163  -0.28857  -0.478954  -0.113229  2.15096  -0.146
O  O91  1  0.34951418  0.25536821  0.10876045  1  -0.53959  -0.139998  1.898744  -0.166  -0.49755  -0.116479  2.143649  -0.154  -0.527075  -0.117126  2.134718  -0.162  -0.288412  -0.478809  -0.113183  2.150087  -0.146
