# generated using pymatgen
data_ZnH16C18(N3Cl)2
_symmetry_space_group_name_H-M   'P 1'
_cell_length_a   12.22186817
_cell_length_b   13.75439765
_cell_length_c   14.73332540
_cell_angle_alpha   90.00003264
_cell_angle_beta   110.82070346
_cell_angle_gamma   89.99995245
_symmetry_Int_Tables_number   1
_chemical_formula_structural   ZnH16C18(N3Cl)2
_chemical_formula_sum   'Zn4 H64 C72 N24 Cl8'
_cell_volume   2314.99970305
_cell_formula_units_Z   4
loop_
 _symmetry_equiv_pos_site_id
 _symmetry_equiv_pos_as_xyz
  1  'x, y, z'
loop_
 _atom_site_type_symbol
 _atom_site_label
 _atom_site_symmetry_multiplicity
 _atom_site_fract_x
 _atom_site_fract_y
 _atom_site_fract_z
 _atom_site_occupancy
 _atom_site_pbe_bader_charge
 _atom_site_pbe_bader_spin_density
 _atom_site_pbe_cm5_charge
 _atom_site_pbe_ddec_charge
 _atom_site_pbe_ddec_spin_density
 _atom_site_pbe_ddec_sum_bond_order
 _atom_site_pbe_magmom
Zn  Zn0  1  0.03349954  0.74530868  0.49481143  1  1.117739  0  0.558059  0.614524  0  2.690833  0
Zn  Zn1  1  0.96650114  0.24530883  0.00518812  1  1.117687  0  0.558063  0.614523  0  2.69089  0
Zn  Zn2  1  0.96649999  0.25469143  0.50518696  1  1.117693  0  0.558071  0.614534  0  2.690885  0
Zn  Zn3  1  0.03350014  0.75469056  0.99481214  1  1.117695  0  0.558077  0.614545  0  2.69084  0
H  H4  1  0.58494495  0.44381517  0.77334699  1  0.110941  0  0.105674  0.09859  0  1.06405  0
H  H5  1  0.41505503  0.94381530  0.72665352  1  0.110967  0  0.105668  0.098572  0  1.064101  0
H  H6  1  0.41505546  0.55618421  0.22665369  1  0.110977  0  0.105665  0.098576  0  1.064054  0
H  H7  1  0.58494450  0.05618481  0.27334690  1  0.110945  0  0.10566  0.098565  0  1.064056  0
H  H8  1  0.74235712  0.35407215  0.70052825  1  0.152554  0  0.104936  0.112055  0  1.060995  0
H  H9  1  0.25764293  0.85407172  0.79947155  1  0.152544  0  0.104926  0.112034  0  1.06102  0
H  H10  1  0.25764241  0.64592868  0.29947149  1  0.152538  0  0.104921  0.112009  0  1.061033  0
H  H11  1  0.74235661  0.14592766  0.20052819  1  0.152552  0  0.104935  0.112036  0  1.061017  0
H  H12  1  0.63494637  0.38245649  0.43319244  1  0.133674  0  0.114726  0.109373  0  1.011059  0
H  H13  1  0.36505333  0.88245511  0.06680756  1  0.133667  0  0.114696  0.109346  0  1.011059  0
H  H14  1  0.36505404  0.61754435  0.56680823  1  0.133662  0  0.114725  0.109345  0  1.011088  0
H  H15  1  0.63494708  0.11754355  0.93319243  1  0.133675  0  0.114715  0.109354  0  1.011079  0
H  H16  1  0.74783622  0.33276473  0.53664248  1  0.111444  0  0.100937  0.094074  0  1.034552  0
H  H17  1  0.25216385  0.83276440  0.96335799  1  0.11144  0  0.100938  0.094068  0  1.034544  0
H  H18  1  0.25216331  0.66723610  0.46335794  1  0.111427  0  0.100942  0.094074  0  1.034536  0
H  H19  1  0.74783656  0.16723498  0.03664268  1  0.111448  0  0.100949  0.09408  0  1.034547  0
H  H20  1  0.88050547  0.47534385  0.65699116  1  0.087535  0  0.107843  0.12053  0  1.001778  0
H  H21  1  0.11949536  0.97534209  0.84300757  1  0.087517  0  0.107776  0.120449  0  1.001766  0
H  H22  1  0.11949494  0.52465844  0.34300815  1  0.087515  0  0.107803  0.1205  0  1.001723  0
H  H23  1  0.88050592  0.02465584  0.15699200  1  0.087416  0  0.107799  0.120494  0  1.001751  0
H  H24  1  0.75431470  0.16016684  0.53301995  1  0.123015  0  0.103938  0.098037  0  1.033032  0
H  H25  1  0.24568463  0.66016725  0.96697953  1  0.123001  0  0.103937  0.098034  0  1.033067  0
H  H26  1  0.24568395  0.83983254  0.46697885  1  0.122998  0  0.10393  0.098022  0  1.033056  0
H  H27  1  0.75431490  0.33983359  0.03302021  1  0.123029  0  0.103944  0.098048  0  1.033018  0
H  H28  1  0.64232910  0.11162965  0.42981789  1  0.097257  0  0.118162  0.113521  0  0.991449  0
H  H29  1  0.35766995  0.61162900  0.07018178  1  0.097269  0  0.118173  0.11355  0  0.991408  0
H  H30  1  0.35766957  0.88837046  0.57018228  1  0.097262  0  0.118173  0.113548  0  0.991404  0
H  H31  1  0.64232958  0.38837111  0.92981796  1  0.097276  0  0.118165  0.113537  0  0.991418  0
H  H32  1  0.79065126  0.95175442  0.64438790  1  0.097038  0  0.112178  0.124053  0  0.992205  0
H  H33  1  0.20934696  0.45175461  0.85561142  1  0.097044  0  0.112193  0.124105  0  0.992175  0
H  H34  1  0.20934740  0.04824569  0.35561159  1  0.09705  0  0.112179  0.124067  0  0.992179  0
H  H35  1  0.79065082  0.54824550  0.14438781  1  0.097037  0  0.112188  0.124071  0  0.992195  0
H  H36  1  0.55254733  0.10812108  0.75423119  1  0.098453  0  0.110808  0.106375  0  1.027224  0
H  H37  1  0.44745380  0.60811975  0.74576948  1  0.098472  0  0.110814  0.106396  0  1.027208  0
H  H38  1  0.44745484  0.89188048  0.24577068  1  0.098266  0  0.110825  0.106375  0  1.027246  0
H  H39  1  0.55254749  0.39187890  0.25423077  1  0.098463  0  0.110814  0.106392  0  1.0272  0
H  H40  1  0.72897244  0.16735587  0.68785524  1  0.122621  0  0.104049  0.116178  0  1.062656  0
H  H41  1  0.27102688  0.66735616  0.81214357  1  0.122692  0  0.104043  0.116181  0  1.062638  0
H  H42  1  0.27102796  0.83264424  0.31214408  1  0.122632  0  0.104053  0.116205  0  1.062619  0
H  H43  1  0.72897265  0.33264467  0.18785549  1  0.122632  0  0.104053  0.116193  0  1.062632  0
H  H44  1  0.92820539  0.81965916  0.63806069  1  0.118655  0  0.11059  0.084319  0  1.015688  0
H  H45  1  0.07179469  0.31965945  0.86193978  1  0.118302  0  0.11059  0.084326  0  1.015668  0
H  H46  1  0.07179414  0.18034095  0.36193973  1  0.118604  0  0.110609  0.084333  0  1.015689  0
H  H47  1  0.92820485  0.68034065  0.13806064  1  0.118349  0  0.110606  0.084351  0  1.015681  0
H  H48  1  0.01323196  0.61074013  0.64657257  1  0.099981  0  0.109552  0.082365  0  1.021644  0
H  H49  1  0.98676829  0.11073902  0.85342580  1  0.099938  0  0.109548  0.082363  0  1.021642  0
H  H50  1  0.98676845  0.38926143  0.35342539  1  0.099935  0  0.109544  0.08236  0  1.02165  0
H  H51  1  0.01323299  0.88925963  0.14657309  1  0.09997  0  0.109541  0.082338  0  1.021654  0
H  H52  1  0.84109788  0.63759951  0.34990687  1  0.101673  0  0.113711  0.085814  0  0.992923  0
H  H53  1  0.15890115  0.13760107  0.15009212  1  0.101683  0  0.113686  0.085776  0  0.992929  0
H  H54  1  0.15890078  0.36239914  0.65009125  1  0.1017  0  0.1137  0.085816  0  0.992906  0
H  H55  1  0.84109926  0.86239904  0.84990787  1  0.101676  0  0.113698  0.085778  0  0.992907  0
H  H56  1  0.92180473  0.90985350  0.36776436  1  0.126323  0  0.107489  0.082381  0  1.016793  0
H  H57  1  0.07819495  0.40985293  0.13223634  1  0.126306  0  0.107469  0.082373  0  1.01676  0
H  H58  1  0.07819393  0.09014661  0.63223581  1  0.126374  0  0.107475  0.082359  0  1.016782  0
H  H59  1  0.92180458  0.59014645  0.86776408  1  0.126313  0  0.107483  0.08237  0  1.016804  0
H  H60  1  0.79019309  0.05017214  0.36609683  1  0.118911  0  0.105054  0.118506  0  1.035053  0
H  H61  1  0.20980775  0.55017237  0.13390334  1  0.118915  0  0.105053  0.118494  0  1.035077  0
H  H62  1  0.20980731  0.94982797  0.63390317  1  0.118921  0  0.105046  0.118496  0  1.035061  0
H  H63  1  0.79019178  0.44982774  0.86609640  1  0.11891  0  0.105058  0.118531  0  1.035064  0
H  H64  1  0.69946760  0.50421240  0.34796379  1  0.123225  0  0.109388  0.118766  0  1.039201  0
H  H65  1  0.30053154  0.00421313  0.15203652  1  0.123231  0  0.109396  0.11878  0  1.039204  0
H  H66  1  0.30053194  0.49578698  0.65203663  1  0.123225  0  0.109401  0.118788  0  1.039245  0
H  H67  1  0.69946800  0.99578552  0.84796389  1  0.123241  0  0.109388  0.118747  0  1.03921  0
C  C68  1  0.58791926  0.44400708  0.70058255  1  0.451489  0  -0.014847  -0.031146  0  4.059338  0
C  C69  1  0.41208071  0.94400581  0.79941728  1  0.451486  0  -0.014842  -0.031129  0  4.059347  0
C  C70  1  0.41208027  0.55599375  0.29941787  1  0.451504  0  -0.014902  -0.03117  0  4.059449  0
C  C71  1  0.58791882  0.05599357  0.20058246  1  0.451499  0  -0.014856  -0.031144  0  4.059345  0
C  C72  1  0.66686415  0.40015997  0.66619587  1  0.232098  0  -0.013758  -0.127798  0  3.958696  0
C  C73  1  0.33313587  0.90015878  0.83380462  1  0.232093  0  -0.013779  -0.127847  0  3.958667  0
C  C74  1  0.33313539  0.59984086  0.33380455  1  0.23209  0  -0.013706  -0.127714  0  3.958753  0
C  C75  1  0.66686454  0.09984060  0.16619605  1  0.232092  0  -0.013754  -0.127796  0  3.95863  0
C  C76  1  0.69645231  0.39820272  0.50611875  1  0.277472  0  -0.052732  -0.126129  0  3.892635  0
C  C77  1  0.30354771  0.89820237  0.99388174  1  0.277504  0  -0.05266  -0.12602  0  3.892609  0
C  C78  1  0.30354722  0.60179811  0.49388167  1  0.277511  0  -0.052729  -0.126098  0  3.892625  0
C  C79  1  0.69645270  0.10179701  0.00611825  1  0.27747  0  -0.052726  -0.126113  0  3.89263  0
C  C80  1  0.52707913  0.02711275  0.54433557  1  0.966491  0  0.201966  0.167922  0  4.052741  0
C  C81  1  0.47291944  0.52711299  0.95566566  1  0.93185  0  0.201996  0.167934  0  4.052682  0
C  C82  1  0.47291953  0.97288663  0.45566595  1  0.931844  0  0.201957  0.167842  0  4.052735  0
C  C83  1  0.52707923  0.47288712  0.04433518  1  0.966488  0  0.202012  0.167961  0  4.052615  0
C  C84  1  0.86810290  0.50978154  0.58742661  1  0.001688  0  -0.081814  -0.172441  0  3.931249  0
C  C85  1  0.13189743  0.00978183  0.91257377  1  0.001607  0  -0.081749  -0.172332  0  3.931249  0
C  C86  1  0.13189838  0.49021856  0.41257364  1  0.001322  0  -0.081792  -0.172425  0  3.931296  0
C  C87  1  0.86810386  0.99021755  0.08742649  1  0.001827  0  -0.081743  -0.172428  0  3.931232  0
C  C88  1  0.69922785  0.09583615  0.50451160  1  0.313623  0  -0.04737  -0.123894  0  3.902911  0
C  C89  1  0.30077153  0.59583654  0.99548787  1  0.313611  0  -0.047392  -0.123946  0  3.902889  0
C  C90  1  0.30077080  0.90416395  0.49548788  1  0.313629  0  -0.047384  -0.123934  0  3.902901  0
C  C91  1  0.69922800  0.40416430  0.00451187  1  0.313613  0  -0.047381  -0.123915  0  3.902843  0
C  C92  1  0.81835097  0.94570614  0.58195548  1  -0.041533  0  -0.082205  -0.177582  0  3.928823  0
C  C93  1  0.18164814  0.44570639  0.91804409  1  -0.041539  0  -0.082232  -0.177698  0  3.928845  0
C  C94  1  0.18164857  0.05429397  0.41804494  1  -0.041509  0  -0.082201  -0.177567  0  3.928766  0
C  C95  1  0.81835052  0.55429444  0.08195539  1  -0.04148  0  -0.082253  -0.177646  0  3.928817  0
C  C96  1  0.56468936  0.09150455  0.68644790  1  0.444536  0  -0.011806  -0.027381  0  4.059582  0
C  C97  1  0.43531179  0.59150400  0.81355344  1  0.444547  0  -0.011812  -0.027363  0  4.05948  0
C  C98  1  0.43531368  0.90849555  0.31355490  1  0.444768  0  -0.011862  -0.027401  0  4.059693  0
C  C99  1  0.56468863  0.40849538  0.18644724  1  0.444555  0  -0.011815  -0.027369  0  4.059549  0
C  C100  1  0.65264611  0.12184535  0.65498973  1  0.28509  0  -0.011229  -0.122637  0  3.94428  0
C  C101  1  0.34735413  0.62184488  0.84501136  1  0.285097  0  -0.011212  -0.122645  0  3.944227  0
C  C102  1  0.34735517  0.87815475  0.34501188  1  0.285103  0  -0.011216  -0.122661  0  3.944271  0
C  C103  1  0.65264541  0.37815523  0.15498906  1  0.28509  0  -0.01122  -0.122643  0  3.944263  0
C  C104  1  0.89373734  0.87134880  0.57837708  1  0.452452  0  0.046637  0.097048  0  3.939382  0
C  C105  1  0.10626445  0.37134766  0.92162392  1  0.452786  0  0.046665  0.097125  0  3.939387  0
C  C106  1  0.10626395  0.12865203  0.42162318  1  0.452466  0  0.046617  0.097041  0  3.939333  0
C  C107  1  0.89373683  0.62865172  0.07837701  1  0.452699  0  0.046614  0.097014  0  3.93935  0
C  C108  1  0.94227222  0.58441801  0.58255090  1  0.467605  0  0.042573  0.091405  0  3.945812  0
C  C109  1  0.05772805  0.08441762  0.91744815  1  0.46761  0  0.042577  0.091399  0  3.945859  0
C  C110  1  0.05772819  0.41558283  0.41744774  1  0.46762  0  0.042575  0.091387  0  3.945892  0
C  C111  1  0.94227323  0.91558176  0.08255143  1  0.467573  0  0.042564  0.091433  0  3.945921  0
C  C112  1  0.53247226  0.48077639  0.54769565  1  0.986049  0  0.203965  0.173253  0  4.041068  0
C  C113  1  0.46752769  0.98077589  0.95230419  1  0.985629  0  0.203982  0.173285  0  4.041032  0
C  C114  1  0.46752728  0.51922445  0.45230477  1  0.94311  0  0.204056  0.173404  0  4.040904  0
C  C115  1  0.53247184  0.01922422  0.04769555  1  0.943325  0  0.203998  0.17331  0  4.041012  0
C  C116  1  0.77880244  0.47900158  0.50266080  1  -0.032979  0  0.020875  0.156987  0  3.908613  0
C  C117  1  0.22119750  0.97900056  0.99733836  1  -0.032869  0  0.02089  0.156941  0  3.908752  0
C  C118  1  0.22119709  0.52099998  0.49733826  1  -0.032615  0  0.020915  0.157029  0  3.908706  0
C  C119  1  0.77880290  0.02099809  0.00266096  1  -0.032968  0  0.02089  0.15706  0  3.908546  0
C  C120  1  0.84572193  0.59927360  0.41604236  1  0.429239  0  0.045244  0.093471  0  3.937467  0
C  C121  1  0.15427712  0.09927440  0.08395595  1  0.429298  0  0.045301  0.093581  0  3.93758  0
C  C122  1  0.15427760  0.40072578  0.58395535  1  0.429285  0  0.045238  0.093443  0  3.937683  0
C  C123  1  0.84572328  0.90072571  0.91604337  1  0.429287  0  0.045302  0.093623  0  3.937491  0
C  C124  1  0.77825473  0.01163178  0.50482349  1  -0.023649  0  0.02403  0.161889  0  3.926806  0
C  C125  1  0.22174473  0.51163222  0.99517663  1  -0.023615  0  0.024022  0.161914  0  3.926805  0
C  C126  1  0.22174481  0.98836832  0.49517693  1  -0.02365  0  0.024008  0.161846  0  3.926805  0
C  C127  1  0.77825481  0.48836861  0.00482311  1  -0.023651  0  0.024066  0.16194  0  3.926799  0
C  C128  1  0.89093307  0.92309512  0.42766890  1  0.419881  0  0.045016  0.097817  0  3.940604  0
C  C129  1  0.10906660  0.42309521  0.07233180  1  0.419879  0  0.045053  0.0979  0  3.940461  0
C  C130  1  0.10906647  0.07690499  0.57233220  1  0.419382  0  0.045042  0.097892  0  3.940509  0
C  C131  1  0.89093293  0.57690490  0.92766794  1  0.419472  0  0.045041  0.097888  0  3.940548  0
C  C132  1  0.81727944  0.99982769  0.42699778  1  0.054163  0  -0.078715  -0.167334  0  3.929823  0
C  C133  1  0.18272017  0.49982773  0.07300226  1  0.054156  0  -0.078757  -0.167416  0  3.929869  0
C  C134  1  0.18272010  0.00017314  0.57300264  1  0.05457  0  -0.078727  -0.167367  0  3.929813  0
C  C135  1  0.81727849  0.50017238  0.92699723  1  0.054567  0  -0.078771  -0.167482  0  3.929934  0
C  C136  1  0.76837057  0.52514243  0.41535872  1  0.036714  0  -0.074574  -0.158999  0  3.925997  0
C  C137  1  0.23162942  0.02514317  0.08464118  1  0.036634  0  -0.074616  -0.159081  0  3.926187  0
C  C138  1  0.23162984  0.47485695  0.58464128  1  0.036649  0  -0.074586  -0.15906  0  3.926179  0
C  C139  1  0.76837186  0.97485694  0.91535907  1  0.036689  0  -0.074603  -0.159082  0  3.926066  0
N  N140  1  0.50513980  0.49360868  0.62706085  1  -1.180793  0  -0.342181  -0.348785  0  3.314216  0
N  N141  1  0.49486014  0.99360812  0.87293899  1  -1.180341  0  -0.342194  -0.348811  0  3.314183  0
N  N142  1  0.49486062  0.50639143  0.37293983  1  -1.180333  0  -0.342254  -0.348953  0  3.314143  0
N  N143  1  0.50513852  0.00639126  0.12706049  1  -1.180574  0  -0.342205  -0.348837  0  3.314197  0
N  N144  1  0.93110022  0.62861258  0.49804960  1  -1.26689  0  -0.339123  -0.224311  0  3.616124  0
N  N145  1  0.06889881  0.12861266  0.00194872  1  -1.266909  0  -0.339125  -0.224316  0  3.61618  0
N  N146  1  0.06890019  0.37138680  0.50194904  1  -1.266894  0  -0.339102  -0.224247  0  3.616213  0
N  N147  1  0.93110247  0.87138672  0.99805086  1  -1.266927  0  -0.339123  -0.224348  0  3.61622  0
N  N148  1  0.63126253  0.42344633  0.56882454  1  -1.197733  0  -0.237608  0.022678  0  3.703008  0
N  N149  1  0.36873747  0.92344517  0.93117596  1  -1.197739  0  -0.237634  0.022696  0  3.702908  0
N  N150  1  0.36873789  0.57655523  0.43117614  1  -1.197747  0  -0.237624  0.022701  0  3.702894  0
N  N151  1  0.63126206  0.07655421  0.06882378  1  -1.197719  0  -0.237621  0.022698  0  3.702844  0
N  N152  1  0.48737085  0.03283605  0.61781349  1  -1.170603  0  -0.342949  -0.349738  0  3.302321  0
N  N153  1  0.51263034  0.53283548  0.88218851  1  -1.170563  0  -0.343005  -0.349846  0  3.302221  0
N  N154  1  0.51263044  0.96716406  0.38218880  1  -1.170582  0  -0.342967  -0.349764  0  3.302332  0
N  N155  1  0.48737008  0.46716390  0.11781284  1  -1.17061  0  -0.343028  -0.349861  0  3.30221  0
N  N156  1  0.62829191  0.08116453  0.56429764  1  -1.203994  0  -0.240846  0.019389  0  3.722371  0
N  N157  1  0.37170661  0.58116482  0.93570293  1  -1.204078  0  -0.240837  0.019438  0  3.722364  0
N  N158  1  0.37170763  0.91883558  0.43570414  1  -1.204002  0  -0.240808  0.019483  0  3.722382  0
N  N159  1  0.62829205  0.41883601  0.06429724  1  -1.204018  0  -0.240844  0.019399  0  3.722371  0
N  N160  1  0.92869733  0.85957580  0.50197317  1  -1.271234  0  -0.339279  -0.22823  0  3.611551  0
N  N161  1  0.07130272  0.35957546  0.99802731  1  -1.271177  0  -0.339267  -0.228267  0  3.611577  0
N  N162  1  0.07130220  0.14042430  0.49802657  1  -1.271162  0  -0.339276  -0.228271  0  3.611568  0
N  N163  1  0.92869769  0.64042392  0.00197337  1  -1.271161  0  -0.339244  -0.228184  0  3.611504  0
Cl  Cl164  1  0.04907735  0.75186871  0.34697627  1  -0.674698  0  -0.320288  -0.50551  0  1.168855  0
Cl  Cl165  1  0.95092421  0.25186678  0.15302353  1  -0.674689  0  -0.320298  -0.505528  0  1.168861  0
Cl  Cl166  1  0.95092393  0.24813213  0.65302262  1  -0.674679  0  -0.320303  -0.505528  0  1.168869  0
Cl  Cl167  1  0.04907620  0.74813042  0.84697579  1  -0.674699  0  -0.320311  -0.505539  0  1.168838  0
Cl  Cl168  1  0.18915599  0.74293197  0.63138324  1  -0.656991  0  -0.296053  -0.469354  0  1.244023  0
Cl  Cl169  1  0.81084503  0.24293318  0.86861679  1  -0.656993  0  -0.296047  -0.469347  0  1.244034  0
Cl  Cl170  1  0.81084354  0.25706814  0.36861650  1  -0.656999  0  -0.296059  -0.469362  0  1.244044  0
Cl  Cl171  1  0.18915626  0.75706766  0.13138415  1  -0.657001  0  -0.296055  -0.469365  0  1.244031  0
