# generated using pymatgen
data_ZnH6(C3N2)2
_symmetry_space_group_name_H-M   'P 1'
_cell_length_a   12.48258923
_cell_length_b   17.78463690
_cell_length_c   17.78463281
_cell_angle_alpha   82.92274292
_cell_angle_beta   69.45763222
_cell_angle_gamma   69.45759494
_symmetry_Int_Tables_number   1
_chemical_formula_structural   ZnH6(C3N2)2
_chemical_formula_sum   'Zn16 H96 C96 N64'
_cell_volume   3462.01797286
_cell_formula_units_Z   16
loop_
 _symmetry_equiv_pos_site_id
 _symmetry_equiv_pos_as_xyz
  1  'x, y, z'
loop_
 _atom_site_type_symbol
 _atom_site_label
 _atom_site_symmetry_multiplicity
 _atom_site_fract_x
 _atom_site_fract_y
 _atom_site_fract_z
 _atom_site_occupancy
 _atom_site_pbe_bader_charge
 _atom_site_pbe_bader_spin_density
 _atom_site_pbe_cm5_charge
 _atom_site_pbe_ddec_charge
 _atom_site_pbe_ddec_spin_density
 _atom_site_pbe_ddec_sum_bond_order
 _atom_site_pbe_magmom
Zn  Zn0  1  0.40671229  0.24484553  0.94754748  1  1.185284  0  0.717512  0.62071  0  2.595672  0
Zn  Zn1  1  0.59911974  0.75514980  0.05244849  1  1.18673  0  0.716928  0.619553  0  2.597326  0
Zn  Zn2  1  0.90158615  0.44756622  0.25513236  1  1.185058  0  0.717527  0.619608  0  2.597201  0
Zn  Zn3  1  0.60427687  0.55245526  0.74484627  1  1.183298  0  0.717695  0.61981  0  2.597356  0
Zn  Zn4  1  0.09912070  0.05244833  0.75514981  1  1.186728  0  0.716953  0.619604  0  2.597291  0
Zn  Zn5  1  0.90671167  0.94754760  0.24484638  1  1.185285  0  0.717512  0.620672  0  2.595702  0
Zn  Zn6  1  0.10427727  0.74484623  0.55245539  1  1.183295  0  0.717671  0.619782  0  2.597384  0
Zn  Zn7  1  0.40158638  0.25513255  0.44756580  1  1.185051  0  0.717511  0.619605  0  2.597253  0
Zn  Zn8  1  0.10748585  0.45090637  0.75054138  1  1.177759  0  0.716373  0.624337  0  2.573194  0
Zn  Zn9  1  0.30895552  0.54908908  0.24943295  1  1.182249  0  0.717033  0.626179  0  2.571252  0
Zn  Zn10  1  0.80841265  0.25055874  0.04908905  1  1.183357  0  0.717024  0.625347  0  2.571981  0
Zn  Zn11  1  0.10802825  0.74943344  0.95091924  1  1.182869  0  0.716954  0.625461  0  2.570742  0
Zn  Zn12  1  0.80895598  0.24943301  0.54908895  1  1.182254  0  0.717038  0.626202  0  2.571225  0
Zn  Zn13  1  0.60748542  0.75054149  0.45090649  1  1.177752  0  0.71638  0.624357  0  2.57317  0
Zn  Zn14  1  0.60802906  0.95091891  0.74943338  1  1.182874  0  0.716955  0.625457  0  2.570758  0
Zn  Zn15  1  0.30841229  0.04908888  0.25055896  1  1.183362  0  0.71704  0.625358  0  2.572001  0
H  H16  1  0.43630225  0.07476680  0.89131417  1  0.107352  0  0.12508  0.08475  0  1.000111  0
H  H17  1  0.40237629  0.92521761  0.10866524  1  0.127087  0  0.125553  0.085158  0  1.0009  0
H  H18  1  0.76106823  0.39132345  0.42520997  1  0.102263  0  0.125218  0.084945  0  0.99948  0
H  H19  1  0.57760707  0.60870271  0.57477851  1  0.087446  0  0.125528  0.08504  0  0.999943  0
H  H20  1  0.90237706  0.10866491  0.92521744  1  0.12709  0  0.125555  0.085165  0  1.000905  0
H  H21  1  0.93629422  0.89131175  0.07477093  1  0.107163  0  0.125081  0.08475  0  1.000075  0
H  H22  1  0.07760700  0.57477824  0.60870238  1  0.087439  0  0.125522  0.085032  0  0.999927  0
H  H23  1  0.26106845  0.42521003  0.39132332  1  0.102263  0  0.125213  0.084965  0  0.999467  0
H  H24  1  0.66048633  0.21757963  0.79632847  1  0.08434  0  0.111937  0.10573  0  1.01644  0
H  H25  1  0.67434887  0.78243747  0.20367513  1  0.088176  0  0.110854  0.104481  0  1.017025  0
H  H26  1  0.12803973  0.29631753  0.28243187  1  0.073914  0  0.111024  0.10444  0  1.016767  0
H  H27  1  0.70681842  0.70366501  0.71757699  1  0.104223  0  0.111677  0.106048  0  1.016949  0
H  H28  1  0.17434912  0.20367493  0.78243749  1  0.088178  0  0.110854  0.104475  0  1.017016  0
H  H29  1  0.16048630  0.79633009  0.21757922  1  0.08434  0  0.111934  0.105733  0  1.016457  0
H  H30  1  0.20681912  0.71757625  0.70366503  1  0.104233  0  0.111678  0.106045  0  1.016951  0
H  H31  1  0.62803979  0.28243151  0.29631761  1  0.073907  0  0.111024  0.104427  0  1.016796  0
H  H32  1  0.76536179  0.07364086  0.71250281  1  0.10896  0  0.107651  0.100655  0  1.047382  0
H  H33  1  0.55148120  0.92635916  0.28748583  1  0.096765  0  0.107808  0.100158  0  1.047718  0
H  H34  1  0.08897316  0.21250367  0.42636016  1  0.095379  0  0.107573  0.09977  0  1.047448  0
H  H35  1  0.72789732  0.78750983  0.57362144  1  0.111144  0  0.108192  0.10053  0  1.048232  0
H  H36  1  0.05148083  0.28748567  0.92635924  1  0.096762  0  0.107802  0.100156  0  1.04774  0
H  H37  1  0.26536056  0.71250527  0.07363943  1  0.109004  0  0.107647  0.10065  0  1.047372  0
H  H38  1  0.22789642  0.57362122  0.78751000  1  0.111151  0  0.108185  0.100532  0  1.048252  0
H  H39  1  0.58897290  0.42636045  0.21250407  1  0.095384  0  0.107562  0.099747  0  1.047443  0
H  H40  1  0.46290723  0.12929916  0.09282352  1  0.09346  0  0.122598  0.07902  0  1.012286  0
H  H41  1  0.68505231  0.87069951  0.90717542  1  0.108372  0  0.121904  0.079381  0  1.012905  0
H  H42  1  0.84217801  0.59284059  0.37071100  1  0.095953  0  0.122287  0.080066  0  1.012936  0
H  H43  1  0.80579574  0.40717283  0.62926400  1  0.096699  0  0.122705  0.079928  0  1.011538  0
H  H44  1  0.18505163  0.90717480  0.87069951  1  0.108378  0  0.121911  0.079409  0  1.01289  0
H  H45  1  0.96290757  0.09282327  0.12929923  1  0.093403  0  0.122602  0.079039  0  1.012266  0
H  H46  1  0.30579536  0.62926408  0.40717291  1  0.096706  0  0.122704  0.079937  0  1.011602  0
H  H47  1  0.34217746  0.37071024  0.59284099  1  0.095965  0  0.122297  0.080059  0  1.012956  0
H  H48  1  0.13801055  0.23174226  0.03960682  1  0.09303  0  0.105624  0.096838  0  1.051998  0
H  H49  1  0.40937465  0.76824735  0.96038333  1  0.081715  0  0.105459  0.09649  0  1.050501  0
H  H50  1  0.61976601  0.53959907  0.26824717  1  0.086825  0  0.106556  0.097041  0  1.050138  0
H  H51  1  0.42769286  0.46037587  0.73174187  1  0.097678  0  0.106066  0.097256  0  1.051367  0
H  H52  1  0.90937429  0.96038378  0.76824746  1  0.081701  0  0.105449  0.096474  0  1.050513  0
H  H53  1  0.63801120  0.03960710  0.23174216  1  0.093031  0  0.105634  0.096861  0  1.051974  0
H  H54  1  0.92769301  0.73174108  0.46037631  1  0.097675  0  0.106082  0.097267  0  1.051331  0
H  H55  1  0.11976553  0.26824767  0.53959846  1  0.086818  0  0.106553  0.097042  0  1.050163  0
H  H56  1  0.09394933  0.14899531  0.18480571  1  0.079574  0  0.10716  0.09891  0  1.038452  0
H  H57  1  0.42778136  0.85099692  0.81520652  1  0.09657  0  0.107519  0.100091  0  1.037514  0
H  H58  1  0.49292378  0.68479013  0.35099344  1  0.083162  0  0.107776  0.100138  0  1.037012  0
H  H59  1  0.52877536  0.31523066  0.64900974  1  0.08847  0  0.107755  0.100425  0  1.037752  0
H  H60  1  0.92778023  0.81520679  0.85099697  1  0.096556  0  0.107545  0.100134  0  1.037521  0
H  H61  1  0.59394843  0.18480593  0.14899546  1  0.079569  0  0.107153  0.098906  0  1.038439  0
H  H62  1  0.02877539  0.64900963  0.31523080  1  0.088478  0  0.107766  0.100449  0  1.037735  0
H  H63  1  0.99292315  0.35099374  0.68479023  1  0.083158  0  0.107767  0.100127  0  1.037001  0
H  H64  1  0.68265231  0.20948544  0.93618895  1  0.059861  0  0.118986  0.071657  0  1.037211  0
H  H65  1  0.82833226  0.79052711  0.06381455  1  0.097535  0  0.119032  0.07118  0  1.036342  0
H  H66  1  0.14214073  0.43619322  0.29051229  1  0.096114  0  0.118848  0.071145  0  1.03741  0
H  H67  1  0.86888955  0.56384182  0.70942296  1  0.099709  0  0.118874  0.071044  0  1.037313  0
H  H68  1  0.32833312  0.06381441  0.79052679  1  0.097594  0  0.119027  0.071176  0  1.036359  0
H  H69  1  0.18265075  0.93618967  0.20948638  1  0.059884  0  0.118969  0.07166  0  1.03727  0
H  H70  1  0.36888962  0.70942331  0.56384200  1  0.099735  0  0.118882  0.071058  0  1.037303  0
H  H71  1  0.64214072  0.29051204  0.43619263  1  0.096247  0  0.118826  0.071128  0  1.037432  0
H  H72  1  0.36055948  0.38907568  0.06085588  1  0.099122  0  0.111142  0.109371  0  1.015211  0
H  H73  1  0.81044578  0.61091734  0.93916288  1  0.085861  0  0.110788  0.108772  0  1.015522  0
H  H74  1  0.99963549  0.56085623  0.11089714  1  0.085846  0  0.111543  0.109008  0  1.017129  0
H  H75  1  0.67145183  0.43917195  0.88904187  1  0.097976  0  0.109972  0.107381  0  1.016276  0
H  H76  1  0.31044628  0.93916278  0.61091720  1  0.085847  0  0.110804  0.108804  0  1.015533  0
H  H77  1  0.86055769  0.06085605  0.38907626  1  0.099086  0  0.11113  0.109348  0  1.015271  0
H  H78  1  0.17145184  0.88904144  0.43917170  1  0.097974  0  0.109971  0.107378  0  1.016287  0
H  H79  1  0.49963468  0.11089720  0.56085696  1  0.08584  0  0.111545  0.108981  0  1.017115  0
H  H80  1  0.54817767  0.39050528  0.10958790  1  0.098544  0  0.105948  0.093925  0  1.068179  0
H  H81  1  0.04819819  0.60948507  0.89045239  1  0.079037  0  0.106063  0.093907  0  1.068799  0
H  H82  1  0.18870148  0.60959017  0.10947061  1  0.084369  0  0.106595  0.093776  0  1.067977  0
H  H83  1  0.90773722  0.39044015  0.89049562  1  0.107158  0  0.106036  0.094043  0  1.067769  0
H  H84  1  0.54819839  0.89045273  0.60948466  1  0.07903  0  0.106058  0.093881  0  1.068815  0
H  H85  1  0.04817677  0.10958806  0.39050545  1  0.098561  0  0.105953  0.093951  0  1.068162  0
H  H86  1  0.40773720  0.89049507  0.39044038  1  0.107163  0  0.106049  0.094062  0  1.067817  0
H  H87  1  0.68870220  0.10947040  0.60959009  1  0.08436  0  0.10664  0.09385  0  1.067943  0
H  H88  1  0.33565644  0.31202167  0.78816788  1  0.140002  0  0.125728  0.084645  0  1.00401  0
H  H89  1  0.43582999  0.68799054  0.21184216  1  0.107114  0  0.125644  0.08536  0  1.003151  0
H  H90  1  0.89769555  0.28815952  0.18799107  1  0.10336  0  0.12588  0.084781  0  1.004024  0
H  H91  1  0.37383602  0.71187584  0.81200352  1  0.117824  0  0.126283  0.086008  0  1.00287  0
H  H92  1  0.93582994  0.21184236  0.68799021  1  0.107119  0  0.125647  0.085383  0  1.003148  0
H  H93  1  0.83565634  0.78816751  0.31202154  1  0.139528  0  0.125725  0.084642  0  1.004008  0
H  H94  1  0.87383649  0.81200324  0.71187535  1  0.117791  0  0.126274  0.085985  0  1.002924  0
H  H95  1  0.39769555  0.18799129  0.28815972  1  0.103348  0  0.125896  0.084819  0  1.004014  0
H  H96  1  0.15757636  0.38426275  0.03029433  1  0.105588  0  0.112719  0.107983  0  1.015087  0
H  H97  1  0.57217714  0.61574703  0.96968870  1  0.088785  0  0.112633  0.108291  0  1.015056  0
H  H98  1  0.79185398  0.53030824  0.11574081  1  0.10685  0  0.112131  0.108103  0  1.014747  0
H  H99  1  0.43786322  0.46971808  0.88424906  1  0.111753  0  0.112793  0.108037  0  1.015309  0
H  H100  1  0.07217720  0.96968929  0.61574735  1  0.08878  0  0.112634  0.108289  0  1.015057  0
H  H101  1  0.65757621  0.03029407  0.38426267  1  0.10559  0  0.112719  0.107982  0  1.015097  0
H  H102  1  0.93786333  0.88424874  0.46971857  1  0.111762  0  0.112793  0.108032  0  1.015313  0
H  H103  1  0.29185431  0.11574095  0.53030798  1  0.106857  0  0.112131  0.108113  0  1.014742  0
H  H104  1  0.02184055  0.47963984  0.93841896  1  0.095713  0  0.109259  0.097606  0  1.051183  0
H  H105  1  0.43993821  0.52037191  0.06155069  1  0.100926  0  0.109495  0.098169  0  1.049867  0
H  H106  1  0.75146860  0.43843681  0.02035856  1  0.105071  0  0.109067  0.097628  0  1.049838  0
H  H107  1  0.21029791  0.56157887  0.97962671  1  0.099137  0  0.108527  0.097172  0  1.05155  0
H  H108  1  0.93993878  0.06155030  0.52037221  1  0.100934  0  0.109517  0.098204  0  1.04987  0
H  H109  1  0.52184064  0.93841888  0.47963985  1  0.095712  0  0.10926  0.097599  0  1.051183  0
H  H110  1  0.71029749  0.97962721  0.56157852  1  0.099136  0  0.108508  0.09714  0  1.051565  0
H  H111  1  0.25146860  0.02035965  0.43843696  1  0.105094  0  0.109044  0.097569  0  1.049845  0
C  C112  1  0.51135252  0.09424431  0.85337990  1  0.961956  0  0.112316  0.125744  0  4.021923  0
C  C113  1  0.45896076  0.90573247  0.14660293  1  0.935901  0  0.111105  0.125944  0  4.023227  0
C  C114  1  0.85558538  0.35339512  0.40572250  1  0.975432  0  0.111677  0.124902  0  4.020256  0
C  C115  1  0.61469581  0.64664745  0.59426315  1  0.978043  0  0.111507  0.12529  0  4.02263  0
C  C116  1  0.95896089  0.14660292  0.90573210  1  0.935901  0  0.111115  0.125924  0  4.023269  0
C  C117  1  0.01134795  0.85338046  0.09424588  1  0.962068  0  0.112321  0.125762  0  4.021768  0
C  C118  1  0.11469611  0.59426328  0.64664707  1  0.978049  0  0.111516  0.125308  0  4.022599  0
C  C119  1  0.35558540  0.40572277  0.35339520  1  0.975018  0  0.111685  0.124813  0  4.020226  0
C  C120  1  0.62946628  0.16641108  0.80393995  1  0.406177  0  -0.023543  -0.06391  0  4.02504  0
C  C121  1  0.59973854  0.83358521  0.19607595  1  0.363393  0  -0.023165  -0.062987  0  4.026254  0
C  C122  1  0.04582995  0.30392782  0.33357846  1  0.403138  0  -0.021842  -0.061306  0  4.025232  0
C  C123  1  0.68343193  0.69605554  0.66640292  1  0.305157  0  -0.022579  -0.064287  0  4.027054  0
C  C124  1  0.09973829  0.19607604  0.83358538  1  0.363398  0  -0.023146  -0.062941  0  4.02624  0
C  C125  1  0.12946482  0.80394121  0.16641109  1  0.406204  0  -0.023541  -0.063954  0  4.025123  0
C  C126  1  0.18343251  0.66640296  0.69605532  1  0.305144  0  -0.022579  -0.06429  0  4.027049  0
C  C127  1  0.54583072  0.33357799  0.30392760  1  0.403044  0  -0.021859  -0.061308  0  4.025184  0
C  C128  1  0.68096888  0.09522830  0.76188238  1  0.264526  0  -0.022884  -0.059764  0  4.029079  0
C  C129  1  0.53801360  0.90477204  0.23812038  1  0.323074  0  -0.021032  -0.05554  0  4.029708  0
C  C130  1  0.02614055  0.26187710  0.40477270  1  0.301655  0  -0.022149  -0.057351  0  4.030107  0
C  C131  1  0.69291929  0.73810550  0.59520587  1  0.360124  0  -0.022094  -0.056332  0  4.029864  0
C  C132  1  0.03801428  0.23812044  0.90477212  1  0.323012  0  -0.021053  -0.055616  0  4.029717  0
C  C133  1  0.18096673  0.76188404  0.09522794  1  0.264566  0  -0.022852  -0.059704  0  4.029089  0
C  C134  1  0.19291890  0.59520573  0.73810560  1  0.360125  0  -0.022086  -0.056325  0  4.029859  0
C  C135  1  0.52614040  0.40477266  0.26187732  1  0.301632  0  -0.022129  -0.057315  0  4.030074  0
C  C136  1  0.36803941  0.14615752  0.09819891  1  0.975539  0  0.110624  0.129367  0  4.021231  0
C  C137  1  0.61241202  0.85384463  0.90180493  1  0.949672  0  0.11115  0.128443  0  4.019947  0
C  C138  1  0.76415080  0.59819560  0.35387735  1  0.96994  0  0.110796  0.127298  0  4.021213  0
C  C139  1  0.71629431  0.40182490  0.64608447  1  0.972744  0  0.110323  0.127127  0  4.019516  0
C  C140  1  0.11241143  0.90180491  0.85384469  1  0.949681  0  0.111087  0.128322  0  4.020114  0
C  C141  1  0.86803893  0.09819904  0.14615760  1  0.975705  0  0.110624  0.129339  0  4.021239  0
C  C142  1  0.21629478  0.64608448  0.40182434  1  0.972735  0  0.110314  0.127112  0  4.01961  0
C  C143  1  0.26415074  0.35387711  0.59819523  1  0.969858  0  0.110787  0.127303  0  4.021249  0
C  C144  1  0.19890815  0.19830787  0.07225677  1  0.340679  0  -0.027286  -0.064629  0  4.0406  0
C  C145  1  0.46951536  0.80167396  0.92773794  1  0.363757  0  -0.026711  -0.063581  0  4.039653  0
C  C146  1  0.64721562  0.57225122  0.30168526  1  0.297684  0  -0.02874  -0.066453  0  4.038721  0
C  C147  1  0.52125675  0.42773515  0.69834664  1  0.388918  0  -0.027957  -0.066996  0  4.043487  0
C  C148  1  0.96951527  0.92773837  0.80167354  1  0.363762  0  -0.026718  -0.063564  0  4.039625  0
C  C149  1  0.69890742  0.07225674  0.19830806  1  0.340687  0  -0.027308  -0.064668  0  4.040565  0
C  C150  1  0.02125610  0.69834608  0.42773581  1  0.388904  0  -0.027936  -0.066913  0  4.043332  0
C  C151  1  0.14721507  0.30168586  0.57225101  1  0.297749  0  -0.028743  -0.06651  0  4.038884  0
C  C152  1  0.17702156  0.15726049  0.14393070  1  0.351577  0  -0.028016  -0.072242  0  4.051733  0
C  C153  1  0.47826337  0.84272895  0.85606495  1  0.321367  0  -0.029098  -0.074265  0  4.055058  0
C  C154  1  0.58424608  0.64390643  0.34275618  1  0.394581  0  -0.029049  -0.07316  0  4.050516  0
C  C155  1  0.57100780  0.35608695  0.65727132  1  0.283354  0  -0.029436  -0.073724  0  4.05438  0
C  C156  1  0.97826248  0.85606499  0.84272912  1  0.321371  0  -0.029094  -0.074316  0  4.055122  0
C  C157  1  0.67702163  0.14393052  0.15726044  1  0.35156  0  -0.028002  -0.072216  0  4.05172  0
C  C158  1  0.07100821  0.65727127  0.35608738  1  0.283367  0  -0.029434  -0.073772  0  4.054364  0
C  C159  1  0.08424607  0.34275567  0.64390629  1  0.394576  0  -0.029024  -0.07307  0  4.050462  0
C  C160  1  0.62076604  0.25928301  0.97627827  1  1.008741  0  0.107921  0.120008  0  4.029572  0
C  C161  1  0.85632332  0.74072783  0.02372710  1  0.964313  0  0.110328  0.12593  0  4.022432  0
C  C162  1  0.13004702  0.47628817  0.24071400  1  0.978685  0  0.110123  0.124109  0  4.027012  0
C  C163  1  0.84711743  0.52374516  0.75922452  1  0.962164  0  0.110645  0.124466  0  4.026131  0
C  C164  1  0.35632328  0.02372686  0.74072789  1  0.964259  0  0.110337  0.125941  0  4.022437  0
C  C165  1  0.12076634  0.97627791  0.25928413  1  1.008783  0  0.107891  0.119922  0  4.029673  0
C  C166  1  0.34711685  0.75922496  0.52374566  1  0.962138  0  0.110664  0.124475  0  4.026142  0
C  C167  1  0.63004792  0.24071349  0.47628788  1  0.978574  0  0.110165  0.124098  0  4.027082  0
C  C168  1  0.45554321  0.35224019  0.04159508  1  0.316024  0  -0.024543  -0.066329  0  4.026812  0
C  C169  1  0.84931916  0.64773382  0.95848109  1  0.371105  0  -0.025085  -0.064992  0  4.025904  0
C  C170  1  0.05780259  0.54159447  0.14772206  1  0.319382  0  -0.02516  -0.066184  0  4.028931  0
C  C171  1  0.74715892  0.45846149  0.85220783  1  0.346198  0  -0.02346  -0.065774  0  4.027739  0
C  C172  1  0.34931833  0.95848036  0.64773349  1  0.370971  0  -0.025103  -0.065021  0  4.025893  0
C  C173  1  0.95554161  0.04159514  0.35224133  1  0.316003  0  -0.02459  -0.066397  0  4.026878  0
C  C174  1  0.24715888  0.85220789  0.45846131  1  0.346236  0  -0.023478  -0.065799  0  4.027745  0
C  C175  1  0.55780260  0.14772196  0.54159495  1  0.319529  0  -0.025131  -0.066081  0  4.028833  0
C  C176  1  0.54868803  0.35327235  0.06559022  1  0.360471  0  -0.024347  -0.064006  0  4.034184  0
C  C177  1  0.96749939  0.64666943  0.93449045  1  0.37346  0  -0.023834  -0.063096  0  4.033483  0
C  C178  1  0.15199735  0.56557207  0.14668382  1  0.384609  0  -0.023282  -0.061524  0  4.033207  0
C  C179  1  0.86427448  0.43447266  0.85326933  1  0.314943  0  -0.024039  -0.062792  0  4.034352  0
C  C180  1  0.46749845  0.93449042  0.64666954  1  0.373401  0  -0.023843  -0.063093  0  4.033513  0
C  C181  1  0.04868581  0.06559060  0.35327327  1  0.360426  0  -0.024335  -0.064006  0  4.034135  0
C  C182  1  0.36427471  0.85326914  0.43447226  1  0.314899  0  -0.02404  -0.062812  0  4.034375  0
C  C183  1  0.65199716  0.14668431  0.56557268  1  0.384452  0  -0.023309  -0.061644  0  4.033225  0
C  C184  1  0.26886107  0.34517789  0.84144223  1  0.922791  0  0.116399  0.129506  0  4.017946  0
C  C185  1  0.45545714  0.65484442  0.15856092  1  0.979579  0  0.116433  0.129701  0  4.016047  0
C  C186  1  0.86405042  0.34144106  0.15483318  1  0.961852  0  0.114798  0.127686  0  4.019514  0
C  C187  1  0.36035879  0.65859419  0.84518649  1  0.965968  0  0.11537  0.127251  0  4.018553  0
C  C188  1  0.95545777  0.15856058  0.65484405  1  0.979747  0  0.116425  0.129661  0  4.016066  0
C  C189  1  0.76886026  0.84144198  0.34517811  1  0.923316  0  0.116403  0.129518  0  4.017973  0
C  C190  1  0.86035766  0.84518689  0.65859449  1  0.966083  0  0.115369  0.127247  0  4.018641  0
C  C191  1  0.36405114  0.15483395  0.34144135  1  0.961804  0  0.114822  0.127692  0  4.019455  0
C  C192  1  0.17509507  0.38352160  0.96614033  1  0.396878  0  -0.018982  -0.05836  0  4.01298  0
C  C193  1  0.52481019  0.61649373  0.03385279  1  0.354714  0  -0.019661  -0.058425  0  4.014499  0
C  C194  1  0.80866166  0.46614950  0.11646749  1  0.339571  0  -0.017796  -0.056099  0  4.011404  0
C  C195  1  0.39124314  0.53387877  0.88348987  1  0.350184  0  -0.019838  -0.057553  0  4.011642  0
C  C196  1  0.02481050  0.03385202  0.61649368  1  0.354607  0  -0.019663  -0.058427  0  4.014441  0
C  C197  1  0.67509430  0.96614050  0.38352242  1  0.396627  0  -0.018989  -0.05837  0  4.012962  0
C  C198  1  0.89124335  0.88348976  0.53387835  1  0.350123  0  -0.019802  -0.057523  0  4.011594  0
C  C199  1  0.30866180  0.11646827  0.46614971  1  0.33955  0  -0.017788  -0.056092  0  4.011492  0
C  C200  1  0.10753253  0.43096771  0.92044876  1  0.285924  0  -0.020727  -0.05965  0  4.026028  0
C  C201  1  0.45899752  0.56904321  0.07951384  1  0.322341  0  -0.020693  -0.058874  0  4.025139  0
C  C202  1  0.78849711  0.42047138  0.06903135  1  0.328674  0  -0.020032  -0.060846  0  4.024489  0
C  C203  1  0.27802662  0.57955909  0.93097076  1  0.325838  0  -0.019694  -0.06011  0  4.025539  0
C  C204  1  0.95899745  0.07951429  0.56904341  1  0.322349  0  -0.020701  -0.058884  0  4.025137  0
C  C205  1  0.60753256  0.92044806  0.43096785  1  0.285896  0  -0.020742  -0.059644  0  4.02602  0
C  C206  1  0.77802607  0.93096974  0.57955953  1  0.325905  0  -0.019637  -0.060026  0  4.025538  0
C  C207  1  0.28849774  0.06903190  0.42047146  1  0.328688  0  -0.020024  -0.060817  0  4.024515  0
N  N208  1  0.52180274  0.16525989  0.86201558  1  -1.255261  0  -0.382055  -0.295696  0  3.639264  0
N  N209  1  0.54905011  0.83472501  0.13798285  1  -1.263737  0  -0.38079  -0.2957  0  3.640801  0
N  N210  1  0.93705277  0.36201622  0.33471081  1  -1.270344  0  -0.382459  -0.296625  0  3.640672  0
N  N211  1  0.63379953  0.63799964  0.66527119  1  -1.27409  0  -0.380701  -0.294532  0  3.639852  0
N  N212  1  0.04905060  0.13798281  0.83472507  1  -1.263747  0  -0.380809  -0.295722  0  3.640831  0
N  N213  1  0.02180118  0.86201583  0.16526117  1  -1.255305  0  -0.382075  -0.295686  0  3.639221  0
N  N214  1  0.13379972  0.66527120  0.63799957  1  -1.274095  0  -0.380701  -0.294531  0  3.639877  0
N  N215  1  0.43705309  0.33471036  0.36201662  1  -1.269807  0  -0.382451  -0.296575  0  3.640509  0
N  N216  1  0.60519103  0.04990440  0.79342571  1  -1.264375  0  -0.380176  -0.296924  0  3.626501  0
N  N217  1  0.44848589  0.95008865  0.20655793  1  -1.25729  0  -0.381884  -0.300699  0  3.629355  0
N  N218  1  0.90506187  0.29343199  0.45008828  1  -1.268164  0  -0.380455  -0.298003  0  3.627318  0
N  N219  1  0.64864112  0.70658361  0.54989670  1  -1.258331  0  -0.383141  -0.300931  0  3.629378  0
N  N220  1  0.94848637  0.20655746  0.95008881  1  -1.257229  0  -0.381862  -0.300628  0  3.629316  0
N  N221  1  0.10518833  0.79342718  0.04990467  1  -1.264353  0  -0.380196  -0.296976  0  3.62652  0
N  N222  1  0.14864081  0.54989656  0.70658383  1  -1.258342  0  -0.383143  -0.300936  0  3.629378  0
N  N223  1  0.40506178  0.45008834  0.29343190  1  -1.268166  0  -0.380456  -0.297965  0  3.627363  0
N  N224  1  0.32034520  0.19105705  0.04365164  1  -1.264696  0  -0.379399  -0.295314  0  3.623226  0
N  N225  1  0.55507356  0.80893931  0.95635048  1  -1.26714  0  -0.380304  -0.296084  0  3.621026  0
N  N226  1  0.76139302  0.54365892  0.30895596  1  -1.26864  0  -0.379688  -0.293072  0  3.620031  0
N  N227  1  0.61408813  0.45634979  0.69103085  1  -1.262492  0  -0.379726  -0.292818  0  3.621594  0
N  N228  1  0.05507389  0.95635050  0.80893922  1  -1.267152  0  -0.380268  -0.296028  0  3.621102  0
N  N229  1  0.82034564  0.04365187  0.19105741  1  -1.264701  0  -0.379388  -0.295284  0  3.623174  0
N  N230  1  0.11408839  0.69103093  0.45634990  1  -1.262475  0  -0.379763  -0.292906  0  3.62154  0
N  N231  1  0.26139249  0.30895609  0.54365874  1  -1.2687  0  -0.37971  -0.293086  0  3.62009  0
N  N232  1  0.28488657  0.12421830  0.15996676  1  -1.267084  0  -0.384061  -0.301327  0  3.637766  0
N  N233  1  0.56909580  0.87578434  0.84003149  1  -1.253776  0  -0.382643  -0.299656  0  3.640255  0
N  N234  1  0.65905190  0.65995392  0.37580781  1  -1.258194  0  -0.38251  -0.300439  0  3.637318  0
N  N235  1  0.69488916  0.34005326  0.62416979  1  -1.2636  0  -0.382492  -0.300291  0  3.638678  0
N  N236  1  0.06909536  0.84003138  0.87578431  1  -1.25377  0  -0.382656  -0.299633  0  3.640297  0
N  N237  1  0.78488763  0.15996587  0.12421773  1  -1.26719  0  -0.38406  -0.301335  0  3.637765  0
N  N238  1  0.19488939  0.62416983  0.34005339  1  -1.263621  0  -0.382493  -0.300261  0  3.638709  0
N  N239  1  0.15905178  0.37580787  0.65995384  1  -1.258116  0  -0.382494  -0.300436  0  3.637288  0
N  N240  1  0.50215860  0.29231635  0.98485430  1  -1.274406  0  -0.384395  -0.300606  0  3.643797  0
N  N241  1  0.77930569  0.70768794  0.01517593  1  -1.302992  0  -0.385807  -0.30514  0  3.643782  0
N  N242  1  0.04448774  0.48485916  0.20766296  1  -1.271198  0  -0.385381  -0.30283  0  3.644842  0
N  N243  1  0.73707142  0.51518202  0.79226746  1  -1.275556  0  -0.384384  -0.300125  0  3.643732  0
N  N244  1  0.27930613  0.01517560  0.70768808  1  -1.302787  0  -0.385797  -0.305144  0  3.643786  0
N  N245  1  0.00215717  0.98485445  0.29231703  1  -1.274394  0  -0.384314  -0.300441  0  3.643694  0
N  N246  1  0.23707140  0.79226744  0.51518223  1  -1.27556  0  -0.384391  -0.300127  0  3.643725  0
N  N247  1  0.54448736  0.20766266  0.48485972  1  -1.271223  0  -0.385449  -0.302889  0  3.644863  0
N  N248  1  0.65333223  0.29436456  0.02366510  1  -1.267531  0  -0.380602  -0.29327  0  3.612569  0
N  N249  1  0.97134648  0.70560707  0.97636720  1  -1.271855  0  -0.380649  -0.295634  0  3.611235  0
N  N250  1  0.19770493  0.52366389  0.20561340  1  -1.277003  0  -0.383429  -0.297186  0  3.610913  0
N  N251  1  0.92702787  0.47636446  0.79433883  1  -1.248457  0  -0.383563  -0.29761  0  3.615343  0
N  N252  1  0.47134631  0.97636692  0.70560702  1  -1.271852  0  -0.380649  -0.29562  0  3.611201  0
N  N253  1  0.15333053  0.02366590  0.29436537  1  -1.267542  0  -0.380593  -0.29325  0  3.612532  0
N  N254  1  0.42702748  0.79433911  0.47636475  1  -1.248454  0  -0.383578  -0.297599  0  3.615397  0
N  N255  1  0.69770490  0.20561298  0.52366366  1  -1.276975  0  -0.38343  -0.297135  0  3.610911  0
N  N256  1  0.27719555  0.32931637  0.91550844  1  -1.248503  0  -0.383045  -0.2954  0  3.646805  0
N  N257  1  0.52202712  0.67069626  0.08450182  1  -1.274733  0  -0.380854  -0.293913  0  3.646982  0
N  N258  1  0.85655143  0.41550889  0.17067473  1  -1.249033  0  -0.381546  -0.294214  0  3.646799  0
N  N259  1  0.44271769  0.58452208  0.82930405  1  -1.269821  0  -0.38112  -0.293918  0  3.646882  0
N  N260  1  0.02202836  0.08450145  0.67069653  1  -1.274637  0  -0.380868  -0.293915  0  3.646917  0
N  N261  1  0.77719605  0.91550818  0.32931605  1  -1.248254  0  -0.383048  -0.295425  0  3.646837  0
N  N262  1  0.94271749  0.82930356  0.58452231  1  -1.269887  0  -0.381123  -0.293916  0  3.646827  0
N  N263  1  0.35655163  0.17067518  0.41550911  1  -1.249038  0  -0.381566  -0.294257  0  3.646895  0
N  N264  1  0.16768008  0.40633118  0.84140851  1  -1.28171  0  -0.381277  -0.293405  0  3.631764  0
N  N265  1  0.41542509  0.59368059  0.15856716  1  -1.260078  0  -0.383153  -0.298196  0  3.632259  0
N  N266  1  0.82399975  0.34142763  0.09368477  1  -1.277548  0  -0.382808  -0.294475  0  3.63317  0
N  N267  1  0.25914835  0.65861270  0.90634425  1  -1.283545  0  -0.382799  -0.294898  0  3.632594  0
N  N268  1  0.91542606  0.15856697  0.59368045  1  -1.260246  0  -0.383165  -0.298227  0  3.632315  0
N  N269  1  0.66767950  0.84140884  0.40633116  1  -1.28174  0  -0.381278  -0.293417  0  3.631785  0
N  N270  1  0.75914922  0.90634378  0.65861206  1  -1.283577  0  -0.382831  -0.294925  0  3.632754  0
N  N271  1  0.32399975  0.09368454  0.34142722  1  -1.277499  0  -0.382819  -0.294474  0  3.633106  0
