# generated using pymatgen
data_CuH18(C9N5)2
_symmetry_space_group_name_H-M   'P 1'
_cell_length_a   8.26656700
_cell_length_b   9.09483160
_cell_length_c   12.77391033
_cell_angle_alpha   89.99905037
_cell_angle_beta   90.00135608
_cell_angle_gamma   106.69075490
_symmetry_Int_Tables_number   1
_chemical_formula_structural   CuH18(C9N5)2
_chemical_formula_sum   'Cu2 H36 C36 N20'
_cell_volume   919.91937363
_cell_formula_units_Z   2
loop_
 _symmetry_equiv_pos_site_id
 _symmetry_equiv_pos_as_xyz
  1  'x, y, z'
loop_
 _atom_site_type_symbol
 _atom_site_label
 _atom_site_symmetry_multiplicity
 _atom_site_fract_x
 _atom_site_fract_y
 _atom_site_fract_z
 _atom_site_occupancy
 _atom_site_pbe_cm5_charge
 _atom_site_pbe_ddec_charge
 _atom_site_pbe_ddec_spin_density
 _atom_site_pbe_ddec_sum_bond_order
 _atom_site_pbe_magmom
Cu  Cu0  1  0.99999903  0.49999887  0.49999882  1  0.768455  0.697671  -0.643935  2.33672  -0.47
Cu  Cu1  1  0.99999450  0.99999692  0.00000409  1  0.76849  0.697633  -0.643906  2.336786  -0.47
H  H2  1  0.34006603  0.75481920  0.43974759  1  0.103041  0.116233  0.000357  1.021365  0.0
H  H3  1  0.34007012  0.25482086  0.06026299  1  0.103056  0.11622  0.000357  1.021436  0.0
H  H4  1  0.65993289  0.24517597  0.56025257  1  0.103046  0.116269  0.000357  1.02136  0.0
H  H5  1  0.65992166  0.74517087  0.93974108  1  0.103066  0.116238  0.000357  1.02143  0.0
H  H6  1  0.27528040  0.80378058  0.56261129  1  0.103007  0.112705  0.000311  0.982682  0.0
H  H7  1  0.27527449  0.30377198  0.93739690  1  0.103002  0.112668  0.00031  0.982715  0.0
H  H8  1  0.72472336  0.19621460  0.43738651  1  0.103002  0.112678  0.00031  0.982728  0.0
H  H9  1  0.72471608  0.69621974  0.06260716  1  0.103007  0.112707  0.00031  0.982752  0.0
H  H10  1  0.44589413  0.03017500  0.38919495  1  0.089721  0.08601  3.6e-05  0.99202  0.0
H  H11  1  0.44589408  0.53017827  0.11079955  1  0.089711  0.086022  3.6e-05  0.992033  0.0
H  H12  1  0.55410976  0.96981674  0.61080129  1  0.089709  0.08607  3.6e-05  0.99204  0.0
H  H13  1  0.55410013  0.46981345  0.88919747  1  0.089709  0.086019  3.7e-05  0.991897  0.0
H  H14  1  0.36547922  0.08614611  0.50599770  1  0.085524  0.077575  -0.000114  1.033358  0.0
H  H15  1  0.36547215  0.58614019  0.99399723  1  0.08551  0.077574  -0.000114  1.033364  0.0
H  H16  1  0.63452320  0.91385252  0.49400245  1  0.085495  0.077546  -0.000114  1.033414  0.0
H  H17  1  0.63452314  0.41385498  0.00600449  1  0.085495  0.077536  -0.000114  1.033404  0.0
H  H18  1  0.14610707  0.04343451  0.36266272  1  0.314336  0.290328  -0.00169  0.988696  -0.001
H  H19  1  0.14610680  0.54342248  0.13734817  1  0.314305  0.290285  -0.00169  0.988815  -0.001
H  H20  1  0.85390190  0.95656183  0.63733587  1  0.31431  0.290317  -0.001689  0.988717  -0.001
H  H21  1  0.85388957  0.45657614  0.86265120  1  0.314326  0.290274  -0.00169  0.988767  -0.001
H  H22  1  0.83788910  0.04620711  0.25916876  1  0.101356  0.115619  -0.000182  1.039566  0.0
H  H23  1  0.83788590  0.54616598  0.24084878  1  0.101349  0.115566  -0.000182  1.039816  0.0
H  H24  1  0.16212154  0.95379842  0.74082592  1  0.101361  0.11568  -0.000182  1.039501  0.0
H  H25  1  0.16211564  0.45384526  0.75914824  1  0.101348  0.115531  -0.000181  1.039878  0.0
H  H26  1  0.54115595  0.87701183  0.23513604  1  0.093821  0.089183  -0.000316  1.05246  0.0
H  H27  1  0.54116365  0.37695880  0.26487461  1  0.093753  0.089194  -0.000316  1.052523  0.0
H  H28  1  0.45884913  0.12299139  0.76485707  1  0.093823  0.089107  -0.000316  1.052525  0.0
H  H29  1  0.45883512  0.62305129  0.73512946  1  0.093789  0.089269  -0.000316  1.052539  0.0
H  H30  1  0.44489672  0.62423767  0.31844958  1  0.096998  0.100008  -0.000285  1.040623  0.0
H  H31  1  0.44488614  0.12419389  0.18154614  1  0.096969  0.099865  -0.000285  1.040495  0.0
H  H32  1  0.55511114  0.37576670  0.68154666  1  0.096981  0.099965  -0.000285  1.04058  0.0
H  H33  1  0.55510151  0.87581160  0.81846184  1  0.096958  0.099817  -0.000285  1.040609  0.0
H  H34  1  0.64267291  0.52200765  0.42642333  1  0.105208  0.114003  0.000113  1.005811  0.0
H  H35  1  0.64267938  0.02199993  0.07356018  1  0.105165  0.113899  0.000113  1.005859  0.0
H  H36  1  0.35733240  0.47800016  0.57357290  1  0.105176  0.113979  0.000113  1.005834  0.0
H  H37  1  0.35731166  0.97800097  0.92645015  1  0.105136  0.113873  0.000113  1.005901  0.0
C  C38  1  0.29116920  0.84039473  0.47995836  1  -0.15318  -0.260081  7.6e-05  3.970327  0.0
C  C39  1  0.29116864  0.34039009  0.02004655  1  -0.153189  -0.25992  7.6e-05  3.970334  0.0
C  C40  1  0.70883698  0.15960046  0.52004180  1  -0.153207  -0.260078  7.7e-05  3.970338  0.0
C  C41  1  0.70882907  0.65960508  0.97995674  1  -0.153195  -0.260004  7.7e-05  3.970554  0.0
C  C42  1  0.41810990  0.99865987  0.47190839  1  -0.166247  -0.128556  -7.1e-05  3.929113  0.0
C  C43  1  0.41810753  0.49865626  0.02808797  1  -0.166245  -0.128621  -7.1e-05  3.929187  0.0
C  C44  1  0.58189108  0.00133416  0.52808863  1  -0.166204  -0.128613  -7e-05  3.929152  0.0
C  C45  1  0.58188740  0.50133776  0.97191296  1  -0.166149  -0.128503  -7e-05  3.929015  0.0
C  C46  1  0.12060558  0.82552584  0.43659297  1  0.242449  0.393314  0.000589  3.913384  0.0
C  C47  1  0.12060591  0.32552286  0.06340636  1  0.242384  0.393269  0.000587  3.913391  0.0
C  C48  1  0.87940205  0.17447394  0.56340640  1  0.242469  0.39341  0.000589  3.913677  0.0
C  C49  1  0.87938889  0.67447461  0.93659614  1  0.24234  0.393101  0.000586  3.913599  0.0
C  C50  1  0.85140588  0.72669055  0.39974121  1  0.081323  0.128284  -0.001475  4.082207  -0.002
C  C51  1  0.85140377  0.22667553  0.10025091  1  0.08118  0.128231  -0.001475  4.082313  -0.002
C  C52  1  0.14859825  0.27330578  0.60025268  1  0.081305  0.128362  -0.001476  4.082023  -0.002
C  C53  1  0.14858449  0.77332421  0.89975002  1  0.081086  0.12817  -0.001476  4.082245  -0.002
C  C54  1  0.90433998  0.87479051  0.35441241  1  0.091477  0.147912  -0.00228  4.018278  -0.002
C  C55  1  0.90433668  0.37477022  0.14558895  1  0.091545  0.148015  -0.00228  4.018656  -0.002
C  C56  1  0.09566414  0.12520583  0.64558226  1  0.09148  0.147865  -0.00228  4.018461  -0.002
C  C57  1  0.09565509  0.62523297  0.85440808  1  0.091635  0.148037  -0.00228  4.018405  -0.002
C  C58  1  0.79562013  0.93290386  0.29462610  1  -0.097363  -0.171134  -0.000259  3.995497  0.0
C  C59  1  0.79561888  0.43286777  0.20538152  1  -0.097433  -0.171254  -0.000258  3.996106  0.0
C  C60  1  0.20439269  0.06709707  0.70536623  1  -0.097394  -0.171277  -0.000258  3.995568  0.0
C  C61  1  0.20437468  0.56714116  0.79461394  1  -0.097522  -0.171361  -0.000258  3.995982  0.0
C  C62  1  0.63115396  0.83808475  0.28180787  1  -0.100616  -0.092723  -0.000213  4.028739  0.0
C  C63  1  0.63115554  0.33804847  0.21819601  1  -0.100479  -0.092718  -0.000213  4.028608  0.0
C  C64  1  0.36885861  0.16192307  0.71818524  1  -0.100628  -0.092632  -0.000212  4.028812  0.0
C  C65  1  0.36883996  0.66196276  0.78180650  1  -0.100571  -0.092834  -0.000213  4.028827  0.0
C  C66  1  0.57598113  0.69220439  0.32917438  1  -0.10086  -0.09687  2e-05  4.020046  0.0
C  C67  1  0.57597780  0.19217340  0.17081628  1  -0.100766  -0.096534  2e-05  4.019709  0.0
C  C68  1  0.42402964  0.30779769  0.67081716  1  -0.100831  -0.096769  1.9e-05  4.02004  0.0
C  C69  1  0.42401567  0.80782750  0.82919405  1  -0.100775  -0.096546  1.9e-05  4.019929  0.0
C  C70  1  0.68437622  0.63492110  0.38980382  1  -0.095761  -0.168124  -0.000122  4.004659  0.0
C  C71  1  0.68437588  0.13491053  0.11018762  1  -0.095748  -0.16817  -0.000122  4.004969  0.0
C  C72  1  0.31563259  0.36509015  0.61019712  1  -0.095729  -0.168154  -0.000122  4.004661  0.0
C  C73  1  0.31561552  0.86509152  0.88981958  1  -0.095633  -0.168011  -0.000122  4.00474  0.0
N  N74  1  0.84996942  0.51617212  0.62260451  1  -0.301534  -0.513291  -0.051955  2.983174  -0.064
N  N75  1  0.84997901  0.01617363  0.87738771  1  -0.30148  -0.513171  -0.051942  2.983609  -0.064
N  N76  1  0.15002842  0.48381961  0.37739017  1  -0.301347  -0.512883  -0.051907  2.983826  -0.064
N  N77  1  0.15001556  0.98381924  0.12262184  1  -0.301305  -0.512903  -0.051902  2.983951  -0.064
N  N78  1  0.81580574  0.63241418  0.64358930  1  0.078753  0.418912  0.000681  4.494256  0.003
N  N79  1  0.81582447  0.13241258  0.85640258  1  0.078685  0.418747  0.000687  4.494442  0.003
N  N80  1  0.18419218  0.36759705  0.35641163  1  0.078666  0.418604  0.000695  4.494415  0.003
N  N81  1  0.18417079  0.86759406  0.14360462  1  0.07868  0.418708  0.000695  4.494705  0.003
N  N82  1  0.77763359  0.74239907  0.66786753  1  -0.198814  -0.394123  -0.068622  2.632161  -0.073
N  N83  1  0.77765879  0.24240931  0.83212012  1  -0.19886  -0.394078  -0.068647  2.631812  -0.073
N  N84  1  0.22237658  0.25759727  0.33212871  1  -0.198998  -0.394274  -0.068666  2.631483  -0.073
N  N85  1  0.22234618  0.75758587  0.16788630  1  -0.199073  -0.394382  -0.068673  2.631705  -0.073
N  N86  1  0.07336377  0.93371880  0.38073750  1  -0.369177  -0.303403  -0.00307  3.557055  -0.004
N  N87  1  0.07336143  0.43370465  0.11926766  1  -0.369123  -0.303417  -0.00307  3.557311  -0.004
N  N88  1  0.92664022  0.06628097  0.61926109  1  -0.369201  -0.303528  -0.003069  3.557417  -0.004
N  N89  1  0.92663095  0.56629281  0.88073171  1  -0.369134  -0.303337  -0.00307  3.557181  -0.004
N  N90  1  0.99015651  0.69947386  0.44841508  1  -0.387644  -0.410564  -0.049582  3.589975  -0.06
N  N91  1  0.99015598  0.19947334  0.05157479  1  -0.387531  -0.410458  -0.04958  3.589992  -0.06
N  N92  1  0.00985026  0.30052706  0.55157881  1  -0.387572  -0.410521  -0.049571  3.589977  -0.06
N  N93  1  0.00983931  0.80052183  0.94843241  1  -0.387452  -0.41026  -0.049571  3.589881  -0.06
