# generated using pymatgen
data_InHC8O5F4
_symmetry_space_group_name_H-M   'P 1'
_cell_length_a   13.90585822
_cell_length_b   17.16764390
_cell_length_c   21.76232280
_cell_angle_alpha   89.99968224
_cell_angle_beta   90.00006732
_cell_angle_gamma   89.99994066
_symmetry_Int_Tables_number   1
_chemical_formula_structural   InHC8O5F4
_chemical_formula_sum   'In12 H12 C96 O60 F48'
_cell_volume   5195.33721174
_cell_formula_units_Z   12
loop_
 _symmetry_equiv_pos_site_id
 _symmetry_equiv_pos_as_xyz
  1  'x, y, z'
loop_
 _atom_site_type_symbol
 _atom_site_label
 _atom_site_symmetry_multiplicity
 _atom_site_fract_x
 _atom_site_fract_y
 _atom_site_fract_z
 _atom_site_occupancy
 _atom_site_pbe_bader_charge
 _atom_site_pbe_bader_spin_density
 _atom_site_pbe_cm5_charge
 _atom_site_pbe_ddec_charge
 _atom_site_pbe_ddec_spin_density
 _atom_site_pbe_ddec_sum_bond_order
 _atom_site_pbe_magmom
In  In0  1  0.74999477  0.25082239  0.24999970  1  1.957624  0  0.776377  1.54343  0  2.769577  0
In  In1  1  0.74999523  0.24917685  0.74999964  1  1.957615  0  0.776348  1.543402  0  2.769571  0
In  In2  1  0.25000707  0.74917753  0.75000019  1  1.957632  0  0.776323  1.543335  0  2.769641  0
In  In3  1  0.25000589  0.75082365  0.25000072  1  1.957656  0  0.77636  1.543452  0  2.769505  0
In  In4  1  0.75132499  0.24910812  0.08371782  1  1.964319  0  0.781191  1.56261  0  2.771364  0
In  In5  1  0.75132647  0.25089345  0.91628290  1  1.964289  0  0.781163  1.562519  0  2.771409  0
In  In6  1  0.74867677  0.24910230  0.41628480  1  1.964348  0  0.781201  1.562587  0  2.771166  0
In  In7  1  0.74867764  0.25089345  0.58371408  1  1.964277  0  0.781218  1.562624  0  2.77113  0
In  In8  1  0.24867828  0.75089879  0.91628253  1  1.964311  0  0.78124  1.56267  0  2.771144  0
In  In9  1  0.24867537  0.74910764  0.08371792  1  1.964313  0  0.781144  1.562513  0  2.771396  0
In  In10  1  0.25132506  0.75089180  0.58371371  1  1.964265  0  0.781229  1.562654  0  2.771144  0
In  In11  1  0.25132276  0.74910530  0.41628536  1  1.964328  0  0.781206  1.562616  0  2.771207  0
H  H12  1  0.87570068  0.29871272  0.16733981  1  0.625227  0  0.324071  0.414147  0  0.880337  0
H  H13  1  0.87569991  0.20128816  0.83265917  1  0.625234  0  0.32404  0.414102  0  0.880392  0
H  H14  1  0.62429887  0.29871399  0.33266582  1  0.625415  0  0.324039  0.41405  0  0.880474  0
H  H15  1  0.62429708  0.20128419  0.66733297  1  0.625413  0  0.324076  0.414119  0  0.880409  0
H  H16  1  0.12430044  0.70129011  0.83265963  1  0.625266  0  0.324077  0.414149  0  0.880325  0
H  H17  1  0.12429905  0.79871176  0.16734073  1  0.625208  0  0.324033  0.414113  0  0.880387  0
H  H18  1  0.37570225  0.70128476  0.66733316  1  0.625383  0  0.324062  0.414132  0  0.880379  0
H  H19  1  0.37570332  0.79871515  0.33266738  1  0.62537  0  0.324079  0.414109  0  0.880423  0
H  H20  1  0.60571885  0.24998977  0.99999909  1  0.644978  0  0.336816  0.435326  0  0.842661  0
H  H21  1  0.89428742  0.25000830  0.49999927  1  0.644893  0  0.336878  0.435341  0  0.842679  0
H  H22  1  0.39428246  0.74999033  0.99999838  1  0.644942  0  0.336761  0.435228  0  0.842804  0
H  H23  1  0.10571226  0.75000968  0.49999787  1  0.644887  0  0.336877  0.435366  0  0.842716  0
C  C24  1  0.61434676  0.35637537  0.16792270  1  1.649936  0  0.247414  0.663399  0  4.150075  0
C  C25  1  0.61434175  0.14362399  0.83207838  1  1.649733  0  0.247337  0.663335  0  4.149784  0
C  C26  1  0.88565775  0.35637585  0.33207854  1  1.649744  0  0.247449  0.663567  0  4.149801  0
C  C27  1  0.88565603  0.14362270  0.66792137  1  1.649737  0  0.247342  0.663307  0  4.150071  0
C  C28  1  0.38565651  0.64362397  0.83207719  1  1.650224  0  0.247424  0.663505  0  4.149841  0
C  C29  1  0.38565721  0.85637768  0.16792290  1  1.650284  0  0.247349  0.663369  0  4.150051  0
C  C30  1  0.11434697  0.64362058  0.66792090  1  1.64993  0  0.247391  0.663342  0  4.150088  0
C  C31  1  0.11434293  0.85637547  0.33207991  1  1.649688  0  0.247328  0.663366  0  4.150033  0
C  C32  1  0.54473361  0.42327510  0.16512503  1  0.118546  0  -0.020659  -0.20414  0  3.979199  0
C  C33  1  0.54473444  0.07672490  0.83487461  1  0.118705  0  -0.02065  -0.204058  0  3.979161  0
C  C34  1  0.95526722  0.42327549  0.33487591  1  0.118763  0  -0.020646  -0.204052  0  3.979103  0
C  C35  1  0.95526702  0.07672532  0.66512543  1  0.118702  0  -0.020656  -0.204078  0  3.97923  0
C  C36  1  0.45526679  0.57672599  0.83487394  1  0.118882  0  -0.020635  -0.203977  0  3.979059  0
C  C37  1  0.45526884  0.92327619  0.16512666  1  0.118769  0  -0.020591  -0.203944  0  3.978986  0
C  C38  1  0.04473462  0.57672501  0.66512490  1  0.118501  0  -0.020665  -0.20407  0  3.97918  0
C  C39  1  0.04473410  0.92327285  0.33487631  1  0.118637  0  -0.020656  -0.204096  0  3.979212  0
C  C40  1  0.47923175  0.43657731  0.21285748  1  0.511042  0  0.098731  0.165683  0  4.074676  0
C  C41  1  0.47923467  0.06342216  0.78714304  1  0.511479  0  0.098763  0.165677  0  4.074783  0
C  C42  1  0.02076317  0.43658073  0.28714211  1  0.511495  0  0.098735  0.165575  0  4.074788  0
C  C43  1  0.02076524  0.06342203  0.71285668  1  0.511498  0  0.098719  0.165561  0  4.074819  0
C  C44  1  0.52076433  0.56342029  0.78714058  1  0.511512  0  0.098738  0.165635  0  4.074736  0
C  C45  1  0.52077004  0.93658009  0.21285732  1  0.511491  0  0.098737  0.165686  0  4.074711  0
C  C46  1  0.97923435  0.56341919  0.71285687  1  0.511503  0  0.098729  0.165684  0  4.074714  0
C  C47  1  0.97923444  0.93657789  0.28714460  1  0.511538  0  0.098754  0.165669  0  4.074736  0
C  C48  1  0.41841634  0.50103638  0.21257334  1  0.58555  0  0.102023  0.172952  0  4.069783  0
C  C49  1  0.41842014  0.99896349  0.78742540  1  0.58466  0  0.10197  0.172917  0  4.070035  0
C  C50  1  0.08157707  0.50104034  0.28742413  1  0.584677  0  0.101976  0.173056  0  4.069818  0
C  C51  1  0.08158074  0.99896215  0.71257343  1  0.584658  0  0.10209  0.173104  0  4.069733  0
C  C52  1  0.58157975  0.49896063  0.78742472  1  0.584731  0  0.101932  0.172887  0  4.069823  0
C  C53  1  0.58158242  0.00103876  0.21257357  1  0.584697  0  0.101996  0.172895  0  4.069798  0
C  C54  1  0.91842189  0.49896017  0.71257301  1  0.584655  0  0.101934  0.17286  0  4.069865  0
C  C55  1  0.91841894  0.00103835  0.28742693  1  0.584686  0  0.102063  0.173033  0  4.069875  0
C  C56  1  0.42017882  0.55474747  0.16410183  1  0.091112  0  -0.018454  -0.203933  0  3.974623  0
C  C57  1  0.42017919  0.94525298  0.83589737  1  0.091518  0  -0.018423  -0.203929  0  3.974626  0
C  C58  1  0.07981883  0.55474993  0.33589770  1  0.091731  0  -0.018435  -0.203978  0  3.974614  0
C  C59  1  0.07981744  0.94525256  0.66410078  1  0.091915  0  -0.018444  -0.20391  0  3.974565  0
C  C60  1  0.57982086  0.44524837  0.83589669  1  0.091402  0  -0.018421  -0.203869  0  3.974716  0
C  C61  1  0.57982337  0.05475043  0.16410207  1  0.091396  0  -0.018452  -0.204009  0  3.974727  0
C  C62  1  0.92018013  0.44525058  0.66410036  1  0.091429  0  -0.018424  -0.203897  0  3.974596  0
C  C63  1  0.92018008  0.05474794  0.33589866  1  0.091463  0  -0.018439  -0.203932  0  3.974671  0
C  C64  1  0.48501837  0.54106665  0.11599948  1  0.540453  0  0.100445  0.168325  0  4.068989  0
C  C65  1  0.48501880  0.95893259  0.88400160  1  0.540521  0  0.100383  0.168225  0  4.069126  0
C  C66  1  0.01497930  0.54106823  0.38400057  1  0.540476  0  0.100429  0.168315  0  4.068983  0
C  C67  1  0.01497637  0.95893256  0.61599970  1  0.540375  0  0.100398  0.16823  0  4.068987  0
C  C68  1  0.51498203  0.45892978  0.88399904  1  0.540604  0  0.100419  0.168275  0  4.069118  0
C  C69  1  0.51498376  0.04106908  0.11599967  1  0.540506  0  0.100454  0.168426  0  4.068878  0
C  C70  1  0.98502110  0.45893344  0.61599887  1  0.540462  0  0.100428  0.168284  0  4.069026  0
C  C71  1  0.98502043  0.04106736  0.38400111  1  0.540449  0  0.100366  0.168211  0  4.06906  0
C  C72  1  0.54608979  0.47661747  0.11646605  1  0.553505  0  0.099667  0.167201  0  4.072388  0
C  C73  1  0.54609078  0.02338194  0.88353406  1  0.553461  0  0.0997  0.167249  0  4.072383  0
C  C74  1  0.95390881  0.47661928  0.38353558  1  0.553509  0  0.099711  0.167219  0  4.072312  0
C  C75  1  0.95390499  0.02338212  0.61646576  1  0.553553  0  0.099772  0.16731  0  4.072241  0
C  C76  1  0.45391061  0.52338070  0.88353201  1  0.55338  0  0.09963  0.167076  0  4.072622  0
C  C77  1  0.45391178  0.97661856  0.11646630  1  0.553497  0  0.099642  0.167071  0  4.072302  0
C  C78  1  0.04609231  0.52338181  0.61646615  1  0.553492  0  0.099665  0.167198  0  4.072363  0
C  C79  1  0.04609181  0.97661721  0.38353506  1  0.55352  0  0.099726  0.16724  0  4.072342  0
C  C80  1  0.35529677  0.62464877  0.16380940  1  1.645288  0  0.252332  0.66234  0  4.141733  0
C  C81  1  0.35529291  0.87535291  0.83618975  1  1.6453  0  0.252431  0.662529  0  4.141661  0
C  C82  1  0.14469792  0.62465233  0.33619074  1  1.645134  0  0.252393  0.662335  0  4.141667  0
C  C83  1  0.14470093  0.87535127  0.66380871  1  1.645095  0  0.252355  0.66228  0  4.14155  0
C  C84  1  0.64470507  0.37534999  0.83618957  1  1.645289  0  0.252355  0.662351  0  4.141881  0
C  C85  1  0.64470605  0.12465051  0.16380831  1  1.645303  0  0.252384  0.662417  0  4.141734  0
C  C86  1  0.85529817  0.37535051  0.66380916  1  1.645389  0  0.252396  0.662426  0  4.141595  0
C  C87  1  0.85529731  0.12464806  0.33618981  1  1.645434  0  0.252363  0.662365  0  4.141854  0
C  C88  1  0.87041527  0.13392774  0.99420411  1  1.638259  0  0.250422  0.665514  0  4.13812  0
C  C89  1  0.87041710  0.36607198  0.00579808  1  1.638231  0  0.250409  0.665345  0  4.138283  0
C  C90  1  0.62958467  0.13392548  0.50579614  1  1.638474  0  0.250486  0.665506  0  4.13802  0
C  C91  1  0.62958739  0.36607386  0.49420312  1  1.638177  0  0.250401  0.665458  0  4.138027  0
C  C92  1  0.12958297  0.86607218  0.00579671  1  1.638579  0  0.250405  0.665407  0  4.13832  0
C  C93  1  0.12958545  0.63392736  0.99420319  1  1.638228  0  0.250422  0.665458  0  4.138104  0
C  C94  1  0.37041285  0.86607153  0.49420514  1  1.638379  0  0.250446  0.665541  0  4.138173  0
C  C95  1  0.37041373  0.63392722  0.50579724  1  1.638279  0  0.250368  0.665412  0  4.138112  0
C  C96  1  0.93691391  0.06506852  0.99714469  1  0.059287  0  -0.019386  -0.205996  0  3.984164  0
C  C97  1  0.93691565  0.43493290  0.00285663  1  0.05931  0  -0.019408  -0.206038  0  3.984147  0
C  C98  1  0.56308540  0.06506808  0.50285586  1  0.059303  0  -0.019453  -0.206063  0  3.984149  0
C  C99  1  0.56308588  0.43493248  0.49714564  1  0.059449  0  -0.019445  -0.206068  0  3.984092  0
C  C100  1  0.06308433  0.93493198  0.00285705  1  0.059267  0  -0.019372  -0.205952  0  3.98428  0
C  C101  1  0.06308547  0.56506761  0.99714464  1  0.059392  0  -0.019444  -0.206077  0  3.984123  0
C  C102  1  0.43691428  0.93492951  0.49714496  1  0.059229  0  -0.019414  -0.206047  0  3.984106  0
C  C103  1  0.43691596  0.56506860  0.50285655  1  0.059275  0  -0.019359  -0.205942  0  3.98438  0
C  C104  1  0.93705115  0.01508538  0.04801450  1  0.592192  0  0.100703  0.169388  0  4.074372  0
C  C105  1  0.93705455  0.48491429  0.95198591  1  0.592324  0  0.100659  0.169363  0  4.074294  0
C  C106  1  0.56294516  0.01508528  0.45198686  1  0.592327  0  0.100688  0.169452  0  4.074198  0
C  C107  1  0.56294639  0.48491412  0.54801510  1  0.592187  0  0.100723  0.169449  0  4.074305  0
C  C108  1  0.06294637  0.98491396  0.95198770  1  0.592165  0  0.100586  0.169283  0  4.074559  0
C  C109  1  0.06294585  0.51508563  0.04801491  1  0.592191  0  0.100739  0.169453  0  4.074339  0
C  C110  1  0.43705380  0.98491348  0.54801442  1  0.592409  0  0.100717  0.169461  0  4.074278  0
C  C111  1  0.43705329  0.51508755  0.45198663  1  0.592226  0  0.100602  0.16929  0  4.07447  0
C  C112  1  0.99897338  0.95135534  0.05073461  1  0.551571  0  0.099248  0.167723  0  4.069624  0
C  C113  1  0.99897733  0.54864463  0.94926641  1  0.551848  0  0.09926  0.167734  0  4.069513  0
C  C114  1  0.50102246  0.95135474  0.44926724  1  0.551867  0  0.099229  0.16763  0  4.069624  0
C  C115  1  0.50102424  0.54864565  0.55073432  1  0.551731  0  0.099272  0.167695  0  4.069752  0
C  C116  1  0.00102199  0.04864400  0.94926667  1  0.551874  0  0.099244  0.167669  0  4.069617  0
C  C117  1  0.00102163  0.45135646  0.05073532  1  0.551716  0  0.099226  0.167723  0  4.069673  0
C  C118  1  0.49897794  0.04864402  0.55073449  1  0.551916  0  0.099284  0.167734  0  4.06958  0
C  C119  1  0.49897759  0.45135543  0.44926650  1  0.551861  0  0.099294  0.167766  0  4.069428  0
O  O120  1  0.65445941  0.34602139  0.21968468  1  -1.160539  0  -0.281079  -0.573843  0  2.292143  0
O  O121  1  0.65445500  0.15397851  0.78031459  1  -1.160452  0  -0.281065  -0.573868  0  2.29201  0
O  O122  1  0.84554439  0.34602459  0.28031569  1  -1.160431  0  -0.281042  -0.5739  0  2.291949  0
O  O123  1  0.84554132  0.15397690  0.71968419  1  -1.160456  0  -0.281062  -0.57385  0  2.291981  0
O  O124  1  0.34554315  0.65397969  0.78031476  1  -1.160494  0  -0.281101  -0.573924  0  2.292067  0
O  O125  1  0.34554396  0.84602257  0.21968484  1  -1.160517  0  -0.281041  -0.573918  0  2.29212  0
O  O126  1  0.15446320  0.65397067  0.71968329  1  -1.160454  0  -0.281071  -0.573813  0  2.29197  0
O  O127  1  0.15445692  0.84602244  0.28031663  1  -1.160395  0  -0.28106  -0.573869  0  2.291999  0
O  O128  1  0.62695797  0.31751406  0.11903141  1  -1.168858  0  -0.285098  -0.584649  0  2.277565  0
O  O129  1  0.62695444  0.18248762  0.88096968  1  -1.168901  0  -0.285059  -0.584611  0  2.277293  0
O  O130  1  0.87305018  0.31751071  0.38097046  1  -1.168903  0  -0.285187  -0.584809  0  2.277252  0
O  O131  1  0.87304689  0.18248668  0.61902852  1  -1.168908  0  -0.285058  -0.584577  0  2.277436  0
O  O132  1  0.37304315  0.68248644  0.88096894  1  -1.169393  0  -0.285113  -0.584748  0  2.277471  0
O  O133  1  0.37304380  0.81751580  0.11903022  1  -1.169364  0  -0.285065  -0.584602  0  2.277505  0
O  O134  1  0.12695454  0.68248455  0.61902852  1  -1.168873  0  -0.285074  -0.58464  0  2.277504  0
O  O135  1  0.12695279  0.81751091  0.38097138  1  -1.168906  0  -0.285049  -0.584644  0  2.277421  0
O  O136  1  0.34663929  0.66063897  0.21443443  1  -1.156551  0  -0.275707  -0.563069  0  2.279887  0
O  O137  1  0.34663610  0.83936446  0.78556379  1  -1.156562  0  -0.275742  -0.563151  0  2.279885  0
O  O138  1  0.15335751  0.66064113  0.28556463  1  -1.156547  0  -0.27577  -0.563119  0  2.279845  0
O  O139  1  0.15336210  0.83936363  0.71443574  1  -1.156491  0  -0.275693  -0.562989  0  2.279749  0
O  O140  1  0.65336183  0.33935979  0.78556409  1  -1.1566  0  -0.275726  -0.563091  0  2.279916  0
O  O141  1  0.65336645  0.16064070  0.21443381  1  -1.156523  0  -0.275728  -0.563094  0  2.27995  0
O  O142  1  0.84663930  0.33936228  0.71443664  1  -1.15653  0  -0.275735  -0.563076  0  2.279703  0
O  O143  1  0.84664118  0.16063629  0.28556232  1  -1.156589  0  -0.275737  -0.563094  0  2.279763  0
O  O144  1  0.31644474  0.64085678  0.11265535  1  -1.14529  0  -0.274095  -0.557835  0  2.293286  0
O  O145  1  0.31644243  0.85914610  0.88734240  1  -1.145315  0  -0.274148  -0.557912  0  2.2934  0
O  O146  1  0.18354561  0.64086053  0.38734656  1  -1.145389  0  -0.274114  -0.557806  0  2.293237  0
O  O147  1  0.18354783  0.85914013  0.61265338  1  -1.145374  0  -0.274131  -0.557844  0  2.293213  0
O  O148  1  0.68355997  0.35914256  0.88734271  1  -1.145271  0  -0.274096  -0.557816  0  2.29337  0
O  O149  1  0.68355437  0.14085965  0.11265337  1  -1.145373  0  -0.274102  -0.557843  0  2.293355  0
O  O150  1  0.81644760  0.35914231  0.61265471  1  -1.1454  0  -0.27413  -0.557916  0  2.293337  0
O  O151  1  0.81644681  0.14085513  0.38734422  1  -1.145383  0  -0.274093  -0.557815  0  2.293454  0
O  O152  1  0.86383083  0.17473517  0.04246646  1  -1.160158  0  -0.277981  -0.567379  0  2.281372  0
O  O153  1  0.86383084  0.32526630  0.95753619  1  -1.160312  0  -0.277947  -0.567269  0  2.281492  0
O  O154  1  0.63617247  0.17473206  0.45753328  1  -1.160423  0  -0.277972  -0.56736  0  2.281373  0
O  O155  1  0.63617246  0.32526902  0.54246690  1  -1.160096  0  -0.277956  -0.567346  0  2.28131  0
O  O156  1  0.13617101  0.82526941  0.95753344  1  -1.160126  0  -0.277957  -0.567305  0  2.28145  0
O  O157  1  0.13617243  0.67473303  0.04246601  1  -1.160433  0  -0.277961  -0.567375  0  2.2814  0
O  O158  1  0.36382649  0.82526786  0.54246846  1  -1.160271  0  -0.277994  -0.567409  0  2.281529  0
O  O159  1  0.36382651  0.67473148  0.45753300  1  -1.160419  0  -0.277919  -0.5673  0  2.281433  0
O  O160  1  0.82813520  0.14463355  0.94304363  1  -1.14984  0  -0.280992  -0.572352  0  2.268791  0
O  O161  1  0.82814001  0.35536505  0.05695899  1  -1.149874  0  -0.28103  -0.57231  0  2.268844  0
O  O162  1  0.67186330  0.14463031  0.55695795  1  -1.150112  0  -0.281022  -0.572349  0  2.268617  0
O  O163  1  0.67186306  0.35536842  0.44304180  1  -1.149893  0  -0.28099  -0.572325  0  2.268689  0
O  O164  1  0.17186161  0.85536579  0.05695718  1  -1.150136  0  -0.280976  -0.572304  0  2.268856  0
O  O165  1  0.17186542  0.64463196  0.94304229  1  -1.14986  0  -0.281002  -0.572312  0  2.268628  0
O  O166  1  0.32813638  0.85536728  0.44304425  1  -1.149868  0  -0.281007  -0.572395  0  2.268761  0
O  O167  1  0.32813662  0.64463150  0.55695810  1  -1.149865  0  -0.280982  -0.572312  0  2.268714  0
O  O168  1  0.83053125  0.25525599  0.16695022  1  -1.196715  0  -0.516791  -0.875593  0  2.020512  0
O  O169  1  0.83053402  0.24474784  0.83305010  1  -1.196726  0  -0.516731  -0.875501  0  2.020424  0
O  O170  1  0.66946044  0.25525023  0.33304778  1  -1.196944  0  -0.516776  -0.875502  0  2.020407  0
O  O171  1  0.66946003  0.24474558  0.66695104  1  -1.196942  0  -0.516829  -0.8756  0  2.020435  0
O  O172  1  0.16946843  0.74474917  0.83304967  1  -1.196727  0  -0.516807  -0.875608  0  2.020379  0
O  O173  1  0.16946494  0.75525382  0.16695072  1  -1.196698  0  -0.516742  -0.875525  0  2.020428  0
O  O174  1  0.33053996  0.74474736  0.66695028  1  -1.19692  0  -0.516793  -0.875592  0  2.020349  0
O  O175  1  0.33054109  0.75525376  0.33304978  1  -1.196914  0  -0.516801  -0.875551  0  2.020426  0
O  O176  1  0.67547650  0.25000722  0.99999958  1  -1.229874  0  -0.5271  -0.909937  0  2.082033  0
O  O177  1  0.82452905  0.24999143  0.49999970  1  -1.22975  0  -0.527185  -0.909975  0  2.082115  0
O  O178  1  0.32452769  0.75000842  0.99999881  1  -1.229745  0  -0.527063  -0.909846  0  2.082117  0
O  O179  1  0.17546919  0.74999218  0.49999974  1  -1.229773  0  -0.527196  -0.910001  0  2.082069  0
F  F180  1  0.47199531  0.38583576  0.26005154  1  -0.618201  0  -0.085913  -0.103867  0  1.382522  0
F  F181  1  0.47199952  0.11416255  0.73994714  1  -0.618185  0  -0.085931  -0.103879  0  1.382494  0
F  F182  1  0.02799896  0.38583776  0.23994828  1  -0.618135  0  -0.085899  -0.10384  0  1.382552  0
F  F183  1  0.02800105  0.11416441  0.76005052  1  -0.618165  0  -0.085892  -0.103809  0  1.38251  0
F  F184  1  0.52799934  0.61416008  0.73994514  1  -0.618208  0  -0.085913  -0.103876  0  1.382548  0
F  F185  1  0.52800736  0.88584028  0.26005414  1  -0.618168  0  -0.085936  -0.103897  0  1.382477  0
F  F186  1  0.97199784  0.61416041  0.76005162  1  -0.618105  0  -0.08588  -0.103841  0  1.382507  0
F  F187  1  0.97199504  0.88583784  0.23994892  1  -0.618125  0  -0.085937  -0.103867  0  1.382488  0
F  F188  1  0.35608149  0.50940256  0.25943318  1  -0.608096  0  -0.079149  -0.096705  0  1.40539  0
F  F189  1  0.35608378  0.99059795  0.74056689  1  -0.607728  0  -0.079107  -0.096654  0  1.405501  0
F  F190  1  0.14391118  0.50940796  0.24056425  1  -0.60774  0  -0.079103  -0.096702  0  1.405439  0
F  F191  1  0.14391854  0.99059739  0.75943244  1  -0.608046  0  -0.079171  -0.096742  0  1.405416  0
F  F192  1  0.64391459  0.49059328  0.74056534  1  -0.608095  0  -0.079078  -0.096648  0  1.405347  0
F  F193  1  0.64392165  0.00940663  0.25943209  1  -0.608109  0  -0.079136  -0.096666  0  1.405366  0
F  F194  1  0.85608634  0.49059138  0.75943289  1  -0.60768  0  -0.079072  -0.096635  0  1.40539  0
F  F195  1  0.85608330  0.00940428  0.24056791  1  -0.60771  0  -0.07915  -0.096708  0  1.405513  0
F  F196  1  0.49288548  0.59181402  0.06888492  1  -0.609643  0  -0.086014  -0.104989  0  1.371046  0
F  F197  1  0.49288175  0.90818638  0.93111388  1  -0.609647  0  -0.08596  -0.104931  0  1.371152  0
F  F198  1  0.00711428  0.59181528  0.43111399  1  -0.609673  0  -0.08601  -0.104988  0  1.371095  0
F  F199  1  0.00710989  0.90818319  0.56888536  1  -0.609687  0  -0.086026  -0.104997  0  1.370942  0
F  F200  1  0.50711420  0.40818649  0.93111360  1  -0.609757  0  -0.085971  -0.104929  0  1.371121  0
F  F201  1  0.50711577  0.09181645  0.06888648  1  -0.60967  0  -0.086022  -0.10502  0  1.370994  0
F  F202  1  0.99288684  0.40818697  0.56888591  1  -0.609642  0  -0.085995  -0.10495  0  1.371126  0
F  F203  1  0.99288476  0.09181498  0.43111270  1  -0.609639  0  -0.085975  -0.104928  0  1.371107  0
F  F204  1  0.60950691  0.46866195  0.06999127  1  -0.612169  0  -0.082555  -0.098301  0  1.37325  0
F  F205  1  0.60950726  0.03133392  0.93000934  1  -0.612192  0  -0.082581  -0.098341  0  1.37327  0
F  F206  1  0.89049313  0.46866522  0.43001085  1  -0.612242  0  -0.082598  -0.098325  0  1.37322  0
F  F207  1  0.89048491  0.03133856  0.56999319  1  -0.612271  0  -0.082649  -0.098388  0  1.373147  0
F  F208  1  0.39049492  0.53133099  0.93000771  1  -0.612096  0  -0.082518  -0.098247  0  1.373478  0
F  F209  1  0.39049386  0.96866542  0.06999193  1  -0.61213  0  -0.082536  -0.098262  0  1.373331  0
F  F210  1  0.10951158  0.53133703  0.56999180  1  -0.612231  0  -0.082601  -0.098371  0  1.373176  0
F  F211  1  0.10951045  0.96866369  0.43000854  1  -0.612243  0  -0.082603  -0.098341  0  1.373222  0
F  F212  1  0.87506005  0.02603782  0.09479852  1  -0.611289  0  -0.079106  -0.094045  0  1.390854  0
F  F213  1  0.87506338  0.47396307  0.90520184  1  -0.611391  0  -0.07905  -0.093995  0  1.390898  0
F  F214  1  0.62493769  0.02603625  0.40520187  1  -0.611377  0  -0.079063  -0.094016  0  1.390813  0
F  F215  1  0.62494117  0.47396310  0.59479830  1  -0.61129  0  -0.079116  -0.094069  0  1.390828  0
F  F216  1  0.12493676  0.97396036  0.90520230  1  -0.611189  0  -0.079025  -0.093968  0  1.390867  0
F  F217  1  0.12493990  0.52603802  0.09479806  1  -0.61126  0  -0.07909  -0.094038  0  1.390861  0
F  F218  1  0.37506415  0.97396309  0.59480032  1  -0.611398  0  -0.079108  -0.094058  0  1.390846  0
F  F219  1  0.37506067  0.52603799  0.40520252  1  -0.611227  0  -0.079064  -0.094016  0  1.390928  0
F  F220  1  0.99344629  0.90404757  0.10021886  1  -0.615424  0  -0.086319  -0.106979  0  1.382469  0
F  F221  1  0.99344793  0.59595124  0.89978124  1  -0.61569  0  -0.086319  -0.10697  0  1.382443  0
F  F222  1  0.50655105  0.90404789  0.39978366  1  -0.61567  0  -0.086271  -0.106917  0  1.382513  0
F  F223  1  0.50655143  0.59595249  0.60021836  1  -0.615578  0  -0.086322  -0.106971  0  1.382481  0
F  F224  1  0.00655339  0.09595060  0.89978196  1  -0.615682  0  -0.086315  -0.106953  0  1.382429  0
F  F225  1  0.00654815  0.40404927  0.10022004  1  -0.615598  0  -0.086318  -0.106981  0  1.38245  0
F  F226  1  0.49344576  0.09594970  0.60021945  1  -0.615719  0  -0.086338  -0.106998  0  1.382452  0
F  F227  1  0.49344466  0.40404976  0.39978153  1  -0.6157  0  -0.086307  -0.106962  0  1.382494  0
