# generated using pymatgen
data_CsH10C5ClO5
_symmetry_space_group_name_H-M   'P 1'
_cell_length_a   5.36424469
_cell_length_b   7.60825830
_cell_length_c   11.82267684
_cell_angle_alpha   96.07710982
_cell_angle_beta   102.78073388
_cell_angle_gamma   91.60762683
_symmetry_Int_Tables_number   1
_chemical_formula_structural   CsH10C5ClO5
_chemical_formula_sum   'Cs2 H20 C10 Cl2 O10'
_cell_volume   467.25479727
_cell_formula_units_Z   2
loop_
 _symmetry_equiv_pos_site_id
 _symmetry_equiv_pos_as_xyz
  1  'x, y, z'
loop_
 _atom_site_type_symbol
 _atom_site_label
 _atom_site_symmetry_multiplicity
 _atom_site_fract_x
 _atom_site_fract_y
 _atom_site_fract_z
 _atom_site_occupancy
 _atom_site_hle17_bader_spin_density
 _atom_site_hle17_ddec_charge
 _atom_site_hle17_ddec_spin_density
 _atom_site_hle17_ddec_sum_bond_order
 _atom_site_hle17_magmom
 _atom_site_hse06_10hf_bader_spin_density
 _atom_site_hse06_10hf_ddec_charge
 _atom_site_hse06_10hf_ddec_spin_density
 _atom_site_hse06_10hf_ddec_sum_bond_order
 _atom_site_hse06_10hf_magmom
 _atom_site_hse06_bader_spin_density
 _atom_site_hse06_ddec_charge
 _atom_site_hse06_ddec_spin_density
 _atom_site_hse06_ddec_sum_bond_order
 _atom_site_hse06_magmom
 _atom_site_pbe_bader_spin_density
 _atom_site_pbe_cm5_charge
 _atom_site_pbe_ddec_charge
 _atom_site_pbe_ddec_spin_density
 _atom_site_pbe_ddec_sum_bond_order
 _atom_site_pbe_magmom
Cs  Cs0  1  0.69556673  0.18986018  0.03697393  1  0  0.953968  0  0.527171  0  0  0.883616  0  0.761852  0  0  0.901368  0  0.736823  0  0  0.75575  0.870635  0  0.779404  0
Cs  Cs1  1  0.71035870  0.49739045  0.52926544  1  0  0.928878  0  0.597631  0  0  0.860502  0  0.854742  0  0  0.876025  0  0.830648  0  0  0.736554  0.849057  0  0.871758  0
H  H2  1  0.03312631  0.19303007  0.43310843  1  0  0.353671  0  0.931552  0  0  0.324764  0  1.017214  0  0  0.334625  0  1.006156  0  0  0.269617  0.317811  0  1.024961  0
H  H3  1  0.04879690  0.32356910  0.85559833  1  0  0.347286  0  0.945387  0  0  0.322183  0  1.028109  0  0  0.331827  0  1.016541  0  0  0.268833  0.31534  0  1.03633  0
H  H4  1  0.35970618  0.23255045  0.30812435  1  0  0.351557  0  0.950778  0  0  0.325624  0  1.03181  0  0  0.33568  0  1.020356  0  0  0.263867  0.31853  0  1.039844  0
H  H5  1  0.79795740  0.54277967  0.23931115  1  0  0.360967  0  0.917641  0  0  0.337057  0  0.994958  0  0  0.346776  0  0.983296  0  0  0.274996  0.330152  0  1.003266  0
H  H6  1  0.79401940  0.91707105  0.41435768  1  0  0.374482  0  0.913261  0  0  0.349945  0  0.986888  0  0  0.3601  0  0.975031  0  0  0.296088  0.342733  0  0.995329  0
H  H7  1  0.59242113  0.68789709  0.95893163  1  0  0.358935  0  0.918246  0  0  0.33667  0  0.992991  0  0  0.345696  0  0.98266  0  0  0.276036  0.330284  0  1.00029  0
H  H8  1  0.39569040  0.42520989  0.72775324  1  0  0.353004  0  0.926594  0  0  0.329192  0  1.004713  0  0  0.338979  0  0.992943  0  0  0.272257  0.322258  0  1.013025  0
H  H9  1  0.24315725  0.58363846  0.01112052  1  0  0.043151  0  0.915811  0  0  0.053936  0  0.975096  0  0  0.054798  0  0.974409  0  0  0.106077  0.05319  0  0.975802  0
H  H10  1  0.83920004  0.76387363  0.80383017  1  0  0.356621  0  0.926994  0  0  0.33136  0  1.005833  0  0  0.341064  0  0.99486  0  0  0.271973  0.324487  0  1.013561  0
H  H11  1  0.74077337  0.90916253  0.22122723  1  0  0.039391  0  0.925396  0  0  0.049513  0  0.992306  0  0  0.050573  0  0.990544  0  0  0.10409  0.048611  0  0.99381  0
H  H12  1  0.47646964  0.15079107  0.72594815  1  0  0.041938  0  0.927316  0  0  0.050994  0  0.996948  0  0  0.051493  0  0.996378  0  0  0.107629  0.050522  0  0.997515  0
H  H13  1  0.23263017  0.93977918  0.29838650  1  0  0.014929  0  0.905153  0  0  0.025091  0  0.96973  0  0  0.025772  0  0.967289  0  0  0.106672  0.024385  0  0.971774  0
H  H14  1  0.35266844  0.60748580  0.22172932  1  0  0.046207  0  0.930104  0  0  0.056038  0  0.994823  0  0  0.057006  0  0.994131  0  0  0.100368  0.055238  0  0.995461  0
H  H15  1  0.89591148  0.16259236  0.69435041  1  0  0.04912  0  0.918127  0  0  0.057802  0  0.984506  0  0  0.058885  0  0.983107  0  0  0.109181  0.056886  0  0.985743  0
H  H16  1  0.23740596  0.88298494  0.80665414  1  0  0.025455  0  0.913795  0  0  0.034262  0  0.975933  0  0  0.035373  0  0.973603  0  0  0.112692  0.033253  0  0.97787  0
H  H17  1  0.40512396  0.09208980  0.51467420  1  0  0.046669  0  0.918704  0  0  0.056516  0  0.983954  0  0  0.057807  0  0.982228  0  0  0.110654  0.055409  0  0.985405  0
H  H18  1  0.03404731  0.86987912  0.98445340  1  0  0.072503  0  0.964871  0  0  0.082933  0  1.033757  0  0  0.084113  0  1.032779  0  0  0.106237  0.081927  0  1.034666  0
H  H19  1  0.99492184  0.78033821  0.11380991  1  0  0.067001  0  0.961364  0  0  0.071391  0  1.042084  0  0  0.073496  0  1.039448  0  0  0.101047  0.069717  0  1.044178  0
H  H20  1  0.21006464  0.78394099  0.49589266  1  0  0.0752  0  0.934465  0  0  0.082984  0  1.007974  0  0  0.08434  0  1.006498  0  0  0.111475  0.081865  0  1.009218  0
H  H21  1  0.43191249  0.84545356  0.63375141  1  0  0.062031  0  0.947489  0  0  0.07034  0  1.021689  0  0  0.072271  0  1.019569  0  0  0.103227  0.068818  0  1.023317  0
C  C22  1  0.33848873  0.70929061  0.05797644  1  0  0.174034  0  3.635723  0  0  0.149235  0  3.892058  0  0  0.15397  0  3.90176  0  0  -0.012208  0.145965  0  3.885427  0
C  C23  1  0.58615349  0.84953365  0.25527953  1  0  0.110269  0  3.636879  0  0  0.084562  0  3.886547  0  0  0.088837  0  3.894706  0  0  -0.018252  0.081591  0  3.881066  0
C  C24  1  0.28542535  0.17728230  0.67456134  1  0  0.125168  0  3.650788  0  0  0.095483  0  3.908675  0  0  0.100402  0  3.918267  0  0  -0.020208  0.092107  0  3.902106  0
C  C25  1  0.37706663  0.98411509  0.25152912  1  0  0.359711  0  3.671712  0  0  0.315912  0  3.947138  0  0  0.329811  0  3.948575  0  0  0.068462  0.306257  0  3.946207  0
C  C26  1  0.48641986  0.67588839  0.17951303  1  0  0.141813  0  3.624973  0  0  0.113738  0  3.878318  0  0  0.118316  0  3.887826  0  0  -0.012628  0.110611  0  3.87184  0
C  C27  1  0.08518425  0.12578234  0.74132677  1  0  0.107886  0  3.620892  0  0  0.083097  0  3.870027  0  0  0.087249  0  3.878372  0  0  -0.016124  0.080179  0  3.864439  0
C  C28  1  0.06525256  0.92601211  0.74741486  1  0  0.374127  0  3.630144  0  0  0.329396  0  3.903232  0  0  0.342869  0  3.904696  0  0  0.079831  0.320062  0  3.902316  0
C  C29  1  0.24579716  0.06461902  0.55649114  1  0  0.166523  0  3.616856  0  0  0.138296  0  3.873381  0  0  0.143223  0  3.882959  0  0  -0.009318  0.134952  0  3.866851  0
C  C30  1  0.13439309  0.83852936  0.07050732  1  0  0.003636  0  3.662496  0  0  -0.055551  0  3.931785  0  0  -0.050373  0  3.937498  0  0  -0.09784  -0.058936  0  3.927864  0
C  C31  1  0.24475939  0.87132660  0.57850503  1  0  0.020468  0  3.637741  0  0  -0.039958  0  3.90838  0  0  -0.034391  0  3.913439  0  0  -0.079245  -0.043617  0  3.904882  0
Cl  Cl32  1  0.10253095  0.40631168  0.34336036  1  0  -0.694982  0  0.832424  0  0  -0.637159  0  1.055498  0  0  -0.652236  0  1.035289  0  0  -0.349578  -0.626095  0  1.069514  0
Cl  Cl33  1  0.75992404  0.51020152  0.84347401  1  0  -0.658951  0  0.844285  0  0  -0.595762  0  1.059809  0  0  -0.611379  0  1.038883  0  0  -0.290324  -0.584301  0  1.074335  0
O  O34  1  0.00623539  0.09640689  0.48046745  1  0  -0.568467  0  2.106565  0  0  -0.513737  0  2.332096  0  0  -0.530142  0  2.320119  0  0  -0.405529  -0.502127  0  2.340241  0
O  O35  1  0.24752122  0.00436343  0.13347495  1  0  -0.413096  0  2.251352  0  0  -0.34966  0  2.501397  0  0  -0.365822  0  2.50068  0  0  -0.313345  -0.338228  0  2.501486  0
O  O36  1  0.14629694  0.21500465  0.85771376  1  0  -0.600044  0  2.075491  0  0  -0.558252  0  2.302456  0  0  -0.573798  0  2.291815  0  0  -0.464517  -0.547198  0  2.309699  0
O  O37  1  0.49603518  0.14796260  0.30120481  1  0  -0.598085  0  2.122913  0  0  -0.559011  0  2.356368  0  0  -0.576379  0  2.345173  0  0  -0.429294  -0.546569  0  2.363805  0
O  O38  1  0.03974011  0.83010359  0.63310401  1  0  -0.387621  0  2.225093  0  0  -0.321421  0  2.474046  0  0  -0.337039  0  2.472702  0  0  -0.312755  -0.310422  0  2.474647  0
O  O39  1  0.68899768  0.56467268  0.16368842  1  0  -0.605961  0  2.108655  0  0  -0.558822  0  2.337003  0  0  -0.574576  0  2.325506  0  0  -0.476685  -0.547618  0  2.34484  0
O  O40  1  0.68353088  0.81259916  0.37222165  1  0  -0.598498  0  2.055173  0  0  -0.556835  0  2.290127  0  0  -0.572306  0  2.278481  0  0  -0.464126  -0.545735  0  2.297928  0
O  O41  1  0.49945390  0.78369915  0.99138588  1  0  -0.590079  0  2.066725  0  0  -0.546849  0  2.296753  0  0  -0.562632  0  2.286495  0  0  -0.457495  -0.535621  0  2.303698  0
O  O42  1  0.27618987  0.36129029  0.65888127  1  0  -0.611599  0  2.101151  0  0  -0.569703  0  2.332948  0  0  -0.585227  0  2.322104  0  0  -0.48253  -0.558691  0  2.340334  0
O  O43  1  0.84222747  0.88797809  0.78469892  1  0  -0.579218  0  2.099845  0  0  -0.539712  0  2.332914  0  0  -0.556442  0  2.320467  0  0  -0.401615  -0.527675  0  2.341201  0
