# generated using pymatgen
data_NaH6PbC6NO6
_symmetry_space_group_name_H-M   'P 1'
_cell_length_a   9.83185020
_cell_length_b   9.83191803
_cell_length_c   9.83207095
_cell_angle_alpha   89.99952175
_cell_angle_beta   90.00133547
_cell_angle_gamma   89.99847432
_symmetry_Int_Tables_number   1
_chemical_formula_structural   NaH6PbC6NO6
_chemical_formula_sum   'Na4 H24 Pb4 C24 N4 O24'
_cell_volume   950.42643173
_cell_formula_units_Z   4
loop_
 _symmetry_equiv_pos_site_id
 _symmetry_equiv_pos_as_xyz
  1  'x, y, z'
loop_
 _atom_site_type_symbol
 _atom_site_label
 _atom_site_symmetry_multiplicity
 _atom_site_fract_x
 _atom_site_fract_y
 _atom_site_fract_z
 _atom_site_occupancy
 _atom_site_pbe_bader_spin_density
 _atom_site_pbe_cm5_charge
 _atom_site_pbe_ddec_charge
 _atom_site_pbe_ddec_spin_density
 _atom_site_pbe_ddec_sum_bond_order
 _atom_site_pbe_magmom
Na  Na0  1  0.67937558  0.67938658  0.67938077  1  0  0.688522  0.847229  0  0.595142  0
Na  Na1  1  0.82061142  0.32061549  0.17938041  1  0  0.688493  0.847222  0  0.595169  0
Na  Na2  1  0.32061926  0.17938558  0.82061749  1  0  0.688503  0.847215  0  0.595181  0
Na  Na3  1  0.17938936  0.82062150  0.32061983  1  0  0.688486  0.847227  0  0.595143  0
H  H4  1  0.82595687  0.83242260  0.02785278  1  0  0.120543  0.120661  0  0.971898  0
H  H5  1  0.67403372  0.16756854  0.52785221  1  0  0.120505  0.1206  0  0.971819  0
H  H6  1  0.17403953  0.33241813  0.47215041  1  0  0.120546  0.120635  0  0.971809  0
H  H7  1  0.32596957  0.66756430  0.97214717  1  0  0.120487  0.120621  0  0.971877  0
H  H8  1  0.02785613  0.82596419  0.83243493  1  0  0.120499  0.120593  0  0.971855  0
H  H9  1  0.52785598  0.67404081  0.16757231  1  0  0.120545  0.120682  0  0.971802  0
H  H10  1  0.47214158  0.17404382  0.33242915  1  0  0.120568  0.120716  0  0.971775  0
H  H11  1  0.97214905  0.32595526  0.66757330  1  0  0.120545  0.120658  0  0.97181  0
H  H12  1  0.83242837  0.02785694  0.82596172  1  0  0.120544  0.120694  0  0.97178  0
H  H13  1  0.16757356  0.52785025  0.67402865  1  0  0.120507  0.120615  0  0.971878  0
H  H14  1  0.33243775  0.47215094  0.17402323  1  0  0.120487  0.120587  0  0.971726  0
H  H15  1  0.66757019  0.97214798  0.32595845  1  0  0.120527  0.120661  0  0.971809  0
H  H16  1  0.65385493  0.82445911  0.97465846  1  0  0.113089  0.120232  0  0.993275  0
H  H17  1  0.84614200  0.17555168  0.47466091  1  0  0.113088  0.120161  0  0.993381  0
H  H18  1  0.34614621  0.32445786  0.52534165  1  0  0.113083  0.120161  0  0.99325  0
H  H19  1  0.15385858  0.67555067  0.02533138  1  0  0.11309  0.120178  0  0.993424  0
H  H20  1  0.97466384  0.65385600  0.82445651  1  0  0.113062  0.12012  0  0.99341  0
H  H21  1  0.47466542  0.84614219  0.17554386  1  0  0.113089  0.120189  0  0.99337  0
H  H22  1  0.52533163  0.34613571  0.32445006  1  0  0.113103  0.120194  0  0.993434  0
H  H23  1  0.02533778  0.15386204  0.67554095  1  0  0.113057  0.120143  0  0.993354  0
H  H24  1  0.82444984  0.97466387  0.65385863  1  0  0.113075  0.120191  0  0.993409  0
H  H25  1  0.17554324  0.47466245  0.84615039  1  0  0.113089  0.120163  0  0.993351  0
H  H26  1  0.32444360  0.52533934  0.34614230  1  0  0.113036  0.120056  0  0.993425  0
H  H27  1  0.67555182  0.02533537  0.15386040  1  0  0.113088  0.120168  0  0.993405  0
Pb  Pb28  1  0.65686840  0.34312526  0.84313684  1  0  0.625448  1.071866  0  1.942537  0
Pb  Pb29  1  0.84310309  0.65688969  0.34310876  1  0  0.625319  1.07176  0  1.942903  0
Pb  Pb30  1  0.34314649  0.84313743  0.65684887  1  0  0.625483  1.071819  0  1.942481  0
Pb  Pb31  1  0.15687255  0.15687712  0.15687860  1  0  0.62536  1.071806  0  1.942741  0
C  C32  1  0.72774736  0.78268581  0.04805206  1  0  -0.067874  -0.236791  0  3.891992  0
C  C33  1  0.77225489  0.21730820  0.54805947  1  0  -0.067883  -0.236608  0  3.892069  0
C  C34  1  0.27225647  0.28268399  0.45194137  1  0  -0.067928  -0.23669  0  3.892026  0
C  C35  1  0.22774708  0.71731081  0.95194662  1  0  -0.067839  -0.236764  0  3.892114  0
C  C36  1  0.04805244  0.72774423  0.78268716  1  0  -0.067828  -0.236654  0  3.892102  0
C  C37  1  0.54805491  0.77225312  0.21731954  1  0  -0.067856  -0.236755  0  3.892014  0
C  C38  1  0.45194512  0.27225707  0.28268110  1  0  -0.06797  -0.236864  0  3.892173  0
C  C39  1  0.95194823  0.22774661  0.71731681  1  0  -0.067869  -0.236654  0  3.891937  0
C  C40  1  0.78267945  0.04805448  0.72774574  1  0  -0.0679  -0.236866  0  3.892156  0
C  C41  1  0.21730668  0.54805073  0.77225464  1  0  -0.067803  -0.236634  0  3.89208  0
C  C42  1  0.28268556  0.45194049  0.27224924  1  0  -0.067838  -0.236567  0  3.891937  0
C  C43  1  0.71731275  0.95194109  0.22774786  1  0  -0.067907  -0.236791  0  3.892152  0
C  C44  1  0.74776359  0.63081703  0.01870814  1  0  0.214741  0.620811  0  4.199641  0
C  C45  1  0.75227663  0.36918231  0.51871789  1  0  0.214847  0.620752  0  4.199079  0
C  C46  1  0.25224022  0.13082363  0.48129672  1  0  0.214731  0.620691  0  4.199484  0
C  C47  1  0.24771417  0.86918923  0.98128286  1  0  0.214966  0.621084  0  4.198856  0
C  C48  1  0.01871310  0.74772508  0.63081435  1  0  0.214867  0.620879  0  4.199272  0
C  C49  1  0.51870947  0.75226796  0.36918250  1  0  0.214922  0.620918  0  4.199106  0
C  C50  1  0.48128906  0.25228054  0.13081525  1  0  0.214972  0.620967  0  4.199226  0
C  C51  1  0.98129111  0.24774778  0.86918436  1  0  0.214809  0.620843  0  4.199317  0
C  C52  1  0.63081446  0.01870812  0.74772055  1  0  0.21498  0.62111  0  4.199237  0
C  C53  1  0.36917958  0.51871372  0.75226176  1  0  0.214796  0.620698  0  4.199076  0
C  C54  1  0.13081525  0.48128885  0.25229936  1  0  0.214959  0.620953  0  4.199288  0
C  C55  1  0.86917821  0.98129338  0.24772699  1  0  0.214927  0.620927  0  4.199226  0
N  N56  1  0.68973342  0.81026733  0.18973173  1  0  -0.321531  -0.061268  0  3.554693  0
N  N57  1  0.81027721  0.18972652  0.68972398  1  0  -0.321578  -0.061471  0  3.554596  0
N  N58  1  0.31027171  0.31027177  0.31027266  1  0  -0.321452  -0.061287  0  3.554534  0
N  N59  1  0.18971226  0.68970896  0.81029047  1  0  -0.3216  -0.06128  0  3.554653  0
O  O60  1  0.74895714  0.59630433  0.89464787  1  0  -0.362884  -0.628224  0  2.249497  0
O  O61  1  0.75103691  0.40369798  0.39463807  1  0  -0.363042  -0.628364  0  2.249012  0
O  O62  1  0.25104499  0.09630189  0.60535922  1  0  -0.362955  -0.6282  0  2.249339  0
O  O63  1  0.24896878  0.90369886  0.10536554  1  0  -0.363099  -0.628476  0  2.248856  0
O  O64  1  0.89463835  0.74896459  0.59630182  1  0  -0.363019  -0.628334  0  2.249222  0
O  O65  1  0.39463864  0.75103370  0.40370278  1  0  -0.363048  -0.62833  0  2.249306  0
O  O66  1  0.60535993  0.25103513  0.09630413  1  0  -0.363027  -0.628308  0  2.2493  0
O  O67  1  0.10536582  0.24895642  0.90369790  1  0  -0.36301  -0.62829  0  2.24923  0
O  O68  1  0.59630574  0.89463634  0.74897157  1  0  -0.363062  -0.628376  0  2.249278  0
O  O69  1  0.40369761  0.39463778  0.75103812  1  0  -0.363064  -0.62831  0  2.249207  0
O  O70  1  0.09630939  0.60535870  0.25102811  1  0  -0.362998  -0.628369  0  2.249302  0
O  O71  1  0.90369712  0.10536515  0.24896171  1  0  -0.363051  -0.62836  0  2.249277  0
O  O72  1  0.76331733  0.55000206  0.11869777  1  0  -0.348346  -0.61588  0  2.24692  0
O  O73  1  0.73668148  0.44999950  0.61868918  1  0  -0.348349  -0.615818  0  2.24671  0
O  O74  1  0.23668456  0.05000178  0.38130676  1  0  -0.3483  -0.615829  0  2.246732  0
O  O75  1  0.26332548  0.95000175  0.88131394  1  0  -0.348415  -0.615973  0  2.246808  0
O  O76  1  0.11868703  0.76332328  0.54999728  1  0  -0.348382  -0.615918  0  2.246787  0
O  O77  1  0.61869282  0.73667320  0.44999784  1  0  -0.348378  -0.615822  0  2.246615  0
O  O78  1  0.38130613  0.23667386  0.05000004  1  0  -0.348442  -0.615935  0  2.246727  0
O  O79  1  0.88130761  0.26331847  0.94999825  1  0  -0.348303  -0.615842  0  2.246723  0
O  O80  1  0.55000858  0.11869064  0.76332628  1  0  -0.348398  -0.615951  0  2.246806  0
O  O81  1  0.45000720  0.61868710  0.73668368  1  0  -0.348335  -0.615781  0  2.246601  0
O  O82  1  0.05000658  0.38130848  0.23666836  1  0  -0.348459  -0.615959  0  2.246749  0
O  O83  1  0.94999360  0.88130463  0.26332323  1  0  -0.348358  -0.615863  0  2.24665  0
