# generated using pymatgen
data_CdH8C14(S2N)2
_symmetry_space_group_name_H-M   'P 1'
_cell_length_a   7.13355557
_cell_length_b   10.25769076
_cell_length_c   22.52297718
_cell_angle_alpha   84.50422384
_cell_angle_beta   80.86107872
_cell_angle_gamma   69.69397530
_symmetry_Int_Tables_number   1
_chemical_formula_structural   CdH8C14(S2N)2
_chemical_formula_sum   'Cd4 H32 C56 S16 N8'
_cell_volume   1524.57510399
_cell_formula_units_Z   4
loop_
 _symmetry_equiv_pos_site_id
 _symmetry_equiv_pos_as_xyz
  1  'x, y, z'
loop_
 _atom_site_type_symbol
 _atom_site_label
 _atom_site_symmetry_multiplicity
 _atom_site_fract_x
 _atom_site_fract_y
 _atom_site_fract_z
 _atom_site_occupancy
 _atom_site_pbe_bader_spin_density
 _atom_site_pbe_cm5_charge
 _atom_site_pbe_ddec_charge
 _atom_site_pbe_ddec_spin_density
 _atom_site_pbe_ddec_sum_bond_order
 _atom_site_pbe_magmom
Cd  Cd0  1  0.74704551  0.49263059  0.03606348  1  0  0.613307  0.625668  0  2.461141  0
Cd  Cd1  1  0.27558780  0.00724853  0.46380262  1  0  0.613364  0.625874  0  2.46061  0
Cd  Cd2  1  0.25295341  0.50736717  0.96393434  1  0  0.613291  0.625629  0  2.461089  0
Cd  Cd3  1  0.72439691  0.99275449  0.53619961  1  0  0.613366  0.62582  0  2.460586  0
H  H4  1  0.31312400  0.84653340  0.92771449  1  0  0.091034  0.115086  0  1.029829  0
H  H5  1  0.08803979  0.65316944  0.57263761  1  0  0.091497  0.115643  0  1.02771  0
H  H6  1  0.68687324  0.15346224  0.07228183  1  0  0.091068  0.11511  0  1.029776  0
H  H7  1  0.91196726  0.34683566  0.42736395  1  0  0.091451  0.115575  0  1.027682  0
H  H8  1  0.44897939  0.87221416  0.82064150  1  0  0.094932  0.093942  0  1.041578  0
H  H9  1  0.14238918  0.62716593  0.67968035  1  0  0.094873  0.093906  0  1.041775  0
H  H10  1  0.55100964  0.12778355  0.17935347  1  0  0.094915  0.094  0  1.041678  0
H  H11  1  0.85761452  0.37283501  0.32032100  1  0  0.094877  0.093892  0  1.041746  0
H  H12  1  0.50068155  0.09187861  0.77927204  1  0  0.096902  0.09971  0  1.007919  0
H  H13  1  0.37229539  0.40751160  0.72089613  1  0  0.097152  0.100224  0  1.007428  0
H  H14  1  0.49932338  0.90811597  0.22072282  1  0  0.096903  0.099787  0  1.007975  0
H  H15  1  0.62769283  0.59248520  0.27910720  1  0  0.097133  0.100196  0  1.007494  0
H  H16  1  0.40948643  0.29408629  0.84475931  1  0  0.098447  0.112946  0  1.021656  0
H  H17  1  0.54884724  0.20558429  0.65526090  1  0  0.098654  0.113134  0  1.021218  0
H  H18  1  0.59052997  0.70590417  0.15523754  1  0  0.098389  0.112881  0  1.021736  0
H  H19  1  0.45113400  0.79441663  0.34474021  1  0  0.098651  0.11316  0  1.021102  0
H  H20  1  0.92949749  0.44390928  0.70951149  1  0  0.093953  0.098352  0  1.055106  0
H  H21  1  0.08482461  0.05539692  0.79032184  1  0  0.093624  0.097937  0  1.056047  0
H  H22  1  0.07049755  0.55609370  0.29048755  1  0  0.093943  0.098328  0  1.055056  0
H  H23  1  0.91515423  0.94461439  0.20967778  1  0  0.093613  0.09792  0  1.05607  0
H  H24  1  0.66524616  0.62588743  0.65839697  1  0  0.086784  0.086888  0  1.050761  0
H  H25  1  0.95018524  0.87389699  0.84160249  1  0  0.087066  0.087082  0  1.051026  0
H  H26  1  0.33474984  0.37411453  0.34160305  1  0  0.086795  0.086924  0  1.050708  0
H  H27  1  0.04983671  0.12609871  0.15839607  1  0  0.087042  0.087044  0  1.050923  0
H  H28  1  0.33368114  0.74971393  0.71446979  1  0  0.095677  0.097153  0  1.03018  0
H  H29  1  0.79762943  0.75031751  0.78569873  1  0  0.095697  0.097104  0  1.02997  0
H  H30  1  0.66632281  0.25029847  0.28553256  1  0  0.095671  0.097217  0  1.030163  0
H  H31  1  0.20239947  0.24966680  0.21430437  1  0  0.09568  0.097053  0  1.029874  0
H  H32  1  0.24797589  0.68635578  0.82290731  1  0  0.095605  0.105757  0  1.052382  0
H  H33  1  0.75712747  0.81363253  0.67726209  1  0  0.095688  0.105578  0  1.052833  0
H  H34  1  0.75202818  0.31365455  0.17709597  1  0  0.095634  0.105774  0  1.052498  0
H  H35  1  0.24288553  0.18635490  0.32274111  1  0  0.09565  0.105582  0  1.052845  0
C  C36  1  0.18030017  0.24416207  0.01856509  1  0  0.103938  0.167084  0  4.144675  0
C  C37  1  0.44322272  0.25586343  0.48152072  1  0  0.104184  0.167272  0  4.145083  0
C  C38  1  0.81970015  0.75583461  0.98143047  1  0  0.104074  0.167335  0  4.144498  0
C  C39  1  0.55675744  0.74414063  0.51848128  1  0  0.104303  0.167354  0  4.14498  0
C  C40  1  0.28530725  0.05622009  0.94673435  1  0  -0.015024  -0.030326  0  4.021902  0
C  C41  1  0.28903543  0.44367496  0.55344162  1  0  -0.014848  -0.03109  0  4.023753  0
C  C42  1  0.71470156  0.94377767  0.05326353  1  0  -0.015136  -0.030618  0  4.022137  0
C  C43  1  0.71095602  0.55632805  0.44655956  1  0  -0.014894  -0.0312  0  4.023782  0
C  C44  1  0.33374483  0.94373928  0.90992900  1  0  -0.099821  -0.123451  0  4.005487  0
C  C45  1  0.18822131  0.55599338  0.59033411  1  0  -0.099585  -0.122468  0  4.004098  0
C  C46  1  0.66626158  0.05625328  0.09006967  1  0  -0.099839  -0.123375  0  4.005616  0
C  C47  1  0.81177530  0.44401381  0.40966830  1  0  -0.099499  -0.122269  0  4.003935  0
C  C48  1  0.41046647  0.95894995  0.84984587  1  0  -0.098244  -0.082267  0  4.010427  0
C  C49  1  0.22001090  0.54059801  0.65040471  1  0  -0.098262  -0.082556  0  4.011061  0
C  C50  1  0.58953679  0.04104262  0.15015309  1  0  -0.098236  -0.082318  0  4.010484  0
C  C51  1  0.77998792  0.45940190  0.34959779  1  0  -0.098277  -0.082576  0  4.010895  0
C  C52  1  0.43875049  0.08380728  0.82639796  1  0  -0.09911  -0.085078  0  4.039524  0
C  C53  1  0.34961442  0.41571982  0.67376546  1  0  -0.099647  -0.086371  0  4.039511  0
C  C54  1  0.56125154  0.91618318  0.17359906  1  0  -0.099128  -0.085274  0  4.039604  0
C  C55  1  0.65037278  0.58427906  0.32623783  1  0  -0.099535  -0.086269  0  4.03939  0
C  C56  1  0.38986073  0.19644970  0.86254326  1  0  -0.10236  -0.173174  0  3.997396  0
C  C57  1  0.44963582  0.30329074  0.63751609  1  0  -0.102256  -0.17236  0  3.995571  0
C  C58  1  0.61016055  0.80354178  0.13745244  1  0  -0.102259  -0.173055  0  3.997601  0
C  C59  1  0.55035474  0.69671231  0.36248739  1  0  -0.102336  -0.172436  0  3.995617  0
C  C60  1  0.68826986  0.81695351  0.07688169  1  0  0.082553  0.183432  0  4.073341  0
C  C61  1  0.58136574  0.68315545  0.42303673  1  0  0.081666  0.181928  0  4.073981  0
C  C62  1  0.31173603  0.18304007  0.92311555  1  0  0.082479  0.183157  0  4.073571  0
C  C63  1  0.41861960  0.31684447  0.57696647  1  0  0.081628  0.181868  0  4.073853  0
C  C64  1  0.68808909  0.39126738  0.90300461  1  0  0.110508  0.178115  0  4.139419  0
C  C65  1  0.98309861  0.10856714  0.59698818  1  0  0.109839  0.177374  0  4.140656  0
C  C66  1  0.31191903  0.60873454  0.09699324  1  0  0.110489  0.178261  0  4.139285  0
C  C67  1  0.01686401  0.89144525  0.40301433  1  0  0.109873  0.17737  0  4.140632  0
C  C68  1  0.73619103  0.46451567  0.79540462  1  0  -0.015874  -0.032918  0  4.026079  0
C  C69  1  0.99746191  0.03497592  0.70452348  1  0  -0.016099  -0.034041  0  4.02586  0
C  C70  1  0.26382315  0.53549043  0.20459357  1  0  -0.015778  -0.032803  0  4.026023  0
C  C71  1  0.00252621  0.96503018  0.29547520  1  0  -0.016072  -0.034109  0  4.025843  0
C  C72  1  0.78212965  0.49635073  0.73430478  1  0  -0.097952  -0.127995  0  4.022085  0
C  C73  1  0.01427677  0.00310983  0.76559548  1  0  -0.09747  -0.126396  0  4.018695  0
C  C74  1  0.21787506  0.50364810  0.26569522  1  0  -0.097872  -0.127853  0  4.022073  0
C  C75  1  0.98572563  0.99689003  0.23440347  1  0  -0.097475  -0.126354  0  4.018669  0
C  C76  1  0.63426219  0.59875726  0.70604119  1  0  -0.09527  -0.078748  0  4.010978  0
C  C77  1  0.93982402  0.90098565  0.79396405  1  0  -0.095908  -0.08015  0  4.010015  0
C  C78  1  0.36574159  0.40124986  0.29395692  1  0  -0.09537  -0.078912  0  4.011347  0
C  C79  1  0.06018665  0.09901112  0.20603672  1  0  -0.09585  -0.080098  0  4.009657  0
C  C80  1  0.44461207  0.66854273  0.73782758  1  0  -0.09316  -0.077785  0  4.009257  0
C  C81  1  0.85118772  0.83134890  0.76228230  1  0  -0.093374  -0.078192  0  4.008971  0
C  C82  1  0.55539207  0.33146657  0.26217617  1  0  -0.093093  -0.077839  0  4.009185  0
C  C83  1  0.14882499  0.16864375  0.23772137  1  0  -0.093279  -0.07799  0  4.00884  0
C  C84  1  0.39603232  0.63462235  0.79824228  1  0  -0.097533  -0.168006  0  3.964875  0
C  C85  1  0.82911974  0.86526444  0.70187231  1  0  -0.096841  -0.165987  0  3.963749  0
C  C86  1  0.60397758  0.36538794  0.20175804  1  0  -0.097556  -0.168006  0  3.964591  0
C  C87  1  0.17089249  0.13472092  0.29813131  1  0  -0.09686  -0.166131  0  3.964028  0
C  C88  1  0.45715168  0.46827421  0.17249374  1  0  0.082952  0.182173  0  4.0739  0
C  C89  1  0.09723866  0.03197380  0.32746760  1  0  0.083244  0.182192  0  4.076332  0
C  C90  1  0.54284823  0.53173818  0.82750840  1  0  0.083055  0.182204  0  4.073886  0
C  C91  1  0.90275949  0.96802192  0.67253345  1  0  0.083227  0.182093  0  4.076338  0
S  S92  1  0.08710848  0.35371327  0.07770915  1  0  -0.201965  -0.36264  0  2.435299  0
S  S93  1  0.51833490  0.14656939  0.42230083  1  0  -0.202092  -0.363165  0  2.435714  0
S  S94  1  0.91289863  0.64628236  0.92228582  1  0  -0.202012  -0.362698  0  2.435303  0
S  S95  1  0.48164701  0.85343572  0.57770174  1  0  -0.202153  -0.363225  0  2.435677  0
S  S96  1  0.18793878  0.07173761  0.02258220  1  0  0.09521  0.107102  0  2.825817  0
S  S97  1  0.28267514  0.42826842  0.47762221  1  0  0.09503  0.107471  0  2.825855  0
S  S98  1  0.81207283  0.92825806  0.97741535  1  0  0.095222  0.107109  0  2.825964  0
S  S99  1  0.71731170  0.57173670  0.52238108  1  0  0.095052  0.107493  0  2.825729  0
S  S100  1  0.70960023  0.31089228  0.97308288  1  0  -0.204732  -0.363833  0  2.587773  0
S  S101  1  0.99406938  0.18906579  0.52691507  1  0  -0.204881  -0.364055  0  2.586384  0
S  S102  1  0.29041121  0.68910652  0.02691467  1  0  -0.204706  -0.363885  0  2.587803  0
S  S103  1  0.00590433  0.81093303  0.47308469  1  0  -0.20491  -0.364055  0  2.586249  0
S  S104  1  0.88688627  0.34785328  0.84395475  1  0  0.097007  0.113236  0  2.770154  0
S  S105  1  0.08017618  0.15168824  0.65591635  1  0  0.097334  0.114102  0  2.769885  0
S  S106  1  0.11312437  0.65215179  0.15604465  1  0  0.097005  0.113153  0  2.770151  0
S  S107  1  0.91979727  0.84832309  0.34408439  1  0  0.097292  0.114087  0  2.769803  0
N  N108  1  0.74874003  0.71484872  0.03527395  1  0  -0.361637  -0.328542  0  3.553796  0
N  N109  1  0.49846405  0.78519640  0.46468491  1  0  -0.361928  -0.328209  0  3.553929  0
N  N110  1  0.25127799  0.28514485  0.96472252  1  0  -0.361557  -0.328263  0  3.553822  0
N  N111  1  0.50152028  0.21480557  0.53531683  1  0  -0.361796  -0.328077  0  3.553946  0
N  N112  1  0.47914591  0.51363736  0.11276171  1  0  -0.356269  -0.332138  0  3.497759  0
N  N113  1  0.10515037  0.98644403  0.38716549  1  0  -0.355855  -0.331649  0  3.500043  0
N  N114  1  0.52086602  0.48636876  0.88723870  1  0  -0.35624  -0.331998  0  3.497746  0
N  N115  1  0.89485168  0.01354649  0.61283574  1  0  -0.355777  -0.331563  0  3.499998  0
