# generated using pymatgen
data_H26Pb(C7O2)2
_symmetry_space_group_name_H-M   'P 1'
_cell_length_a   4.78064824
_cell_length_b   7.47017647
_cell_length_c   22.91162879
_cell_angle_alpha   86.20781181
_cell_angle_beta   98.25883362
_cell_angle_gamma   99.12188175
_symmetry_Int_Tables_number   1
_chemical_formula_structural   H26Pb(C7O2)2
_chemical_formula_sum   'H52 Pb2 C28 O8'
_cell_volume   798.71273637
_cell_formula_units_Z   2
loop_
 _symmetry_equiv_pos_site_id
 _symmetry_equiv_pos_as_xyz
  1  'x, y, z'
loop_
 _atom_site_type_symbol
 _atom_site_label
 _atom_site_symmetry_multiplicity
 _atom_site_fract_x
 _atom_site_fract_y
 _atom_site_fract_z
 _atom_site_occupancy
 _atom_site_hle17_bader_spin_density
 _atom_site_hle17_ddec_charge
 _atom_site_hle17_ddec_spin_density
 _atom_site_hle17_ddec_sum_bond_order
 _atom_site_hle17_magmom
 _atom_site_hse06_10hf_bader_spin_density
 _atom_site_hse06_10hf_ddec_charge
 _atom_site_hse06_10hf_ddec_spin_density
 _atom_site_hse06_10hf_ddec_sum_bond_order
 _atom_site_hse06_10hf_magmom
 _atom_site_hse06_bader_spin_density
 _atom_site_hse06_ddec_charge
 _atom_site_hse06_ddec_spin_density
 _atom_site_hse06_ddec_sum_bond_order
 _atom_site_hse06_magmom
 _atom_site_pbe_bader_spin_density
 _atom_site_pbe_cm5_charge
 _atom_site_pbe_ddec_charge
 _atom_site_pbe_ddec_spin_density
 _atom_site_pbe_ddec_sum_bond_order
 _atom_site_pbe_magmom
H  H0  1  0.58873332  0.90445561  0.12959831  1  0  0.101966  0  0.939425  0  0  0.117133  0  0.99918  0  0  0.11892  0  0.998792  0  0  0.099097  0.115834  0  0.999508  0
H  H1  1  0.41123476  0.09552861  0.87040391  1  0  0.101977  0  0.939367  0  0  0.117049  0  0.999219  0  0  0.118833  0  0.998835  0  0  0.099057  0.115768  0  0.999547  0
H  H2  1  0.59104903  0.66535657  0.12982741  1  0  0.100901  0  0.941714  0  0  0.113966  0  1.006232  0  0  0.116144  0  1.005276  0  0  0.097428  0.112389  0  1.006941  0
H  H3  1  0.40893402  0.33462977  0.87017301  1  0  0.100903  0  0.941731  0  0  0.113993  0  1.00619  0  0  0.116169  0  1.005231  0  0  0.097473  0.112433  0  1.00691  0
H  H4  1  0.08315928  0.84300736  0.15334825  1  0  0.070122  0  0.958815  0  0  0.085405  0  1.02615  0  0  0.086609  0  1.026493  0  0  0.090118  0.084515  0  1.025934  0
H  H5  1  0.91679000  0.15696558  0.84665270  1  0  0.070162  0  0.958935  0  0  0.085286  0  1.026416  0  0  0.086476  0  1.026756  0  0  0.0901  0.084402  0  1.026201  0
H  H6  1  0.09948802  0.60742778  0.15872289  1  0  0.059449  0  0.94815  0  0  0.080434  0  1.006961  0  0  0.080445  0  1.00854  0  0  0.087601  0.080331  0  1.005994  0
H  H7  1  0.90051861  0.39254354  0.84128569  1  0  0.05939  0  0.948397  0  0  0.080422  0  1.0071  0  0  0.080431  0  1.008668  0  0  0.087619  0.08032  0  1.006133  0
H  H8  1  0.48933529  0.89148628  0.23601650  1  0  0.058667  0  0.945145  0  0  0.081411  0  1.002747  0  0  0.081447  0  1.004105  0  0  0.08777  0.081303  0  1.001896  0
H  H9  1  0.51063743  0.10853160  0.76397643  1  0  0.058583  0  0.945231  0  0  0.081339  0  1.002846  0  0  0.081361  0  1.0042  0  0  0.087737  0.08123  0  1.001998  0
H  H10  1  0.48559249  0.65509053  0.24507122  1  0  0.049354  0  0.951753  0  0  0.06946  0  1.01613  0  0  0.069978  0  1.016547  0  0  0.082593  0.068971  0  1.015963  0
H  H11  1  0.51442901  0.34493730  0.75493121  1  0  0.049318  0  0.951795  0  0  0.069436  0  1.01618  0  0  0.069968  0  1.01658  0  0  0.082625  0.068953  0  1.016007  0
H  H12  1  0.96825567  0.84588487  0.25033217  1  0  0.057817  0  0.962169  0  0  0.077289  0  1.024589  0  0  0.077785  0  1.025288  0  0  0.0875  0.07687  0  1.024164  0
H  H13  1  0.03173750  0.15411100  0.74967019  1  0  0.057877  0  0.962073  0  0  0.077382  0  1.024443  0  0  0.077878  0  1.025135  0  0  0.087538  0.076957  0  1.024036  0
H  H14  1  0.97859342  0.61368583  0.26518580  1  0  0.053661  0  0.97668  0  0  0.075161  0  1.038889  0  0  0.074873  0  1.040711  0  0  0.08549  0.075288  0  1.037692  0
H  H15  1  0.02141960  0.38631276  0.73482187  1  0  0.053631  0  0.976621  0  0  0.075186  0  1.038784  0  0  0.074893  0  1.040606  0  0  0.0855  0.075313  0  1.037589  0
H  H16  1  0.34671091  0.68260808  0.35317579  1  0  0.051216  0  0.951444  0  0  0.074353  0  1.006963  0  0  0.074443  0  1.008252  0  0  0.085365  0.074238  0  1.006065  0
H  H17  1  0.65332365  0.31743489  0.64682774  1  0  0.051124  0  0.951382  0  0  0.074371  0  1.006849  0  0  0.074459  0  1.008137  0  0  0.085393  0.074253  0  1.005952  0
H  H18  1  0.35584975  0.91618922  0.33632875  1  0  0.043187  0  0.96041  0  0  0.062428  0  1.025095  0  0  0.063154  0  1.024826  0  0  0.082624  0.061732  0  1.025523  0
H  H19  1  0.64414402  0.08383973  0.66366770  1  0  0.043223  0  0.960666  0  0  0.062482  0  1.02539  0  0  0.063207  0  1.025122  0  0  0.082639  0.061788  0  1.025812  0
H  H20  1  0.83554509  0.88883441  0.35108863  1  0  0.090569  0  0.977322  0  0  0.112566  0  1.041486  0  0  0.113064  0  1.043005  0  0  0.085555  0.112168  0  1.040412  0
H  H21  1  0.16446563  0.11119155  0.64891484  1  0  0.090499  0  0.97753  0  0  0.112573  0  1.041586  0  0  0.113073  0  1.043106  0  0  0.085533  0.112172  0  1.040506  0
H  H22  1  0.05008936  0.81880177  0.41563579  1  0  0.091627  0  0.956554  0  0  0.116699  0  1.011652  0  0  0.117603  0  1.012262  0  0  0.086714  0.115979  0  1.011294  0
H  H23  1  0.94994962  0.18124280  0.58436697  1  0  0.091842  0  0.956396  0  0  0.116855  0  1.011535  0  0  0.11776  0  1.012147  0  0  0.086766  0.116134  0  1.011178  0
H  H24  1  0.83066022  0.65531528  0.36973546  1  0  0.080703  0  0.980269  0  0  0.099694  0  1.050915  0  0  0.101104  0  1.050264  0  0  0.080981  0.098623  0  1.051438  0
H  H25  1  0.16938059  0.34470913  0.63027799  1  0  0.080873  0  0.980265  0  0  0.099784  0  1.050972  0  0  0.10119  0  1.050328  0  0  0.081016  0.09872  0  1.051486  0
H  H26  1  0.67557464  0.41260820  0.20605292  1  0  0.095001  0  0.941039  0  0  0.111035  0  1.005515  0  0  0.11286  0  1.004727  0  0  0.09746  0.109698  0  1.006174  0
H  H27  1  0.32445072  0.58740528  0.79394709  1  0  0.095056  0  0.941047  0  0  0.111093  0  1.005482  0  0  0.112918  0  1.004697  0  0  0.097463  0.109755  0  1.006139  0
H  H28  1  0.53448715  0.18315264  0.20891424  1  0  0.117543  0  0.941263  0  0  0.133164  0  1.0008  0  0  0.135836  0  0.999586  0  0  0.104121  0.131226  0  1.001784  0
H  H29  1  0.46552738  0.81683202  0.79108702  1  0  0.117519  0  0.941413  0  0  0.133187  0  1.000867  0  0  0.135865  0  0.999647  0  0  0.104126  0.131246  0  1.001855  0
H  H30  1  0.15374025  0.34117960  0.25800208  1  0  0.061731  0  0.936951  0  0  0.082488  0  0.996464  0  0  0.082692  0  0.997666  0  0  0.089156  0.08227  0  0.995689  0
H  H31  1  0.84628228  0.65880465  0.74199414  1  0  0.061671  0  0.936984  0  0  0.082405  0  0.996561  0  0  0.082595  0  0.997795  0  0  0.089103  0.082212  0  0.995753  0
H  H32  1  0.01150966  0.11136912  0.26279597  1  0  0.063735  0  0.959813  0  0  0.082943  0  1.021042  0  0  0.083552  0  1.021614  0  0  0.088558  0.082429  0  1.020769  0
H  H33  1  0.98851561  0.88863285  0.73719932  1  0  0.0638  0  0.95973  0  0  0.082982  0  1.020984  0  0  0.083598  0  1.021558  0  0  0.088571  0.082467  0  1.020714  0
H  H34  1  0.67841094  0.17028058  0.33046818  1  0  0.053434  0  0.954009  0  0  0.072079  0  1.020068  0  0  0.072881  0  1.020074  0  0  0.083237  0.071435  0  1.020124  0
H  H35  1  0.32162241  0.82970543  0.66952788  1  0  0.053439  0  0.954073  0  0  0.072145  0  1.020025  0  0  0.072951  0  1.020038  0  0  0.083223  0.071497  0  1.020087  0
H  H36  1  0.77653077  0.40566113  0.32052003  1  0  0.049602  0  0.961322  0  0  0.069083  0  1.026525  0  0  0.069722  0  1.026716  0  0  0.081828  0.068523  0  1.026524  0
H  H37  1  0.22348688  0.59433239  0.67947600  1  0  0.049568  0  0.961455  0  0  0.069047  0  1.026641  0  0  0.069718  0  1.026795  0  0  0.081774  0.068486  0  1.026641  0
H  H38  1  0.28664945  0.37482395  0.36146751  1  0  0.052087  0  0.946418  0  0  0.071382  0  1.009668  0  0  0.071759  0  1.01046  0  0  0.084352  0.071055  0  1.009161  0
H  H39  1  0.71335704  0.62520368  0.63853234  1  0  0.052088  0  0.946649  0  0  0.071401  0  1.009891  0  0  0.071779  0  1.010677  0  0  0.084383  0.07107  0  1.009391  0
H  H40  1  0.18659594  0.14022980  0.37220967  1  0  0.054533  0  0.963042  0  0  0.076279  0  1.023938  0  0  0.076211  0  1.025548  0  0  0.086246  0.076277  0  1.02284  0
H  H41  1  0.81347238  0.85979148  0.62778355  1  0  0.054528  0  0.963088  0  0  0.076287  0  1.023997  0  0  0.076214  0  1.025613  0  0  0.086293  0.076289  0  1.022892  0
H  H42  1  0.85080829  0.20438490  0.44297317  1  0  0.051149  0  0.939367  0  0  0.073004  0  0.99675  0  0  0.073361  0  0.997563  0  0  0.084813  0.072678  0  0.996222  0
H  H43  1  0.14919765  0.79557811  0.55701623  1  0  0.05128  0  0.939335  0  0  0.073144  0  0.996687  0  0  0.073507  0  0.997491  0  0  0.084918  0.072819  0  0.996156  0
H  H44  1  0.98846504  0.43652899  0.43538323  1  0  0.050303  0  0.947022  0  0  0.072966  0  1.004395  0  0  0.072976  0  1.005745  0  0  0.084618  0.072857  0  1.00358  0
H  H45  1  0.01149441  0.56344349  0.56461361  1  0  0.050293  0  0.946942  0  0  0.073104  0  1.004166  0  0  0.073117  0  1.005512  0  0  0.084634  0.072985  0  1.003369  0
H  H46  1  0.33260388  0.13053030  0.48412601  1  0  0.083796  0  0.958567  0  0  0.104456  0  1.022136  0  0  0.105823  0  1.021885  0  0  0.080514  0.103445  0  1.022332  0
H  H47  1  0.66739217  0.86945960  0.51587123  1  0  0.083753  0  0.958647  0  0  0.104421  0  1.022216  0  0  0.105791  0  1.021958  0  0  0.08057  0.103409  0  1.022411  0
H  H48  1  0.25846114  0.30765505  0.52467060  1  0  0.087306  0  0.98109  0  0  0.107268  0  1.046654  0  0  0.108381  0  1.047006  0  0  0.082178  0.106403  0  1.046461  0
H  H49  1  0.74151045  0.69232726  0.47532649  1  0  0.08735  0  0.98095  0  0  0.107349  0  1.046467  0  0  0.108466  0  1.046815  0  0  0.082261  0.106479  0  1.046277  0
H  H50  1  0.49109881  0.35766359  0.47022498  1  0  0.08785  0  0.972669  0  0  0.108831  0  1.03699  0  0  0.109625  0  1.038028  0  0  0.083648  0.108197  0  1.036302  0
H  H51  1  0.50888546  0.64233104  0.52977410  1  0  0.087818  0  0.9726  0  0  0.108768  0  1.036984  0  0  0.109555  0  1.038027  0  0  0.08363  0.108139  0  1.036291  0
Pb  Pb52  1  0.16530857  0.26108263  0.04765312  1  0  1.430619  0  1.288648  0  0  1.254394  0  1.668965  0  0  1.320318  0  1.622503  0  0  0.683123  1.206428  0  1.70158  0
Pb  Pb53  1  0.83467065  0.73892351  0.95233874  1  0  1.430619  0  1.288547  0  0  1.254393  0  1.668847  0  0  1.320321  0  1.622395  0  0  0.683162  1.206431  0  1.70146  0
C  C54  1  0.30157188  0.76811201  0.06037739  1  0  0.709871  0  3.861873  0  0  0.663876  0  4.154176  0  0  0.699113  0  4.147673  0  0  0.216119  0.639787  0  4.157579  0
C  C55  1  0.69839614  0.23185879  0.93962450  1  0  0.709975  0  3.861455  0  0  0.663868  0  4.153845  0  0  0.699104  0  4.147343  0  0  0.216133  0.639808  0  4.157254  0
C  C56  1  0.45423995  0.77194562  0.12284922  1  0  -0.264517  0  3.663017  0  0  -0.303247  0  3.914474  0  0  -0.308653  0  3.921237  0  0  -0.166557  -0.299413  0  3.909641  0
C  C57  1  0.54573190  0.22803613  0.87715225  1  0  -0.264502  0  3.66296  0  0  -0.30313  0  3.914402  0  0  -0.308527  0  3.921132  0  0  -0.166574  -0.299389  0  3.909684  0
C  C58  1  0.22846098  0.74220291  0.16533285  1  0  -0.085891  0  3.677975  0  0  -0.124145  0  3.934203  0  0  -0.124873  0  3.948355  0  0  -0.165162  -0.123506  0  3.924399  0
C  C59  1  0.77151113  0.25778009  0.83466949  1  0  -0.08601  0  3.678394  0  0  -0.124094  0  3.934476  0  0  -0.124784  0  3.948588  0  0  -0.165153  -0.123438  0  3.924696  0
C  C60  1  0.34930728  0.75983403  0.23032111  1  0  -0.095973  0  3.687981  0  0  -0.137894  0  3.951132  0  0  -0.138534  0  3.965739  0  0  -0.165493  -0.137261  0  3.940919  0
C  C61  1  0.65068372  0.24017541  0.76967978  1  0  -0.095798  0  3.687821  0  0  -0.137843  0  3.951084  0  0  -0.138482  0  3.965664  0  0  -0.165522  -0.137213  0  3.940873  0
C  C62  1  0.11109310  0.74807747  0.26870865  1  0  -0.118075  0  3.696292  0  0  -0.158546  0  3.955165  0  0  -0.15972  0  3.970428  0  0  -0.171523  -0.15754  0  3.944442  0
C  C63  1  0.88890997  0.25192657  0.73129565  1  0  -0.118008  0  3.696142  0  0  -0.158457  0  3.955037  0  0  -0.15962  0  3.970298  0  0  -0.171425  -0.157458  0  3.944324  0
C  C64  1  0.21392188  0.78453314  0.33355661  1  0  -0.059497  0  3.722868  0  0  -0.094051  0  3.982076  0  0  -0.094603  0  3.997655  0  0  -0.169331  -0.093484  0  3.971213  0
C  C65  1  0.78608433  0.21549144  0.66644587  1  0  -0.059517  0  3.723321  0  0  -0.094309  0  3.982749  0  0  -0.09487  0  3.998347  0  0  -0.16951  -0.093731  0  3.971872  0
C  C66  1  0.97037644  0.78715711  0.36951220  1  0  -0.290842  0  3.730715  0  0  -0.366795  0  3.978325  0  0  -0.369055  0  3.989857  0  0  -0.248131  -0.36495  0  3.970293  0
C  C67  1  0.02964352  0.21287303  0.63049279  1  0  -0.291194  0  3.730944  0  0  -0.367059  0  3.978588  0  0  -0.369323  0  3.990118  0  0  -0.248193  -0.365207  0  3.970548  0
C  C68  1  0.84666172  0.25428596  0.15037181  1  0  0.687464  0  3.867615  0  0  0.638412  0  4.169087  0  0  0.672981  0  4.163492  0  0  0.207759  0.614852  0  4.171918  0
C  C69  1  0.15331700  0.74571393  0.84962665  1  0  0.687593  0  3.867809  0  0  0.638574  0  4.169209  0  0  0.673143  0  4.163611  0  0  0.207825  0.615013  0  4.17204  0
C  C70  1  0.73756135  0.27616570  0.20820773  1  0  -0.272912  0  3.680501  0  0  -0.31441  0  3.938583  0  0  -0.320494  0  3.946394  0  0  -0.167145  -0.310204  0  3.933166  0
C  C71  1  0.26243509  0.72383870  0.79179203  1  0  -0.273123  0  3.680719  0  0  -0.314535  0  3.938574  0  0  -0.320614  0  3.946399  0  0  -0.16718  -0.310329  0  3.933161  0
C  C72  1  0.95397631  0.24817574  0.26250091  1  0  -0.086882  0  3.711479  0  0  -0.127379  0  3.972373  0  0  -0.127106  0  3.986062  0  0  -0.169544  -0.127379  0  3.962837  0
C  C73  1  0.04603781  0.75182154  0.73749631  1  0  -0.086675  0  3.711395  0  0  -0.127241  0  3.972369  0  0  -0.126994  0  3.986117  0  0  -0.169456  -0.127253  0  3.962832  0
C  C74  1  0.85906778  0.27550837  0.32180135  1  0  -0.109046  0  3.697838  0  0  -0.152349  0  3.96342  0  0  -0.153528  0  3.978397  0  0  -0.167818  -0.151318  0  3.952917  0
C  C75  1  0.14095657  0.72448650  0.67819660  1  0  -0.109125  0  3.698141  0  0  -0.15241  0  3.963709  0  0  -0.153599  0  3.978686  0  0  -0.16781  -0.151382  0  3.953212  0
C  C76  1  0.10724832  0.27099138  0.37181313  1  0  -0.110991  0  3.695407  0  0  -0.148769  0  3.95459  0  0  -0.150152  0  3.970794  0  0  -0.168856  -0.14765  0  3.943293  0
C  C77  1  0.89277985  0.72901444  0.62818439  1  0  -0.110972  0  3.695612  0  0  -0.148848  0  3.954899  0  0  -0.150236  0  3.971131  0  0  -0.168916  -0.147728  0  3.943598  0
C  C78  1  0.04213759  0.29899071  0.43359718  1  0  -0.061605  0  3.713852  0  0  -0.096007  0  3.973151  0  0  -0.096735  0  3.989167  0  0  -0.16968  -0.095363  0  3.962008  0
C  C79  1  0.95785945  0.70099260  0.56639926  1  0  -0.061856  0  3.713894  0  0  -0.096354  0  3.973287  0  0  -0.097086  0  3.989305  0  0  -0.16981  -0.095708  0  3.96214  0
C  C80  1  0.29405802  0.27254154  0.48085612  1  0  -0.290932  0  3.736253  0  0  -0.362414  0  3.979432  0  0  -0.364854  0  3.990751  0  0  -0.248689  -0.360463  0  3.971621  0
C  C81  1  0.70593361  0.72744676  0.51914189  1  0  -0.290761  0  3.736133  0  0  -0.362288  0  3.979388  0  0  -0.364715  0  3.990696  0  0  -0.24878  -0.360334  0  3.971574  0
O  O82  1  0.21071386  0.91110724  0.03615980  1  0  -0.711564  0  1.991975  0  0  -0.636137  0  2.232643  0  0  -0.670836  0  2.225713  0  0  -0.298972  -0.611598  0  2.236639  0
O  O83  1  0.78936245  0.08888472  0.96383341  1  0  -0.711551  0  1.991742  0  0  -0.636016  0  2.232377  0  0  -0.670716  0  2.225446  0  0  -0.29889  -0.611478  0  2.236361  0
O  O84  1  0.25065728  0.61922197  0.03352130  1  0  -0.725032  0  2.010346  0  0  -0.647828  0  2.252107  0  0  -0.682818  0  2.245766  0  0  -0.297444  -0.623055  0  2.255728  0
O  O85  1  0.74921566  0.38073073  0.96649002  1  0  -0.725073  0  2.010066  0  0  -0.647972  0  2.252103  0  0  -0.682973  0  2.245778  0  0  -0.297508  -0.623171  0  2.255644  0
O  O86  1  0.71654007  0.31294074  0.10179249  1  0  -0.718496  0  1.971032  0  0  -0.648456  0  2.219394  0  0  -0.681187  0  2.210929  0  0  -0.308522  -0.625236  0  2.224329  0
O  O87  1  0.28343410  0.68706956  0.89820751  1  0  -0.718435  0  1.971264  0  0  -0.648383  0  2.219533  0  0  -0.68114  0  2.211129  0  0  -0.308465  -0.625165  0  2.224468  0
O  O88  1  0.07167444  0.18108992  0.15147105  1  0  -0.643052  0  1.939714  0  0  -0.569248  0  2.169503  0  0  -0.600527  0  2.163181  0  0  -0.293755  -0.547409  0  2.173157  0
O  O89  1  0.92829001  0.81890007  0.84852711  1  0  -0.643102  0  1.939725  0  0  -0.569372  0  2.169541  0  0  -0.600647  0  2.163211  0  0  -0.293818  -0.547537  0  2.173199  0
