# generated using pymatgen
data_Zn3Mo2H10C4(N4O5)2
_symmetry_space_group_name_H-M   'P 1'
_cell_length_a   8.89953518
_cell_length_b   9.50555211
_cell_length_c   9.56829178
_cell_angle_alpha   102.12687067
_cell_angle_beta   89.99999492
_cell_angle_gamma   90.00004286
_symmetry_Int_Tables_number   1
_chemical_formula_structural   Zn3Mo2H10C4(N4O5)2
_chemical_formula_sum   'Zn6 Mo4 H20 C8 N16 O20'
_cell_volume   791.36703379
_cell_formula_units_Z   2
loop_
 _symmetry_equiv_pos_site_id
 _symmetry_equiv_pos_as_xyz
  1  'x, y, z'
loop_
 _atom_site_type_symbol
 _atom_site_label
 _atom_site_symmetry_multiplicity
 _atom_site_fract_x
 _atom_site_fract_y
 _atom_site_fract_z
 _atom_site_occupancy
 _atom_site_hle17_bader_spin_density
 _atom_site_hle17_ddec_charge
 _atom_site_hle17_ddec_spin_density
 _atom_site_hle17_ddec_sum_bond_order
 _atom_site_hle17_magmom
 _atom_site_hse06_10hf_bader_spin_density
 _atom_site_hse06_10hf_ddec_charge
 _atom_site_hse06_10hf_ddec_spin_density
 _atom_site_hse06_10hf_ddec_sum_bond_order
 _atom_site_hse06_10hf_magmom
 _atom_site_hse06_bader_spin_density
 _atom_site_hse06_ddec_charge
 _atom_site_hse06_ddec_spin_density
 _atom_site_hse06_ddec_sum_bond_order
 _atom_site_hse06_magmom
 _atom_site_pbe_bader_spin_density
 _atom_site_pbe_cm5_charge
 _atom_site_pbe_ddec_charge
 _atom_site_pbe_ddec_spin_density
 _atom_site_pbe_ddec_sum_bond_order
 _atom_site_pbe_magmom
Zn  Zn0  1  0.49999912  0.00000022  0.49999982  1  0  1.066959  0  1.857956  0  0  0.909989  0  2.297629  0  0  0.953001  0  2.246296  0  0  0.690331  0.881351  0  2.331683  0
Zn  Zn1  1  0.00000015  0.49999867  0.99999983  1  0  1.066974  0  1.857958  0  0  0.910011  0  2.29762  0  0  0.953032  0  2.246284  0  0  0.690342  0.881378  0  2.331678  0
Zn  Zn2  1  0.29559649  0.40221385  0.19731020  1  0  1.140523  0  1.791525  0  0  0.978244  0  2.245621  0  0  1.02331  0  2.190661  0  0  0.703997  0.947672  0  2.282558  0
Zn  Zn3  1  0.79559663  0.09778733  0.30269029  1  0  1.14054  0  1.791524  0  0  0.97825  0  2.245621  0  0  1.023314  0  2.190667  0  0  0.703993  0.947668  0  2.282561  0
Zn  Zn4  1  0.70440328  0.59778808  0.80268970  1  0  1.140548  0  1.79154  0  0  0.978259  0  2.245626  0  0  1.023312  0  2.19068  0  0  0.704012  0.947684  0  2.28257  0
Zn  Zn5  1  0.20440426  0.90221138  0.69731001  1  0  1.140503  0  1.791552  0  0  0.978211  0  2.245649  0  0  1.023269  0  2.190697  0  0  0.703985  0.947635  0  2.282594  0
Mo  Mo6  1  0.17656322  0.21335213  0.45838663  1  0  2.167929  0  4.232255  0  0  2.125448  0  4.839823  0  0  2.228363  0  4.798392  0  0  1.499321  2.05576  0  4.869413  0
Mo  Mo7  1  0.67656241  0.28664788  0.04161364  1  0  2.167869  0  4.232315  0  0  2.125379  0  4.839895  0  0  2.228302  0  4.798453  0  0  1.499246  2.055689  0  4.869459  0
Mo  Mo8  1  0.82343768  0.78664765  0.54161389  1  0  2.167924  0  4.232264  0  0  2.125462  0  4.839817  0  0  2.228373  0  4.798392  0  0  1.499299  2.055768  0  4.869393  0
Mo  Mo9  1  0.32343736  0.71335298  0.95838709  1  0  2.167911  0  4.23227  0  0  2.125438  0  4.83983  0  0  2.228351  0  4.798401  0  0  1.499309  2.055749  0  4.869409  0
H  H10  1  0.15252615  0.58140054  0.49854765  1  0  0.1024  0  0.963878  0  0  0.113664  0  1.026144  0  0  0.116293  0  1.022316  0  0  0.13417  0.11187  0  1.028855  0
H  H11  1  0.65252546  0.91859880  0.00145244  1  0  0.10243  0  0.963837  0  0  0.113699  0  1.026096  0  0  0.116327  0  1.022265  0  0  0.134197  0.111903  0  1.028806  0
H  H12  1  0.84747474  0.41859924  0.50145287  1  0  0.102413  0  0.963876  0  0  0.113696  0  1.026112  0  0  0.116323  0  1.022284  0  0  0.134192  0.1119  0  1.028822  0
H  H13  1  0.34747544  0.08140097  0.99854703  1  0  0.102409  0  0.963898  0  0  0.113689  0  1.026139  0  0  0.116317  0  1.022307  0  0  0.134189  0.111894  0  1.028848  0
H  H14  1  0.62690494  0.74995838  0.26219083  1  0  0.334273  0  0.900749  0  0  0.320096  0  0.960485  0  0  0.325912  0  0.956971  0  0  0.304937  0.315978  0  0.963098  0
H  H15  1  0.12690467  0.75004203  0.23780948  1  0  0.334285  0  0.90073  0  0  0.320108  0  0.960471  0  0  0.325927  0  0.956953  0  0  0.304945  0.315993  0  0.963082  0
H  H16  1  0.37309596  0.25004141  0.73780969  1  0  0.334281  0  0.900735  0  0  0.320117  0  0.960439  0  0  0.325936  0  0.956923  0  0  0.304942  0.316003  0  0.963051  0
H  H17  1  0.87309623  0.24995882  0.76219021  1  0  0.334361  0  0.90066  0  0  0.320158  0  0.960413  0  0  0.325974  0  0.9569  0  0  0.304957  0.31604  0  0.963027  0
H  H18  1  0.56481174  0.57713299  0.18491355  1  0  0.33631  0  0.923771  0  0  0.319509  0  0.98924  0  0  0.326739  0  0.983148  0  0  0.297382  0.314431  0  0.993499  0
H  H19  1  0.06481273  0.92286736  0.31508675  1  0  0.336304  0  0.923777  0  0  0.319506  0  0.989245  0  0  0.326736  0  0.983151  0  0  0.297378  0.314428  0  0.993501  0
H  H20  1  0.43518803  0.42286787  0.81508718  1  0  0.3363  0  0.923788  0  0  0.319499  0  0.98926  0  0  0.326731  0  0.983164  0  0  0.297378  0.314423  0  0.993518  0
H  H21  1  0.93518929  0.07713241  0.68491272  1  0  0.336287  0  0.92382  0  0  0.319495  0  0.989279  0  0  0.326723  0  0.983188  0  0  0.297378  0.314417  0  0.993533  0
H  H22  1  0.44988646  0.13469374  0.28926429  1  0  0.425035  0  0.879977  0  0  0.394715  0  0.944216  0  0  0.405289  0  0.92891  0  0  0.286225  0.38717  0  0.955133  0
H  H23  1  0.94988570  0.36530648  0.21073600  1  0  0.425059  0  0.879944  0  0  0.39474  0  0.944181  0  0  0.405313  0  0.928877  0  0  0.286224  0.387192  0  0.955101  0
H  H24  1  0.55011444  0.86530604  0.71073518  1  0  0.425044  0  0.879967  0  0  0.394725  0  0.944204  0  0  0.405297  0  0.928902  0  0  0.286222  0.387178  0  0.955123  0
H  H25  1  0.05011407  0.63469438  0.78926473  1  0  0.425038  0  0.879976  0  0  0.394718  0  0.944215  0  0  0.40529  0  0.928912  0  0  0.286226  0.387173  0  0.955132  0
H  H26  1  0.46670902  0.97564062  0.19957669  1  0  0.443822  0  0.856568  0  0  0.417122  0  0.913141  0  0  0.428541  0  0.896669  0  0  0.286611  0.409373  0  0.924193  0
H  H27  1  0.96670911  0.52435895  0.30042342  1  0  0.443804  0  0.856592  0  0  0.417104  0  0.913167  0  0  0.428523  0  0.896695  0  0  0.2866  0.409356  0  0.924217  0
H  H28  1  0.53329075  0.02436024  0.80042404  1  0  0.443829  0  0.856549  0  0  0.417141  0  0.913101  0  0  0.428558  0  0.896631  0  0  0.286609  0.409391  0  0.924154  0
H  H29  1  0.03329178  0.47564083  0.69957710  1  0  0.443778  0  0.856617  0  0  0.417078  0  0.913195  0  0  0.428495  0  0.896725  0  0  0.286593  0.409329  0  0.924245  0
C  C30  1  0.24324777  0.63932234  0.46017672  1  0  0.245886  0  3.693657  0  0  0.183787  0  3.962795  0  0  0.200897  0  3.973528  0  0  0.148874  0.172065  0  3.955949  0
C  C31  1  0.74324927  0.86067923  0.03982381  1  0  0.245889  0  3.693671  0  0  0.183781  0  3.962813  0  0  0.200895  0  3.973542  0  0  0.148894  0.17206  0  3.955965  0
C  C32  1  0.75675088  0.36067959  0.53982319  1  0  0.24587  0  3.693624  0  0  0.183744  0  3.962764  0  0  0.200858  0  3.973494  0  0  0.148869  0.172021  0  3.955916  0
C  C33  1  0.25675162  0.13932163  0.96017692  1  0  0.245846  0  3.693663  0  0  0.183739  0  3.962806  0  0  0.200854  0  3.973535  0  0  0.148868  0.172018  0  3.955957  0
C  C34  1  0.43152504  0.68965691  0.33788084  1  0  0.597285  0  3.821559  0  0  0.546636  0  4.098621  0  0  0.571155  0  4.107879  0  0  0.328032  0.529991  0  4.091225  0
C  C35  1  0.93152762  0.81034371  0.16211948  1  0  0.597149  0  3.821676  0  0  0.546587  0  4.098604  0  0  0.57111  0  4.107859  0  0  0.32803  0.529944  0  4.091206  0
C  C36  1  0.56847360  0.31034395  0.66211884  1  0  0.597289  0  3.821497  0  0  0.546621  0  4.098563  0  0  0.571137  0  4.107819  0  0  0.328046  0.529975  0  4.091167  0
C  C37  1  0.06847328  0.18965714  0.83788020  1  0  0.597204  0  3.821672  0  0  0.546644  0  4.098608  0  0  0.571166  0  4.107861  0  0  0.328036  0.53  0  4.091209  0
N  N38  1  0.53985542  0.67982115  0.23699388  1  0  -0.706256  0  3.084783  0  0  -0.677589  0  3.326358  0  0  -0.69786  0  3.323214  0  0  -0.587575  -0.663133  0  3.328674  0
N  N39  1  0.03985521  0.82017919  0.26300642  1  0  -0.706231  0  3.084863  0  0  -0.677605  0  3.326402  0  0  -0.697876  0  3.323252  0  0  -0.587586  -0.663148  0  3.328714  0
N  N40  1  0.46014435  0.32017970  0.76300580  1  0  -0.706236  0  3.08473  0  0  -0.677569  0  3.326307  0  0  -0.697837  0  3.323155  0  0  -0.58756  -0.663114  0  3.328622  0
N  N41  1  0.96014344  0.17982060  0.73699410  1  0  -0.706292  0  3.084814  0  0  -0.677629  0  3.326399  0  0  -0.697896  0  3.323251  0  0  -0.587581  -0.663171  0  3.328712  0
N  N42  1  0.40642602  0.80515311  0.44283464  1  0  -0.417466  0  3.169693  0  0  -0.342079  0  3.44287  0  0  -0.364245  0  3.457727  0  0  -0.283665  -0.326882  0  3.431601  0
N  N43  1  0.90642627  0.69484642  0.05716547  1  0  -0.417423  0  3.16969  0  0  -0.342049  0  3.442825  0  0  -0.364215  0  3.457677  0  0  -0.283642  -0.326855  0  3.431564  0
N  N44  1  0.59357487  0.19484667  0.55716588  1  0  -0.41748  0  3.169672  0  0  -0.342094  0  3.442866  0  0  -0.364254  0  3.457712  0  0  -0.28367  -0.326896  0  3.431597  0
N  N45  1  0.09357463  0.30515442  0.94283212  1  0  -0.417468  0  3.169736  0  0  -0.342129  0  3.442926  0  0  -0.364289  0  3.457769  0  0  -0.283672  -0.326934  0  3.431661  0
N  N46  1  0.32854209  0.58411804  0.34364299  1  0  -0.534814  0  3.156392  0  0  -0.442801  0  3.435282  0  0  -0.469074  0  3.440828  0  0  -0.366648  -0.425252  0  3.430988  0
N  N47  1  0.82854138  0.91588037  0.15635899  1  0  -0.534786  0  3.156408  0  0  -0.442785  0  3.43527  0  0  -0.469066  0  3.440827  0  0  -0.366692  -0.425237  0  3.430975  0
N  N48  1  0.67145768  0.41588175  0.65635857  1  0  -0.534843  0  3.15636  0  0  -0.442788  0  3.435229  0  0  -0.469059  0  3.440776  0  0  -0.3667  -0.42524  0  3.430937  0
N  N49  1  0.17145839  0.08411941  0.84364153  1  0  -0.534774  0  3.156352  0  0  -0.442781  0  3.435219  0  0  -0.469059  0  3.440775  0  0  -0.366678  -0.425231  0  3.430924  0
N  N50  1  0.28660963  0.77085805  0.52149907  1  0  -0.288232  0  3.254226  0  0  -0.217246  0  3.53864  0  0  -0.2355  0  3.554256  0  0  -0.26851  -0.204454  0  3.527718  0
N  N51  1  0.78660874  0.72914255  0.97850191  1  0  -0.288229  0  3.254254  0  0  -0.217265  0  3.538696  0  0  -0.235518  0  3.554311  0  0  -0.26853  -0.204476  0  3.527778  0
N  N52  1  0.71339014  0.22914281  0.47850166  1  0  -0.288218  0  3.25418  0  0  -0.217249  0  3.538624  0  0  -0.235508  0  3.55424  0  0  -0.268518  -0.204461  0  3.5277  0
N  N53  1  0.21338990  0.27085831  0.02149883  1  0  -0.288167  0  3.25417  0  0  -0.217199  0  3.538621  0  0  -0.235457  0  3.554238  0  0  -0.268496  -0.20441  0  3.5277  0
O  O54  1  0.51616306  0.37789508  0.12792925  1  0  -0.888154  0  1.673322  0  0  -0.847259  0  1.990403  0  0  -0.882605  0  1.970836  0  0  -0.569582  -0.82352  0  2.004151  0
O  O55  1  0.01616267  0.12210482  0.37207101  1  0  -0.888197  0  1.673267  0  0  -0.847308  0  1.990352  0  0  -0.882648  0  1.970781  0  0  -0.569621  -0.823567  0  2.004105  0
O  O56  1  0.48383784  0.62210579  0.87207253  1  0  -0.888196  0  1.67326  0  0  -0.847309  0  1.990344  0  0  -0.88265  0  1.970776  0  0  -0.569623  -0.823574  0  2.004111  0
O  O57  1  0.98383822  0.87789388  0.62792930  1  0  -0.888154  0  1.673288  0  0  -0.847264  0  1.990361  0  0  -0.882606  0  1.970795  0  0  -0.569597  -0.823539  0  2.004153  0
O  O58  1  0.51671239  0.04854833  0.27744045  1  0  -0.850572  0  1.894239  0  0  -0.791559  0  2.105174  0  0  -0.812834  0  2.069077  0  0  -0.564969  -0.776613  0  2.130089  0
O  O59  1  0.01671228  0.45145264  0.22255898  1  0  -0.850565  0  1.894219  0  0  -0.791573  0  2.10518  0  0  -0.812851  0  2.069087  0  0  -0.564944  -0.776627  0  2.130096  0
O  O60  1  0.48328851  0.95145252  0.72255924  1  0  -0.850567  0  1.894209  0  0  -0.79159  0  2.105191  0  0  -0.812863  0  2.069097  0  0  -0.56495  -0.776641  0  2.130105  0
O  O61  1  0.98328749  0.54854821  0.77744070  1  0  -0.850525  0  1.894256  0  0  -0.791529  0  2.10521  0  0  -0.812805  0  2.069117  0  0  -0.56494  -0.776581  0  2.130123  0
O  O62  1  0.27511438  0.09667100  0.55070905  1  0  -0.901585  0  1.660099  0  0  -0.86394  0  1.981139  0  0  -0.898601  0  1.963126  0  0  -0.564068  -0.840896  0  1.993872  0
O  O63  1  0.77511476  0.40332917  0.94929189  1  0  -0.901614  0  1.660167  0  0  -0.863969  0  1.981204  0  0  -0.898633  0  1.963191  0  0  -0.564063  -0.840915  0  1.993925  0
O  O64  1  0.72488651  0.90332985  0.44929064  1  0  -0.901603  0  1.660129  0  0  -0.863975  0  1.981176  0  0  -0.898635  0  1.963167  0  0  -0.564066  -0.840918  0  1.993898  0
O  O65  1  0.22488501  0.59667061  0.05070863  1  0  -0.90158  0  1.66011  0  0  -0.863942  0  1.981153  0  0  -0.898606  0  1.963145  0  0  -0.564057  -0.840893  0  1.993883  0
O  O66  1  0.30200125  0.25395960  0.32493450  1  0  -0.911278  0  1.704281  0  0  -0.863861  0  2.016213  0  0  -0.900883  0  1.99709  0  0  -0.568835  -0.838943  0  2.029137  0
O  O67  1  0.80200153  0.24604158  0.17506599  1  0  -0.911278  0  1.704289  0  0  -0.863848  0  2.016204  0  0  -0.900871  0  1.997085  0  0  -0.568826  -0.838923  0  2.02912  0
O  O68  1  0.69799852  0.74604126  0.67506623  1  0  -0.911283  0  1.704273  0  0  -0.863867  0  2.016201  0  0  -0.900882  0  1.997081  0  0  -0.568835  -0.838943  0  2.029125  0
O  O69  1  0.19799824  0.75395928  0.82493474  1  0  -0.911259  0  1.704307  0  0  -0.863833  0  2.016233  0  0  -0.900851  0  1.997111  0  0  -0.568819  -0.83891  0  2.029156  0
O  O70  1  0.12679551  0.37571187  0.57272113  1  0  -0.82856  0  1.563018  0  0  -0.807826  0  1.837472  0  0  -0.841348  0  1.824562  0  0  -0.560838  -0.785242  0  1.846523  0
O  O71  1  0.62679229  0.12428927  0.92728002  1  0  -0.828557  0  1.562953  0  0  -0.807835  0  1.837418  0  0  -0.841358  0  1.824503  0  0  -0.560824  -0.785246  0  1.846455  0
O  O72  1  0.87320538  0.62428898  0.42727856  1  0  -0.828564  0  1.562978  0  0  -0.80783  0  1.83741  0  0  -0.841347  0  1.824498  0  0  -0.560831  -0.785239  0  1.846454  0
O  O73  1  0.37320523  0.87571266  0.07272093  1  0  -0.82856  0  1.563008  0  0  -0.807832  0  1.837462  0  0  -0.841353  0  1.824548  0  0  -0.560828  -0.785241  0  1.846505  0
