# generated using pymatgen
data_CdH28C26S2(N4Cl)2
_symmetry_space_group_name_H-M   'P 1'
_cell_length_a   7.90966046
_cell_length_b   9.04884039
_cell_length_c   12.14320466
_cell_angle_alpha   68.15123199
_cell_angle_beta   82.61744593
_cell_angle_gamma   69.91422958
_symmetry_Int_Tables_number   1
_chemical_formula_structural   CdH28C26S2(N4Cl)2
_chemical_formula_sum   'Cd1 H28 C26 S2 N8 Cl2'
_cell_volume   757.63465506
_cell_formula_units_Z   1
loop_
 _symmetry_equiv_pos_site_id
 _symmetry_equiv_pos_as_xyz
  1  'x, y, z'
loop_
 _atom_site_type_symbol
 _atom_site_label
 _atom_site_symmetry_multiplicity
 _atom_site_fract_x
 _atom_site_fract_y
 _atom_site_fract_z
 _atom_site_occupancy
 _atom_site_hle17_bader_spin_density
 _atom_site_hle17_ddec_charge
 _atom_site_hle17_ddec_spin_density
 _atom_site_hle17_ddec_sum_bond_order
 _atom_site_hle17_magmom
 _atom_site_hse06_10hf_bader_charge
 _atom_site_hse06_10hf_bader_spin_density
 _atom_site_hse06_10hf_ddec_charge
 _atom_site_hse06_10hf_ddec_spin_density
 _atom_site_hse06_10hf_ddec_sum_bond_order
 _atom_site_hse06_10hf_magmom
 _atom_site_hse06_bader_spin_density
 _atom_site_hse06_ddec_charge
 _atom_site_hse06_ddec_spin_density
 _atom_site_hse06_ddec_sum_bond_order
 _atom_site_hse06_magmom
 _atom_site_pbe_bader_spin_density
 _atom_site_pbe_cm5_charge
 _atom_site_pbe_ddec_charge
 _atom_site_pbe_ddec_spin_density
 _atom_site_pbe_ddec_sum_bond_order
 _atom_site_pbe_magmom
Cd  Cd0  1  0.49999592  0.00000216  0.00000118  1  0  0.936668  0  1.856455  0  1.209783  0  0.733405  0  2.300544  0  0  0.783225  0  2.263827  0  0  0.681865  0.698561  0  2.32515  0
H  H1  1  0.68584552  0.68810131  0.21794928  1  0  0.071165  0  0.984272  0  0.102127  0  0.075783  0  1.05747  0  0  0.078016  0  1.055724  0  0  0.103364  0.074112  0  1.058808  0
H  H2  1  0.31375669  0.09403690  0.21845254  1  0  0.071372  0  0.984495  0  0.121552  0  0.0766  0  1.057351  0  0  0.078736  0  1.055699  0  0  0.10364  0.074994  0  1.058624  0
H  H3  1  0.31414896  0.31190299  0.78205349  1  0  0.071158  0  0.984412  0  0.102592  0  0.075762  0  1.057601  0  0  0.077992  0  1.055856  0  0  0.103324  0.074089  0  1.05894  0
H  H4  1  0.68623093  0.90596925  0.78155836  1  0  0.071226  0  0.984587  0  0.12155  0  0.07646  0  1.057469  0  0  0.078591  0  1.05581  0  0  0.103612  0.074856  0  1.05874  0
H  H5  1  0.63699742  0.45703003  0.39879913  1  0  0.096111  0  0.984576  0  0.093163  0  0.100713  0  1.05518  0  0  0.10365  0  1.055212  0  0  0.094708  0.098606  0  1.055318  0
H  H6  1  0.36280513  0.14425548  0.39929442  1  0  0.095489  0  0.986577  0  0.088671  0  0.100595  0  1.056676  0  0  0.103449  0  1.056784  0  0  0.094604  0.098528  0  1.056783  0
H  H7  1  0.36299486  0.54297443  0.60120232  1  0  0.096074  0  0.984559  0  0.093468  0  0.100674  0  1.055179  0  0  0.103609  0  1.055213  0  0  0.094701  0.098566  0  1.055317  0
H  H8  1  0.63719674  0.85575333  0.60070867  1  0  0.09559  0  0.986531  0  0.088729  0  0.10059  0  1.05671  0  0  0.103441  0  1.056824  0  0  0.094604  0.098521  0  1.056823  0
H  H9  1  0.32504135  0.42669315  0.43377076  1  0  0.098337  0  0.938244  0  0.100998  0  0.108832  0  1.000397  0  0  0.11181  0  0.998228  0  0  0.106007  0.106676  0  1.00194  0
H  H10  1  0.67485082  0.13976928  0.43386749  1  0  0.09786  0  0.938731  0  0.096921  0  0.108858  0  1.00033  0  0  0.111754  0  0.998309  0  0  0.106231  0.106722  0  1.001843  0
H  H11  1  0.67495797  0.57330271  0.56622910  1  0  0.098331  0  0.938257  0  0.101011  0  0.108826  0  1.0004  0  0  0.111803  0  0.998231  0  0  0.106033  0.106668  0  1.001947  0
H  H12  1  0.32515636  0.86022679  0.56613562  1  0  0.097848  0  0.938785  0  0.096963  0  0.108859  0  1.000362  0  0  0.111768  0  0.998306  0  0  0.106241  0.10673  0  1.001867  0
H  H13  1  0.15881763  0.84750255  0.10851565  1  0  0.076011  0  0.968163  0  0.11265  0  0.079171  0  1.04712  0  0  0.08152  0  1.044694  0  0  0.102228  0.077398  0  1.048969  0
H  H14  1  0.84067049  0.04440144  0.10824154  1  0  0.075304  0  0.968438  0  0.108591  0  0.078546  0  1.047638  0  0  0.080833  0  1.045289  0  0  0.101902  0.076779  0  1.049492  0
H  H15  1  0.84117669  0.15249477  0.89148659  1  0  0.076051  0  0.968135  0  0.112662  0  0.079199  0  1.047102  0  0  0.081548  0  1.044675  0  0  0.102212  0.077425  0  1.048951  0
H  H16  1  0.15931860  0.95559975  0.89175707  1  0  0.075371  0  0.968441  0  0.108809  0  0.078589  0  1.047659  0  0  0.080877  0  1.045308  0  0  0.101933  0.07681  0  1.049523  0
H  H17  1  0.99798537  0.57715370  0.38371692  1  0  0.072152  0  0.991713  0  0.12992  0  0.081538  0  1.066652  0  0  0.083471  0  1.064862  0  0  0.093059  0.080028  0  1.068029  0
H  H18  1  0.00219404  0.03896572  0.38330746  1  0  0.071955  0  0.991966  0  0.133252  0  0.081347  0  1.066295  0  0  0.083271  0  1.064533  0  0  0.093255  0.079876  0  1.067629  0
H  H19  1  0.00201172  0.42284317  0.61628080  1  0  0.072129  0  0.991723  0  0.129873  0  0.081527  0  1.066683  0  0  0.083466  0  1.064888  0  0  0.093053  0.080007  0  1.068053  0
H  H20  1  0.99781434  0.96102811  0.61668560  1  0  0.072001  0  0.991912  0  0.133171  0  0.081431  0  1.066227  0  0  0.083356  0  1.064468  0  0  0.093311  0.07996  0  1.067561  0
H  H21  1  0.93398443  0.74209819  0.24338013  1  0  0.063546  0  0.954793  0  0.056421  0  0.076281  0  1.02476  0  0  0.076462  0  1.025136  0  0  0.097885  0.076043  0  1.024647  0
H  H22  1  0.06562653  0.01481258  0.24269929  1  0  0.064183  0  0.955139  0  0.072623  0  0.076594  0  1.024884  0  0  0.076812  0  1.025191  0  0  0.09799  0.076338  0  1.024781  0
H  H23  1  0.06601613  0.25789923  0.75661819  1  0  0.063535  0  0.954781  0  0.056383  0  0.076299  0  1.024754  0  0  0.076479  0  1.025133  0  0  0.097888  0.076052  0  1.024632  0
H  H24  1  0.93436287  0.98519159  0.75728667  1  0  0.06418  0  0.95523  0  0.073006  0  0.076668  0  1.024891  0  0  0.07689  0  1.025191  0  0  0.098018  0.076413  0  1.024786  0
H  H25  1  0.99189965  0.54860809  0.15070873  1  0  0.277497  0  0.92186  0  0.49967  0  0.262714  0  0.985727  0  0  0.270556  0  0.979031  0  0  0.287467  0.257169  0  0.99052  0
H  H26  1  0.00773865  0.30081103  0.15051583  1  0  0.277817  0  0.921549  0  0.497919  0  0.263009  0  0.985363  0  0  0.27086  0  0.978683  0  0  0.287598  0.257468  0  0.990164  0
H  H27  1  0.00809624  0.45139239  0.84928917  1  0  0.277507  0  0.921863  0  0.499707  0  0.262743  0  0.985727  0  0  0.270578  0  0.97903  0  0  0.287505  0.257198  0  0.99052  0
H  H28  1  0.99225928  0.69918917  0.84947986  1  0  0.277802  0  0.921593  0  0.497969  0  0.263004  0  0.985395  0  0  0.270848  0  0.978723  0  0  0.287609  0.25746  0  0.990199  0
C  C29  1  0.55490866  0.66918411  0.23703764  1  0  0.124029  0  3.703509  0  0.50919  0  0.093089  0  3.94969  0  0  0.100011  0  3.968551  0  0  0.037724  0.088623  0  3.936892  0
C  C30  1  0.44471156  0.09395706  0.23736329  1  0  0.124363  0  3.703451  0  0.431416  0  0.092669  0  3.949758  0  0  0.099681  0  3.968602  0  0  0.037527  0.088142  0  3.936968  0
C  C31  1  0.44508362  0.33082035  0.76296380  1  0  0.123976  0  3.703779  0  0.508637  0  0.093073  0  3.949941  0  0  0.099995  0  3.968803  0  0  0.037768  0.088606  0  3.937139  0
C  C32  1  0.55528042  0.90604496  0.76264176  1  0  0.124606  0  3.703712  0  0.431293  0  0.092889  0  3.950009  0  0  0.099914  0  3.968845  0  0  0.037664  0.088359  0  3.937217  0
C  C33  1  0.52599801  0.54097042  0.33736400  1  0  -0.115937  0  3.737874  0  -0.024592  0  -0.121907  0  3.981868  0  0  -0.129394  0  4.004278  0  0  -0.087556  -0.117174  0  3.966907  0
C  C34  1  0.47373413  0.12186805  0.33767355  1  0  -0.116443  0  3.738012  0  -0.017137  0  -0.122836  0  3.982447  0  0  -0.130257  0  4.004848  0  0  -0.087791  -0.118132  0  3.96747  0
C  C35  1  0.47399296  0.45903502  0.66263654  1  0  -0.115879  0  3.737831  0  -0.024983  0  -0.121868  0  3.981835  0  0  -0.129355  0  4.004246  0  0  -0.087584  -0.117136  0  3.966871  0
C  C36  1  0.52626943  0.87813284  0.66233229  1  0  -0.11663  0  3.738189  0  -0.017239  0  -0.122931  0  3.982667  0  0  -0.13035  0  4.00506  0  0  -0.087844  -0.118229  0  3.967691  0
C  C37  1  0.35517224  0.52380311  0.35583759  1  0  -0.046372  0  3.695761  0  -0.064265  0  -0.072229  0  3.939752  0  0  -0.06951  0  3.958877  0  0  -0.064945  -0.073688  0  3.926786  0
C  C38  1  0.64461032  0.12062927  0.35595219  1  0  -0.044821  0  3.693251  0  -0.045949  0  -0.071393  0  3.937399  0  0  -0.068618  0  3.956535  0  0  -0.064999  -0.07286  0  3.924366  0
C  C39  1  0.64482533  0.47619633  0.64416007  1  0  -0.046384  0  3.695679  0  -0.064254  0  -0.072208  0  3.939667  0  0  -0.069488  0  3.958792  0  0  -0.064985  -0.07367  0  3.926703  0
C  C40  1  0.35539083  0.87936650  0.64405015  1  0  -0.044723  0  3.69308  0  -0.045868  0  -0.071283  0  3.937225  0  0  -0.068507  0  3.95637  0  0  -0.06497  -0.072757  0  3.924196  0
C  C41  1  0.21885182  0.63381795  0.27323141  1  0  0.034615  0  3.707707  0  0.010686  0  0.060464  0  3.943449  0  0  0.055001  0  3.968168  0  0  -0.004712  0.063791  0  3.926902  0
C  C42  1  0.78089132  0.09312536  0.27316214  1  0  0.033798  0  3.707376  0  0.032423  0  0.059967  0  3.941878  0  0  0.054489  0  3.9666  0  0  -0.005345  0.063305  0  3.925312  0
C  C43  1  0.78114484  0.36617467  0.72676801  1  0  0.034643  0  3.707824  0  0.010667  0  0.060477  0  3.943638  0  0  0.05501  0  3.968365  0  0  -0.004678  0.063791  0  3.927077  0
C  C44  1  0.21910902  0.90687310  0.72684004  1  0  0.033744  0  3.707209  0  0.032038  0  0.05985  0  3.941855  0  0  0.054371  0  3.966582  0  0  -0.00539  0.063189  0  3.925287  0
C  C45  1  0.26089980  0.75800709  0.17507213  1  0  0.06987  0  3.690892  0  0.469313  0  0.033917  0  3.938003  0  0  0.040461  0  3.956035  0  0  0.038372  0.029683  0  3.925838  0
C  C46  1  0.73870696  0.06710181  0.17502065  1  0  0.06967  0  3.692256  0  0.448746  0  0.033205  0  3.939478  0  0  0.039786  0  3.957593  0  0  0.038015  0.028951  0  3.927285  0
C  C47  1  0.73909910  0.24199054  0.82492724  1  0  0.069783  0  3.691021  0  0.469446  0  0.03384  0  3.938167  0  0  0.040382  0  3.956203  0  0  0.038364  0.029602  0  3.926004  0
C  C48  1  0.26128231  0.93289865  0.82498232  1  0  0.069726  0  3.691999  0  0.448728  0  0.033338  0  3.939182  0  0  0.039913  0  3.9573  0  0  0.038086  0.029091  0  3.926994  0
C  C49  1  0.03225688  0.61893568  0.28895601  1  0  0.005406  0  3.703519  0  0.318313  0  -0.057662  0  3.950749  0  0  -0.052609  0  3.96201  0  0  -0.065077  -0.06088  0  3.943158  0
C  C50  1  0.96758123  0.09214018  0.28861557  1  0  0.00456  0  3.704694  0  0.302135  0  -0.057009  0  3.949201  0  0  -0.051934  0  3.960357  0  0  -0.064805  -0.060242  0  3.94165  0
C  C51  1  0.96773893  0.38106132  0.71104162  1  0  0.005401  0  3.703586  0  0.3183  0  -0.057733  0  3.950985  0  0  -0.052697  0  3.962238  0  0  -0.065083  -0.060895  0  3.943318  0
C  C52  1  0.03242003  0.90785877  0.71137881  1  0  0.004489  0  3.704776  0  0.301841  0  -0.057165  0  3.949392  0  0  -0.0521  0  3.960555  0  0  -0.064913  -0.060399  0  3.941838  0
C  C53  1  0.00003297  0.34720816  0.30531353  1  0  0.446817  0  3.860753  0  0.851062  0  0.399978  0  4.164738  0  0  0.427813  0  4.171315  0  0  0.234555  0.381447  0  4.15929  0
C  C54  1  0.99996286  0.65278799  0.69468492  1  0  0.446833  0  3.86079  0  0.850881  0  0.40005  0  4.164749  0  0  0.427869  0  4.17132  0  0  0.234583  0.381518  0  4.159301  0
S  S55  1  0.00029908  0.27190836  0.45550851  1  0  -0.485166  0  1.867312  0  -0.20172  0  -0.464649  0  2.174852  0  0  -0.480236  0  2.169109  0  0  -0.207953  -0.453415  0  2.178339  0
S  S56  1  0.99969465  0.72809061  0.54448970  1  0  -0.485213  0  1.867301  0  -0.20152  0  -0.46469  0  2.174811  0  0  -0.480286  0  2.169073  0  0  -0.207987  -0.453457  0  2.178298  0
N  N57  1  0.42500737  0.77624825  0.15726592  1  0  -0.321638  0  3.278118  0  -1.29419  0  -0.242277  0  3.537419  0  0  -0.262003  0  3.558331  0  0  -0.33067  -0.228831  0  3.52288  0
N  N58  1  0.57452617  0.06673090  0.15737507  1  0  -0.320529  0  3.278931  0  -1.263668  0  -0.241157  0  3.538592  0  0  -0.260853  0  3.559452  0  0  -0.329783  -0.227728  0  3.52407  0
N  N59  1  0.57498657  0.22375601  0.84273446  1  0  -0.321575  0  3.278228  0  -1.294177  0  -0.24221  0  3.537497  0  0  -0.261936  0  3.558408  0  0  -0.330643  -0.228762  0  3.522952  0
N  N60  1  0.42546526  0.93327108  0.84262759  1  0  -0.320672  0  3.278843  0  -1.263487  0  -0.241315  0  3.538525  0  0  -0.261009  0  3.559381  0  0  -0.329931  -0.227883  0  3.523997  0
N  N61  1  0.01640971  0.50006071  0.24019414  1  0  -0.405721  0  3.350546  0  -1.270645  0  -0.341393  0  3.594892  0  0  -0.362115  0  3.604962  0  0  -0.425772  -0.327242  0  3.587642  0
N  N62  1  0.98345637  0.25971782  0.24004241  1  0  -0.406103  0  3.352681  0  -1.275569  0  -0.342605  0  3.597304  0  0  -0.363319  0  3.607242  0  0  -0.426279  -0.328474  0  3.590144  0
N  N63  1  0.98358701  0.49993624  0.75980473  1  0  -0.405617  0  3.350582  0  -1.270614  0  -0.341343  0  3.595015  0  0  -0.362028  0  3.605057  0  0  -0.425788  -0.327212  0  3.587751  0
N  N64  1  0.01653900  0.74028178  0.75995392  1  0  -0.406136  0  3.352641  0  -1.275585  0  -0.34265  0  3.597317  0  0  -0.363353  0  3.607261  0  0  -0.426282  -0.328518  0  3.590153  0
Cl  Cl65  1  0.84646832  0.80586382  0.00011354  1  0  -0.62751  0  0.794703  0  -0.734885  0  -0.575448  0  1.039484  0  0  -0.589195  0  1.018041  0  0  -0.331367  -0.565276  0  1.05426  0
Cl  Cl66  1  0.15352333  0.19413712  0.99988525  1  0  -0.627532  0  0.794718  0  -0.734924  0  -0.575462  0  1.039494  0  0  -0.589213  0  1.018054  0  0  -0.33137  -0.565291  0  1.05427  0
