# generated using pymatgen
data_AgH8C3N7
_symmetry_space_group_name_H-M   'P 1'
_cell_length_a   4.49475778
_cell_length_b   11.14546433
_cell_length_c   14.35580789
_cell_angle_alpha   90.00002094
_cell_angle_beta   93.64377378
_cell_angle_gamma   89.99999173
_symmetry_Int_Tables_number   1
_chemical_formula_structural   AgH8C3N7
_chemical_formula_sum   'Ag4 H32 C12 N28'
_cell_volume   717.71705681
_cell_formula_units_Z   4
loop_
 _symmetry_equiv_pos_site_id
 _symmetry_equiv_pos_as_xyz
  1  'x, y, z'
loop_
 _atom_site_type_symbol
 _atom_site_label
 _atom_site_symmetry_multiplicity
 _atom_site_fract_x
 _atom_site_fract_y
 _atom_site_fract_z
 _atom_site_occupancy
 _atom_site_hle17_bader_spin_density
 _atom_site_hle17_ddec_charge
 _atom_site_hle17_ddec_spin_density
 _atom_site_hle17_ddec_sum_bond_order
 _atom_site_hle17_magmom
 _atom_site_hse06_10hf_bader_spin_density
 _atom_site_hse06_10hf_ddec_charge
 _atom_site_hse06_10hf_ddec_spin_density
 _atom_site_hse06_10hf_ddec_sum_bond_order
 _atom_site_hse06_10hf_magmom
 _atom_site_hse06_bader_spin_density
 _atom_site_hse06_ddec_charge
 _atom_site_hse06_ddec_spin_density
 _atom_site_hse06_ddec_sum_bond_order
 _atom_site_hse06_magmom
 _atom_site_pbe_bader_spin_density
 _atom_site_pbe_cm5_charge
 _atom_site_pbe_ddec_charge
 _atom_site_pbe_ddec_spin_density
 _atom_site_pbe_ddec_sum_bond_order
 _atom_site_pbe_magmom
Ag  Ag0  1  0.50304096  0.40961422  0.31584284  1  0  0.471489  0  1.474975  0  0  0.330484  0  1.924935  0  0  0.35147  0  1.881898  0  0  0.456407  0.317881  0  1.95348  0
Ag  Ag1  1  0.49695713  0.90961579  0.18415658  1  0  0.471472  0  1.47493  0  0  0.33051  0  1.924923  0  0  0.351499  0  1.881888  0  0  0.456419  0.317908  0  1.95347  0
Ag  Ag2  1  0.49695696  0.59038470  0.68415696  1  0  0.471541  0  1.474991  0  0  0.330487  0  1.924942  0  0  0.351479  0  1.8819  0  0  0.456416  0.317883  0  1.953483  0
Ag  Ag3  1  0.50304302  0.09038493  0.81584326  1  0  0.471505  0  1.474957  0  0  0.330502  0  1.924928  0  0  0.351494  0  1.881885  0  0  0.456424  0.3179  0  1.953468  0
H  H4  1  0.11574118  0.53183519  0.05817024  1  0  0.043474  0  0.944423  0  0  0.064451  0  1.004334  0  0  0.063945  0  1.00559  0  0  0.094903  0.064788  0  1.003505  0
H  H5  1  0.88425924  0.03183455  0.44182982  1  0  0.043451  0  0.944439  0  0  0.064428  0  1.004352  0  0  0.063924  0  1.005606  0  0  0.094899  0.064766  0  1.003523  0
H  H6  1  0.88425896  0.46816553  0.94183031  1  0  0.043428  0  0.944398  0  0  0.064412  0  1.004314  0  0  0.063908  0  1.005569  0  0  0.094896  0.064748  0  1.003485  0
H  H7  1  0.11574090  0.96816437  0.55817003  1  0  0.043469  0  0.944371  0  0  0.064453  0  1.004285  0  0  0.06395  0  1.005538  0  0  0.094896  0.064787  0  1.003455  0
H  H8  1  0.45086264  0.45043526  0.08444884  1  0  0.060875  0  0.923642  0  0  0.081496  0  0.984798  0  0  0.081174  0  0.985564  0  0  0.103039  0.081715  0  0.984268  0
H  H9  1  0.54913767  0.95043514  0.41555134  1  0  0.060841  0  0.923643  0  0  0.081465  0  0.984805  0  0  0.081143  0  0.985569  0  0  0.10303  0.081684  0  0.984276  0
H  H10  1  0.54913974  0.54956546  0.91555175  1  0  0.060872  0  0.92362  0  0  0.081499  0  0.98478  0  0  0.081177  0  0.985545  0  0  0.103046  0.081718  0  0.98425  0
H  H11  1  0.45086248  0.04956468  0.58444851  1  0  0.06087  0  0.923659  0  0  0.081498  0  0.984816  0  0  0.081177  0  0.985579  0  0  0.103036  0.081717  0  0.984285  0
H  H12  1  0.63339112  0.61813040  0.19031196  1  0  0.046277  0  0.968534  0  0  0.062998  0  1.03875  0  0  0.063422  0  1.037959  0  0  0.094732  0.062549  0  1.039565  0
H  H13  1  0.36660929  0.11812973  0.30968882  1  0  0.04625  0  0.968505  0  0  0.062981  0  1.038731  0  0  0.063407  0  1.037936  0  0  0.094705  0.06253  0  1.039547  0
H  H14  1  0.36660903  0.38187032  0.80968858  1  0  0.046266  0  0.968496  0  0  0.062986  0  1.038712  0  0  0.063412  0  1.037918  0  0  0.094708  0.062535  0  1.039529  0
H  H15  1  0.63339086  0.88187009  0.69031172  1  0  0.04628  0  0.968537  0  0  0.063004  0  1.038743  0  0  0.063429  0  1.03795  0  0  0.094734  0.062555  0  1.039558  0
H  H16  1  0.56745756  0.66217609  0.07213002  1  0  0.05867  0  0.953679  0  0  0.070411  0  1.027489  0  0  0.070691  0  1.02748  0  0  0.098138  0.070201  0  1.027574  0
H  H17  1  0.43254060  0.16217548  0.42787004  1  0  0.058642  0  0.953682  0  0  0.070392  0  1.027501  0  0  0.070673  0  1.027491  0  0  0.098138  0.070183  0  1.027585  0
H  H18  1  0.43254036  0.33782373  0.92786979  1  0  0.058652  0  0.95368  0  0  0.070394  0  1.027487  0  0  0.070674  0  1.027478  0  0  0.098134  0.070185  0  1.027572  0
H  H19  1  0.56745955  0.83782434  0.57213051  1  0  0.058683  0  0.953673  0  0  0.07042  0  1.027483  0  0  0.070701  0  1.027474  0  0  0.098143  0.070211  0  1.027568  0
H  H20  1  0.05294542  0.38667123  0.17489557  1  0  0.26919  0  0.963703  0  0  0.252922  0  1.037855  0  0  0.258751  0  1.033189  0  0  0.279801  0.248734  0  1.041348  0
H  H21  1  0.94705267  0.88667105  0.32510384  1  0  0.269172  0  0.963739  0  0  0.252904  0  1.037888  0  0  0.258729  0  1.033226  0  0  0.2798  0.248716  0  1.04138  0
H  H22  1  0.94705249  0.61332859  0.82510353  1  0  0.269134  0  0.963762  0  0  0.252848  0  1.037924  0  0  0.258673  0  1.033263  0  0  0.279784  0.24866  0  1.041415  0
H  H23  1  0.05294525  0.11332877  0.67489596  1  0  0.269141  0  0.96375  0  0  0.252853  0  1.037915  0  0  0.258679  0  1.033252  0  0  0.279792  0.248665  0  1.041408  0
H  H24  1  0.16682078  0.70786289  0.22441969  1  0  0.258462  0  0.988379  0  0  0.239566  0  1.064599  0  0  0.245856  0  1.060358  0  0  0.271909  0.235063  0  1.067657  0
H  H25  1  0.83317736  0.20786217  0.27558038  1  0  0.258466  0  0.988378  0  0  0.239576  0  1.064587  0  0  0.245865  0  1.060349  0  0  0.271915  0.235074  0  1.067645  0
H  H26  1  0.83317936  0.29213783  0.77558085  1  0  0.258484  0  0.988349  0  0  0.239599  0  1.064553  0  0  0.245888  0  1.060315  0  0  0.271948  0.235097  0  1.067611  0
H  H27  1  0.16682055  0.79213765  0.72442013  1  0  0.258466  0  0.988341  0  0  0.239578  0  1.064552  0  0  0.245868  0  1.060311  0  0  0.271923  0.235075  0  1.06761  0
H  H28  1  0.10216987  0.74759113  0.11219530  1  0  0.265027  0  0.976768  0  0  0.246372  0  1.052875  0  0  0.252456  0  1.048959  0  0  0.271184  0.242093  0  1.055587  0
H  H29  1  0.89783049  0.24759137  0.38780482  1  0  0.265028  0  0.976767  0  0  0.246372  0  1.052878  0  0  0.252457  0  1.04896  0  0  0.271185  0.242094  0  1.05559  0
H  H30  1  0.89783028  0.25240869  0.88780455  1  0  0.26501  0  0.976772  0  0  0.24636  0  1.052877  0  0  0.252445  0  1.04896  0  0  0.27118  0.242083  0  1.055588  0
H  H31  1  0.10216965  0.75240935  0.61219503  1  0  0.265009  0  0.976768  0  0  0.246358  0  1.052875  0  0  0.252443  0  1.048957  0  0  0.271182  0.242081  0  1.055585  0
H  H32  1  0.03201140  0.51859756  0.22580913  1  0  0.261953  0  0.962476  0  0  0.250751  0  1.028036  0  0  0.255742  0  1.024612  0  0  0.279425  0.247198  0  1.030514  0
H  H33  1  0.96798903  0.01859774  0.27419023  1  0  0.261953  0  0.962469  0  0  0.250751  0  1.028023  0  0  0.255743  0  1.024594  0  0  0.279423  0.247198  0  1.030499  0
H  H34  1  0.96798875  0.48140226  0.77419072  1  0  0.261948  0  0.962465  0  0  0.250747  0  1.028021  0  0  0.255739  0  1.024595  0  0  0.279434  0.247194  0  1.030498  0
H  H35  1  0.03201111  0.98140208  0.72580962  1  0  0.261965  0  0.962429  0  0  0.250763  0  1.027992  0  0  0.255753  0  1.024567  0  0  0.279433  0.24721  0  1.03047  0
C  C36  1  0.74830162  0.60560339  0.46069681  1  0  0.35777  0  3.859355  0  0  0.320355  0  4.152711  0  0  0.322933  0  4.174743  0  0  0.301093  0.318733  0  4.138288  0
C  C37  1  0.25169656  0.10560350  0.03930322  1  0  0.357766  0  3.859383  0  0  0.320352  0  4.152732  0  0  0.32293  0  4.174762  0  0  0.301101  0.31873  0  4.138308  0
C  C38  1  0.25169630  0.39439643  0.53930369  1  0  0.357869  0  3.85922  0  0  0.32037  0  4.152693  0  0  0.322948  0  4.174728  0  0  0.301118  0.318749  0  4.138268  0
C  C39  1  0.74830359  0.89439632  0.96069663  1  0  0.357763  0  3.859368  0  0  0.320375  0  4.152686  0  0  0.322953  0  4.174718  0  0  0.301129  0.318753  0  4.138262  0
C  C40  1  0.29549936  0.51530829  0.11271547  1  0  0.052259  0  3.658401  0  0  -0.003287  0  3.916737  0  0  -0.000117  0  3.931967  0  0  -0.079756  -0.005296  0  3.905971  0
C  C41  1  0.70450330  0.01530764  0.38728463  1  0  0.052345  0  3.658443  0  0  -0.003188  0  3.916768  0  0  -1.8e-05  0  3.931996  0  0  -0.079702  -0.005199  0  3.906  0
C  C42  1  0.70450078  0.48469242  0.88728438  1  0  0.052284  0  3.658399  0  0  -0.003284  0  3.916757  0  0  -0.000116  0  3.931985  0  0  -0.07976  -0.005291  0  3.905988  0
C  C43  1  0.29549908  0.98469218  0.61271596  1  0  0.052228  0  3.658459  0  0  -0.003343  0  3.916815  0  0  -0.000176  0  3.932044  0  0  -0.079759  -0.005348  0  3.906043  0
C  C44  1  0.45828486  0.63270852  0.13453207  1  0  0.052086  0  3.661135  0  0  -0.002358  0  3.916607  0  0  0.001724  0  3.93094  0  0  -0.084978  -0.005157  0  3.906633  0
C  C45  1  0.54171554  0.13270787  0.36546871  1  0  0.052123  0  3.661137  0  0  -0.002357  0  3.916673  0  0  0.001725  0  3.931003  0  0  -0.084992  -0.005152  0  3.906695  0
C  C46  1  0.54171529  0.36729220  0.86546847  1  0  0.052085  0  3.661125  0  0  -0.002333  0  3.916592  0  0  0.00175  0  3.930922  0  0  -0.084971  -0.005131  0  3.906617  0
C  C47  1  0.45828461  0.86729195  0.63453253  1  0  0.052045  0  3.661176  0  0  -0.002372  0  3.916633  0  0  0.001711  0  3.930965  0  0  -0.084989  -0.005172  0  3.906661  0
N  N48  1  0.17538265  0.46052549  0.19630348  1  0  -0.613288  0  3.191384  0  0  -0.550181  0  3.452942  0  0  -0.569348  0  3.452575  0  0  -0.646233  -0.536561  0  3.452385  0
N  N49  1  0.82461765  0.96052441  0.30369600  1  0  -0.613245  0  3.191296  0  0  -0.550173  0  3.452925  0  0  -0.569349  0  3.452585  0  0  -0.646239  -0.536552  0  3.45237  0
N  N50  1  0.82461750  0.53947522  0.80369636  1  0  -0.613211  0  3.19136  0  0  -0.550076  0  3.452973  0  0  -0.569252  0  3.452639  0  0  -0.646224  -0.536455  0  3.452415  0
N  N51  1  0.17538250  0.03947451  0.69630385  1  0  -0.613196  0  3.191299  0  0  -0.550082  0  3.452936  0  0  -0.569259  0  3.452605  0  0  -0.646225  -0.536461  0  3.452376  0
N  N52  1  0.26609651  0.73080852  0.16419236  1  0  -0.613584  0  3.197968  0  0  -0.541682  0  3.453611  0  0  -0.563876  0  3.454866  0  0  -0.650733  -0.525713  0  3.451747  0
N  N53  1  0.73390163  0.23080875  0.33580771  1  0  -0.613615  0  3.197931  0  0  -0.541693  0  3.453587  0  0  -0.563888  0  3.45484  0  0  -0.650743  -0.525725  0  3.451721  0
N  N54  1  0.73390364  0.26919130  0.83580749  1  0  -0.613582  0  3.197916  0  0  -0.541697  0  3.453572  0  0  -0.563891  0  3.454824  0  0  -0.650762  -0.525727  0  3.451708  0
N  N55  1  0.26609628  0.76919107  0.66419279  1  0  -0.613571  0  3.197919  0  0  -0.541665  0  3.453552  0  0  -0.563859  0  3.454806  0  0  -0.650747  -0.525695  0  3.451688  0
N  N56  1  0.78790832  0.57867672  0.37045707  1  0  -0.32393  0  3.144042  0  0  -0.279532  0  3.456381  0  0  -0.289798  0  3.46713  0  0  -0.23352  -0.273183  0  3.449826  0
N  N57  1  0.21208986  0.07867687  0.12954296  1  0  -0.32393  0  3.144098  0  0  -0.279528  0  3.456433  0  0  -0.289791  0  3.46718  0  0  -0.233498  -0.273177  0  3.449877  0
N  N58  1  0.21208960  0.42132310  0.62954343  1  0  -0.323901  0  3.144081  0  0  -0.279473  0  3.456432  0  0  -0.289739  0  3.467181  0  0  -0.233463  -0.273123  0  3.449876  0
N  N59  1  0.78791028  0.92132385  0.87045689  1  0  -0.323946  0  3.144117  0  0  -0.27956  0  3.45645  0  0  -0.289823  0  3.467195  0  0  -0.233504  -0.273209  0  3.449895  0
N  N60  1  0.97512171  0.66193389  0.34250012  1  0  -0.097375  0  3.016614  0  0  -0.073398  0  3.309402  0  0  -0.073959  0  3.318721  0  0  -0.094304  -0.073433  0  3.304201  0
N  N61  1  0.02487645  0.16193407  0.15749993  1  0  -0.097387  0  3.016656  0  0  -0.073424  0  3.309452  0  0  -0.073988  0  3.31877  0  0  -0.094329  -0.073461  0  3.30425  0
N  N62  1  0.02487620  0.33806503  0.65750038  1  0  -0.09743  0  3.016701  0  0  -0.073455  0  3.309487  0  0  -0.074017  0  3.318805  0  0  -0.094326  -0.073492  0  3.304286  0
N  N63  1  0.97512370  0.83806575  0.84249992  1  0  -0.097391  0  3.016703  0  0  -0.073422  0  3.309496  0  0  -0.073985  0  3.318812  0  0  -0.094322  -0.073459  0  3.304295  0
N  N64  1  0.04671739  0.73751625  0.41326991  1  0  -0.100978  0  2.937732  0  0  -0.089413  0  3.233636  0  0  -0.090526  0  3.243326  0  0  -0.103641  -0.08886  0  3.227979  0
N  N65  1  0.95328075  0.23751634  0.08673017  1  0  -0.100965  0  2.93772  0  0  -0.089401  0  3.233613  0  0  -0.090515  0  3.243302  0  0  -0.103645  -0.088847  0  3.227954  0
N  N66  1  0.95328053  0.26248357  0.58673060  1  0  -0.100937  0  2.937744  0  0  -0.089369  0  3.233633  0  0  -0.090483  0  3.243324  0  0  -0.103653  -0.088817  0  3.227976  0
N  N67  1  0.04671717  0.76248258  0.91326894  1  0  -0.100952  0  2.937731  0  0  -0.089394  0  3.233627  0  0  -0.090506  0  3.243316  0  0  -0.10365  -0.08884  0  3.227969  0
N  N68  1  0.90750979  0.70354278  0.48827698  1  0  -0.294694  0  2.970507  0  0  -0.264806  0  3.256243  0  0  -0.272222  0  3.269247  0  0  -0.197102  -0.260252  0  3.248172  0
N  N69  1  0.09249059  0.20354379  0.01172313  1  0  -0.294693  0  2.970511  0  0  -0.264818  0  3.256244  0  0  -0.272233  0  3.269247  0  0  -0.197111  -0.260262  0  3.248172  0
N  N70  1  0.09248813  0.29645704  0.51172352  1  0  -0.29477  0  2.970461  0  0  -0.264855  0  3.256232  0  0  -0.27227  0  3.269238  0  0  -0.197103  -0.260298  0  3.248161  0
N  N71  1  0.90750956  0.79645693  0.98827672  1  0  -0.294701  0  2.970476  0  0  -0.26481  0  3.256195  0  0  -0.272225  0  3.2692  0  0  -0.197096  -0.260253  0  3.248123  0
N  N72  1  0.57851950  0.54189857  0.52016693  1  0  -0.153729  0  3.083969  0  0  -0.115174  0  3.380591  0  0  -0.108344  0  3.376478  0  0  -0.160345  -0.120533  0  3.384225  0
N  N73  1  0.42148049  0.04189888  0.97983328  1  0  -0.153654  0  3.083914  0  0  -0.115118  0  3.380543  0  0  -0.108287  0  3.376428  0  0  -0.160332  -0.120477  0  3.384176  0
N  N74  1  0.42147842  0.45810125  0.47983287  1  0  -0.153699  0  3.083893  0  0  -0.11515  0  3.380581  0  0  -0.108316  0  3.376468  0  0  -0.160422  -0.120505  0  3.384214  0
N  N75  1  0.57852188  0.95810184  0.02016661  1  0  -0.153684  0  3.083932  0  0  -0.115168  0  3.380599  0  0  -0.108338  0  3.376485  0  0  -0.160419  -0.120526  0  3.384232  0
