# generated using pymatgen
data_NiH10C12(SN2)2
_symmetry_space_group_name_H-M   'P 1'
_cell_length_a   8.43995103
_cell_length_b   8.42970003
_cell_length_c   15.27813445
_cell_angle_alpha   93.21699875
_cell_angle_beta   96.17127290
_cell_angle_gamma   114.62306108
_symmetry_Int_Tables_number   1
_chemical_formula_structural   NiH10C12(SN2)2
_chemical_formula_sum   'Ni3 H30 C36 S6 N12'
_cell_volume   976.27259257
_cell_formula_units_Z   3
loop_
 _symmetry_equiv_pos_site_id
 _symmetry_equiv_pos_as_xyz
  1  'x, y, z'
loop_
 _atom_site_type_symbol
 _atom_site_label
 _atom_site_symmetry_multiplicity
 _atom_site_fract_x
 _atom_site_fract_y
 _atom_site_fract_z
 _atom_site_occupancy
 _atom_site_hle17_ddec_charge
 _atom_site_hle17_ddec_spin_density
 _atom_site_hle17_ddec_sum_bond_order
 _atom_site_hle17_magmom
 _atom_site_hse06_10hf_ddec_charge
 _atom_site_hse06_10hf_ddec_spin_density
 _atom_site_hse06_10hf_ddec_sum_bond_order
 _atom_site_hse06_10hf_magmom
 _atom_site_hse06_ddec_charge
 _atom_site_hse06_ddec_spin_density
 _atom_site_hse06_ddec_sum_bond_order
 _atom_site_hse06_magmom
 _atom_site_pbe_cm5_charge
 _atom_site_pbe_ddec_charge
 _atom_site_pbe_ddec_spin_density
 _atom_site_pbe_ddec_sum_bond_order
 _atom_site_pbe_magmom
Ni  Ni0  1  0.00000526  0.00000394  0.00000436  1  0.613887  1.795773  2.422665  1.364  0.639648  1.808282  2.81593  1.496  0.740672  1.925477  2.735285  1.624  0.59856  0.574307  1.690945  2.869214  1.377
Ni  Ni1  1  0.32667196  0.32179469  0.33619985  1  0.613316  -1.718735  2.435668  -1.372  0.637659  -1.762992  2.831577  -1.501  0.738114  -1.858894  2.750686  -1.625  0.598215  0.574239  -1.673018  2.884108  -1.394
Ni  Ni2  1  0.67333222  0.67819880  0.66380603  1  0.613342  -1.718719  2.435561  -1.372  0.637692  -1.76298  2.831456  -1.501  0.738076  -1.858885  2.750699  -1.625  0.598265  0.574282  -1.673016  2.883982  -1.394
H  H3  1  0.37331844  0.24641311  0.08379078  1  0.079284  0.000882  0.959955  0.001  0.086355  0.000694  1.025513  0.001  0.087222  0.000504  1.025175  0.001  0.111828  0.085621  0.000877  1.026011  0.001
H  H4  1  0.62668189  0.75359614  0.91620550  1  0.079283  0.000881  0.959944  0.001  0.086351  0.000693  1.025511  0.001  0.087218  0.000503  1.025172  0.001  0.111828  0.085614  0.000877  1.026008  0.001
H  H5  1  0.67879051  0.35861968  0.04450404  1  0.095869  0.000434  0.982836  0.0  0.101253  0.000505  1.052589  0.0  0.104119  0.000336  1.052533  0.0  0.096882  0.099224  0.000665  1.052763  0.001
H  H6  1  0.32120326  0.64139093  0.95548926  1  0.095759  0.000433  0.982887  0.0  0.101155  0.000505  1.052652  0.0  0.104014  0.000336  1.052598  0.0  0.096882  0.09913  0.000665  1.052828  0.001
H  H7  1  0.72408829  0.24510229  0.89882534  1  0.093549  0.000449  0.945868  0.001  0.105077  0.000155  1.00629  0.0  0.107538  0.000103  1.004124  0.0  0.102112  0.103187  0.000205  1.008137  0.0
H  H8  1  0.27590957  0.75491224  0.10116833  1  0.093549  0.000451  0.945873  0.001  0.104979  0.000154  1.006398  0.0  0.107437  0.000103  1.004237  0.0  0.102086  0.10309  0.000205  1.008239  0.0
H  H9  1  0.46060462  0.02102412  0.79794379  1  0.093164  0.000249  0.989848  0.0  0.098501  0.000249  1.06017  0.0  0.101777  0.000185  1.05973  0.0  0.093973  0.096151  0.000318  1.060626  0.001
H  H10  1  0.53939520  0.97898116  0.20204776  1  0.093128  0.000247  0.989959  0.0  0.098398  0.000249  1.060345  0.0  0.101686  0.000185  1.059897  0.0  0.093914  0.096049  0.000318  1.060795  0.001
H  H11  1  0.16350131  0.92389370  0.84706789  1  0.07116  0.000742  0.976049  0.001  0.078225  0.000587  1.045456  0.001  0.079322  0.000413  1.044569  0.001  0.108974  0.077343  0.000757  1.046312  0.001
H  H12  1  0.83649741  0.07610637  0.15293130  1  0.071322  0.000741  0.976006  0.001  0.07834  0.000587  1.045446  0.001  0.079447  0.000413  1.044534  0.001  0.109018  0.077452  0.000756  1.046313  0.001
H  H13  1  0.95390835  0.03928445  0.28560031  1  0.071797  -0.000729  0.972635  -0.001  0.078316  -0.000585  1.042418  -0.001  0.079419  -0.000411  1.041467  -0.001  0.109039  0.077462  -0.00076  1.043286  -0.001
H  H14  1  0.04609232  0.96070640  0.71440135  1  0.071778  -0.000729  0.972567  -0.001  0.07831  -0.000585  1.042347  -0.001  0.079414  -0.000411  1.041395  -0.001  0.109026  0.077454  -0.00076  1.043217  -0.001
H  H15  1  0.67217521  0.91238205  0.35035829  1  0.093833  -0.000381  0.986624  0.0  0.099196  -0.000497  1.056939  0.0  0.102574  -0.000331  1.056273  0.0  0.094185  0.096819  -0.000653  1.057509  -0.001
H  H16  1  0.32782593  0.08761539  0.64964424  1  0.093771  -0.00038  0.986667  0.0  0.099153  -0.000497  1.056972  0.0  0.10253  -0.000331  1.056308  0.0  0.094159  0.096775  -0.000653  1.057541  -0.001
H  H17  1  0.66662460  0.03495443  0.50332820  1  0.093807  -0.000583  0.943667  -0.001  0.106506  -0.00047  1.002249  0.0  0.108859  -0.00033  1.000329  0.0  0.102672  0.104654  -0.000604  1.003993  0.0
H  H18  1  0.33337706  0.96504694  0.49667186  1  0.093809  -0.00058  0.943597  -0.001  0.106556  -0.00047  1.002125  0.0  0.108869  -0.00033  1.000254  0.0  0.102703  0.104706  -0.000604  1.003869  0.0
H  H19  1  0.94302648  0.27622946  0.58482662  1  0.095807  -0.000419  0.983992  0.0  0.100151  -0.000473  1.055154  0.0  0.103249  -0.000307  1.054996  0.0  0.096193  0.098016  -0.000634  1.055297  -0.001
H  H20  1  0.05696630  0.72377065  0.41517156  1  0.095785  -0.000418  0.984073  0.0  0.100151  -0.000473  1.055215  0.0  0.10325  -0.000307  1.055057  0.0  0.096193  0.098015  -0.000634  1.055365  -0.001
H  H21  1  0.21366711  0.38676509  0.51087499  1  0.080497  -0.000523  0.960643  -0.001  0.088993  -0.000481  1.023621  -0.001  0.089947  -0.000315  1.02321  -0.001  0.112965  0.088217  -0.000645  1.02413  -0.001
H  H22  1  0.78633290  0.61322972  0.48912740  1  0.080471  -0.000522  0.960702  -0.001  0.088973  -0.000481  1.023678  -0.001  0.089922  -0.000315  1.023271  -0.001  0.112962  0.088197  -0.000645  1.024189  -0.001
H  H23  1  0.66067407  0.27307669  0.35525884  1  0.071305  -0.00077  0.98202  -0.001  0.078221  -0.000667  1.050674  -0.001  0.079586  -0.00047  1.050019  -0.001  0.107176  0.077094  -0.000862  1.051446  -0.001
H  H24  1  0.33932821  0.72692335  0.64474057  1  0.071321  -0.000768  0.982024  -0.001  0.078239  -0.000667  1.05067  -0.001  0.079604  -0.00047  1.050015  -0.001  0.107188  0.07711  -0.000862  1.051445  -0.001
H  H25  1  0.95339497  0.38917583  0.30063346  1  0.107388  -0.000104  0.986028  0.0  0.113312  -0.000241  1.051248  0.0  0.115717  -0.00015  1.052026  0.0  0.101979  0.111585  -0.00033  1.050908  -0.001
H  H26  1  0.04660257  0.61082423  0.69936304  1  0.107418  -0.000104  0.986127  0.0  0.113356  -0.000241  1.051326  0.0  0.11576  -0.00015  1.052103  0.0  0.102008  0.111626  -0.00033  1.050987  -0.001
H  H27  1  0.01341233  0.61004250  0.19084340  1  0.091931  -0.000286  0.945009  -0.001  0.104166  -3.1e-05  1.004426  0.0  0.106716  -1.5e-05  1.002049  0.0  0.102648  0.102194  -5.4e-05  1.006467  0.0
H  H28  1  0.98657937  0.38995232  0.80914998  1  0.091973  -0.000287  0.945083  -0.001  0.104213  -3.1e-05  1.004483  0.0  0.10676  -1.5e-05  1.002115  0.0  0.102661  0.102238  -5.4e-05  1.006526  0.0
H  H29  1  0.49449147  0.58211655  0.20439400  1  0.073813  -0.000733  0.970283  -0.001  0.080062  -0.000633  1.038587  -0.001  0.081508  -0.000441  1.037738  -0.001  0.108454  0.078925  -0.000827  1.039529  -0.001
H  H30  1  0.50550141  0.41787831  0.79560665  1  0.073738  -0.000735  0.970195  -0.001  0.07998  -0.000634  1.038529  -0.001  0.081426  -0.000441  1.03768  -0.001  0.108402  0.078843  -0.000827  1.03947  -0.001
H  H31  1  0.77814594  0.70678059  0.14112604  1  0.10678  -0.000484  0.988153  0.0  0.113296  -0.00046  1.052213  0.0  0.11555  -0.000337  1.05325  0.0  0.102357  0.111672  -0.000582  1.051701  -0.001
H  H32  1  0.22183935  0.29320770  0.85886872  1  0.106813  -0.000485  0.988178  0.0  0.113296  -0.00046  1.05227  0.0  0.115549  -0.000337  1.053308  0.0  0.102354  0.11167  -0.000582  1.05175  -0.001
C  C33  1  0.17012880  0.98496254  0.18971846  1  0.272134  0.004212  3.960752  0.013  0.273182  -5.2e-05  4.272196  0.009  0.30294  -0.000349  4.285176  0.007  0.155177  0.252479  7.6e-05  4.263607  0.01
C  C34  1  0.82987578  0.01504023  0.81029753  1  0.272014  0.004205  3.960836  0.013  0.273038  -5.5e-05  4.272317  0.009  0.30279  -0.000352  4.285294  0.007  0.155228  0.252343  7.2e-05  4.26372  0.01
C  C35  1  0.14040600  0.33496696  0.14931809  1  0.264569  -0.004304  3.97209  -0.014  0.266501  0.000154  4.282647  -0.009  0.296523  0.000524  4.295335  -0.007  0.152432  0.245695  -0.000129  4.274163  -0.01
C  C36  1  0.85958177  0.66504636  0.85068082  1  0.26482  -0.004277  3.972177  -0.014  0.266744  0.000158  4.282734  -0.009  0.296765  0.000527  4.295407  -0.007  0.152623  0.245939  -0.000125  4.274254  -0.01
C  C37  1  0.53171094  0.33186228  0.52137608  1  0.27062  0.03057  3.963148  0.035  0.272187  0.003  4.277243  0.005  0.302328  0.004409  4.289988  0.007  0.154484  0.2514  0.001869  4.268709  0.004
C  C38  1  0.46829586  0.66811805  0.47863547  1  0.27057  0.03056  3.96315  0.035  0.272149  0.002997  4.277215  0.005  0.302284  0.004405  4.289954  0.007  0.154445  0.251364  0.001866  4.268683  0.004
C  C39  1  0.39818969  0.20083008  0.02084707  1  0.119916  -0.00857  3.689023  -0.011  0.094887  -0.001642  3.938516  -0.003  0.103616  -0.00227  3.959  -0.004  0.044301  0.088957  -0.001242  3.92487  -0.002
C  C40  1  0.60181126  0.79917785  0.97914855  1  0.119939  -0.008568  3.688915  -0.011  0.0949  -0.001642  3.938418  -0.003  0.103629  -0.002268  3.958898  -0.004  0.044306  0.088979  -0.001242  3.924766  -0.002
C  C41  1  0.56784497  0.26268371  0.99870156  1  -0.120583  0.010136  3.739179  0.011  -0.13067  0.003383  3.98521  0.004  -0.137468  0.00321  4.00555  0.004  -0.086433  -0.126231  0.003748  3.971655  0.004
C  C42  1  0.43215237  0.73732688  0.00129327  1  -0.120349  0.01014  3.738955  0.011  -0.130448  0.003384  3.984966  0.004  -0.137235  0.00321  4.005297  0.004  -0.086346  -0.126012  0.003748  3.971412  0.004
C  C43  1  0.59253130  0.19960840  0.91745724  1  0.005931  -0.009842  3.703856  -0.011  -0.011792  -0.002839  3.946165  -0.003  -0.006878  -0.002881  3.962675  -0.003  -0.066748  -0.015158  -0.003088  3.935232  -0.003
C  C44  1  0.40746904  0.80040082  0.08253380  1  0.005798  -0.009849  3.703877  -0.011  -0.011823  -0.002838  3.946163  -0.003  -0.006908  -0.00288  3.962674  -0.003  -0.066824  -0.015187  -0.003087  3.935225  -0.003
C  C45  1  0.44624647  0.07573664  0.86137303  1  -0.124507  0.009601  3.735431  0.011  -0.131146  0.002962  3.976643  0.004  -0.138992  0.002899  3.99734  0.004  -0.088454  -0.125933  0.003247  3.962825  0.004
C  C46  1  0.55374864  0.92426606  0.13862209  1  -0.124285  0.009614  3.735277  0.011  -0.13084  0.002964  3.976421  0.004  -0.138699  0.002899  3.997115  0.004  -0.088307  -0.125625  0.003247  3.962596  0.004
C  C47  1  0.28114908  0.02086698  0.88844863  1  0.1096  -0.008619  3.711594  -0.011  0.083493  -0.001751  3.962774  -0.003  0.092058  -0.002348  3.983278  -0.004  0.040008  0.077656  -0.001382  3.949182  -0.003
C  C48  1  0.71885905  0.97913827  0.11154931  1  0.10941  -0.008623  3.711358  -0.011  0.083316  -0.001753  3.96258  -0.003  0.09188  -0.002348  3.983092  -0.004  0.039961  0.077479  -0.001383  3.948988  -0.003
C  C49  1  0.94520975  0.08876414  0.35143127  1  0.111568  0.00928  3.710214  0.011  0.085514  0.001803  3.961343  0.003  0.094144  0.002475  3.981963  0.004  0.040646  0.079665  0.001378  3.94768  0.002
C  C50  1  0.05479211  0.91122670  0.64857112  1  0.111579  0.009274  3.710096  0.011  0.085478  0.001803  3.961237  0.003  0.09411  0.002476  3.981851  0.004  0.04063  0.07963  0.001379  3.947566  0.002
C  C51  1  0.78909454  0.01898167  0.38767916  1  -0.124628  -0.009588  3.734309  -0.011  -0.131339  -0.003305  3.975755  -0.004  -0.139115  -0.003089  3.996217  -0.004  -0.088005  -0.126178  -0.003745  3.962041  -0.005
C  C52  1  0.21090851  0.98100915  0.61232068  1  -0.124567  -0.009583  3.734405  -0.011  -0.131281  -0.003305  3.975838  -0.004  -0.139055  -0.003088  3.996291  -0.004  -0.087967  -0.126123  -0.003745  3.962123  -0.005
C  C53  1  0.78619691  0.08653497  0.47266930  1  0.007056  0.010605  3.702263  0.011  -0.011495  0.002848  3.944931  0.003  -0.006666  0.002947  3.961675  0.003  -0.066882  -0.014817  0.003078  3.933893  0.003
C  C54  1  0.21379773  0.91346119  0.52733214  1  0.007081  0.010593  3.702362  0.011  -0.011493  0.002846  3.94502  0.003  -0.006636  0.002946  3.96178  0.003  -0.066874  -0.01481  0.003077  3.933976  0.003
C  C55  1  0.93997682  0.22060211  0.51827671  1  -0.119101  -0.009718  3.734141  -0.011  -0.128683  -0.003239  3.980222  -0.004  -0.135686  -0.003066  4.000377  -0.004  -0.086187  -0.124113  -0.003629  3.966804  -0.005
C  C56  1  0.06002423  0.77940057  0.48172138  1  -0.119146  -0.009717  3.734175  -0.011  -0.128776  -0.003239  3.980317  -0.004  -0.135776  -0.003067  4.000458  -0.004  -0.086213  -0.124208  -0.00363  3.966901  -0.005
C  C57  1  0.09067246  0.28291891  0.47726576  1  0.122465  0.009435  3.684931  0.011  0.096815  0.001927  3.932576  0.003  0.105533  0.002568  3.953055  0.004  0.045043  0.090901  0.001539  3.919025  0.002
C  C58  1  0.90932280  0.71707592  0.52273372  1  0.122636  0.009432  3.684821  0.011  0.096959  0.001927  3.932494  0.003  0.105682  0.002568  3.952962  0.004  0.045095  0.091043  0.001539  3.918948  0.002
C  C59  1  0.69238276  0.36970023  0.30793388  1  0.117016  0.009  3.699075  0.01  0.092687  0.001813  3.944476  0.003  0.101346  0.002428  3.964363  0.004  0.040596  0.086811  0.001452  3.93151  0.002
C  C60  1  0.30761653  0.63030115  0.69206538  1  0.117076  0.008998  3.699011  0.01  0.092758  0.001812  3.944405  0.003  0.101419  0.002427  3.964288  0.004  0.040641  0.086884  0.001453  3.931443  0.002
C  C61  1  0.85468970  0.43433092  0.27724384  1  -0.125794  -0.008844  3.726346  -0.01  -0.13208  -0.00278  3.965994  -0.004  -0.139244  -0.00269  3.986225  -0.003  -0.088054  -0.127387  -0.003073  3.952533  -0.004
C  C62  1  0.14530314  0.56566654  0.72275230  1  -0.125911  -0.00885  3.726454  -0.01  -0.132205  -0.002779  3.966098  -0.004  -0.139369  -0.00269  3.986329  -0.003  -0.088113  -0.127512  -0.003073  3.952638  -0.004
C  C63  1  0.88796016  0.55732986  0.21632335  1  0.000874  0.01018  3.721151  0.011  -0.017398  0.002973  3.964651  0.003  -0.012271  0.003002  3.98048  0.003  -0.06804  -0.020943  0.003264  3.954223  0.003
C  C64  1  0.11203092  0.44266629  0.78367265  1  0.000854  0.010192  3.721188  0.011  -0.017422  0.002972  3.96469  0.003  -0.012294  0.003002  3.980511  0.003  -0.068031  -0.020969  0.003264  3.954262  0.003
C  C65  1  0.59922799  0.54206427  0.22350291  1  0.115054  0.008963  3.700893  0.01  0.091771  0.001757  3.947575  0.003  0.10043  0.002391  3.967455  0.003  0.041211  0.08584  0.001396  3.93451  0.002
C  C66  1  0.40076541  0.45793453  0.77649789  1  0.115146  0.008972  3.700764  0.01  0.091872  0.001756  3.947467  0.003  0.100531  0.002391  3.967347  0.003  0.041254  0.08594  0.001396  3.934403  0.002
C  C67  1  0.75731387  0.61148056  0.18876686  1  -0.12646  -0.009145  3.728579  -0.011  -0.13316  -0.003022  3.968136  -0.004  -0.140294  -0.002901  3.98846  -0.004  -0.088145  -0.128446  -0.003343  3.954566  -0.004
C  C68  1  0.24267782  0.38851429  0.81123175  1  -0.126541  -0.00915  3.728471  -0.011  -0.133224  -0.003021  3.96805  -0.004  -0.140354  -0.002901  3.988369  -0.004  -0.08819  -0.128502  -0.003343  3.954474  -0.004
S  S69  1  0.28089153  0.01624133  0.28815295  1  -0.243955  -0.076743  2.247571  -0.087  -0.269098  -0.049262  2.600468  -0.056  -0.300267  -0.035251  2.593546  -0.041  -0.099657  -0.24765  -0.059666  2.605474  -0.065
S  S70  1  0.71911750  0.98374686  0.71185372  1  -0.243987  -0.07676  2.247305  -0.087  -0.269154  -0.049273  2.600238  -0.056  -0.300319  -0.035259  2.593329  -0.041  -0.099719  -0.247708  -0.059676  2.60524  -0.065
S  S71  1  0.05901550  0.31364249  0.04550645  1  -0.23942  0.083572  2.227655  0.09  -0.267891  0.050437  2.579842  0.056  -0.299484  0.036262  2.573919  0.04  -0.100957  -0.245646  0.060873  2.584044  0.066
S  S72  1  0.94099499  0.68636277  0.95449492  1  -0.239532  0.0836  2.227249  0.09  -0.267989  0.050453  2.579388  0.056  -0.299591  0.036273  2.573467  0.04  -0.101012  -0.245758  0.060892  2.583629  0.066
S  S73  1  0.63542922  0.37060616  0.62195267  1  -0.244022  -0.083725  2.243002  -0.101  -0.272898  -0.050439  2.595258  -0.06  -0.304511  -0.034174  2.588192  -0.042  -0.102965  -0.250834  -0.063701  2.600098  -0.074
S  S74  1  0.36457671  0.62938865  0.37805662  1  -0.243979  -0.083749  2.242926  -0.101  -0.272863  -0.050451  2.595168  -0.06  -0.304493  -0.034183  2.588098  -0.042  -0.102892  -0.250812  -0.063717  2.600041  -0.074
N  N75  1  0.08658261  0.96044801  0.11883178  1  -0.479861  0.013559  3.071654  0.018  -0.467054  0.014287  3.376185  0.018  -0.501303  0.014584  3.381795  0.018  -0.389267  -0.444552  0.013762  3.372591  0.017
N  N76  1  0.91342369  0.03955863  0.88117330  1  -0.47961  0.01357  3.071779  0.018  -0.466747  0.014294  3.376237  0.018  -0.50099  0.014587  3.38185  0.018  -0.389243  -0.444252  0.013772  3.372636  0.017
N  N77  1  0.19814779  0.34623694  0.22476706  1  -0.479628  -0.010008  3.076211  -0.015  -0.464806  -0.012879  3.377896  -0.017  -0.498935  -0.013307  3.382957  -0.018  -0.389437  -0.442607  -0.012474  3.374581  -0.016
N  N78  1  0.80185696  0.65375786  0.77523955  1  -0.47976  -0.010052  3.07668  -0.015  -0.464917  -0.012893  3.378336  -0.017  -0.499028  -0.013317  3.38339  -0.018  -0.38957  -0.442722  -0.012489  3.375023  -0.016
N  N79  1  0.45799881  0.30793510  0.44817070  1  -0.475461  -0.087829  3.095198  -0.119  -0.465282  -0.054191  3.402142  -0.073  -0.500172  -0.0451  3.407714  -0.063  -0.388297  -0.442467  -0.061872  3.398384  -0.082
N  N80  1  0.54201059  0.69206495  0.55183699  1  -0.475516  -0.087807  3.0955  -0.119  -0.465311  -0.054183  3.402384  -0.073  -0.500191  -0.045092  3.40796  -0.063  -0.388364  -0.442497  -0.061862  3.398632  -0.082
N  N81  1  0.25653744  0.08265949  0.96655024  1  -0.285735  0.065963  3.353062  0.09  -0.238261  0.043751  3.626443  0.063  -0.271029  0.035885  3.653883  0.054  -0.32299  -0.216193  0.049865  3.608007  0.07
N  N82  1  0.74346361  0.91734319  0.03344785  1  -0.285875  0.065965  3.353152  0.09  -0.238386  0.043753  3.626562  0.063  -0.271158  0.035885  3.654005  0.054  -0.323056  -0.216317  0.049866  3.608123  0.07
N  N83  1  0.09364061  0.21918487  0.39496337  1  -0.285899  -0.063606  3.350586  -0.092  -0.238065  -0.043034  3.624204  -0.064  -0.270703  -0.03481  3.651442  -0.054  -0.32258  -0.216304  -0.049721  3.606113  -0.072
N  N84  1  0.90636301  0.78080727  0.60503786  1  -0.285982  -0.063603  3.350643  -0.092  -0.238107  -0.043037  3.624263  -0.064  -0.27073  -0.034812  3.651493  -0.054  -0.322598  -0.216345  -0.049724  3.606167  -0.072
N  N85  1  0.56637946  0.42269601  0.28204133  1  -0.282073  -0.061434  3.335081  -0.089  -0.235141  -0.041462  3.607013  -0.062  -0.267542  -0.033627  3.634031  -0.052  -0.319773  -0.213599  -0.047805  3.589078  -0.069
N  N86  1  0.43361749  0.57730278  0.71796164  1  -0.282008  -0.061438  3.335018  -0.089  -0.235083  -0.041462  3.606952  -0.062  -0.267474  -0.033627  3.633974  -0.052  -0.319753  -0.213548  -0.047805  3.589024  -0.069
