# generated using pymatgen
data_H8PbC12(SN2)2
_symmetry_space_group_name_H-M   'P 1'
_cell_length_a   6.72216278
_cell_length_b   10.85231562
_cell_length_c   10.85239595
_cell_angle_alpha   68.31631426
_cell_angle_beta   70.00977462
_cell_angle_gamma   70.00929971
_symmetry_Int_Tables_number   1
_chemical_formula_structural   H8PbC12(SN2)2
_chemical_formula_sum   'H16 Pb2 C24 S4 N8'
_cell_volume   669.95452350
_cell_formula_units_Z   2
loop_
 _symmetry_equiv_pos_site_id
 _symmetry_equiv_pos_as_xyz
  1  'x, y, z'
loop_
 _atom_site_type_symbol
 _atom_site_label
 _atom_site_symmetry_multiplicity
 _atom_site_fract_x
 _atom_site_fract_y
 _atom_site_fract_z
 _atom_site_occupancy
 _atom_site_hle17_bader_spin_density
 _atom_site_hle17_ddec_charge
 _atom_site_hle17_ddec_spin_density
 _atom_site_hle17_ddec_sum_bond_order
 _atom_site_hle17_magmom
 _atom_site_hse06_10hf_bader_charge
 _atom_site_hse06_10hf_bader_spin_density
 _atom_site_hse06_10hf_ddec_charge
 _atom_site_hse06_10hf_ddec_spin_density
 _atom_site_hse06_10hf_ddec_sum_bond_order
 _atom_site_hse06_10hf_magmom
 _atom_site_hse06_bader_spin_density
 _atom_site_hse06_ddec_charge
 _atom_site_hse06_ddec_spin_density
 _atom_site_hse06_ddec_sum_bond_order
 _atom_site_hse06_magmom
 _atom_site_pbe_bader_spin_density
 _atom_site_pbe_cm5_charge
 _atom_site_pbe_ddec_charge
 _atom_site_pbe_ddec_spin_density
 _atom_site_pbe_ddec_sum_bond_order
 _atom_site_pbe_magmom
H  H0  1  0.70096115  0.42588579  0.93581092  1  0  0.066163  0  0.961563  0  0.10633  0  0.073032  0  1.031074  0  0  0.075156  0  1.029909  0  0  0.106649  0.071742  0  1.03124  0
H  H1  1  0.20095532  0.93582894  0.42587371  1  0  0.066231  0  0.961442  0  0.106573  0  0.07307  0  1.030985  0  0  0.075229  0  1.029788  0  0  0.106668  0.071756  0  1.031169  0
H  H2  1  0.29903556  0.57411263  0.06418333  1  0  0.06624  0  0.961589  0  0.106329  0  0.073099  0  1.031108  0  0  0.075222  0  1.029946  0  0  0.106679  0.071816  0  1.031266  0
H  H3  1  0.79904079  0.06416646  0.57412175  1  0  0.066247  0  0.961419  0  0.106516  0  0.073104  0  1.030939  0  0  0.075269  0  1.029738  0  0  0.10668  0.071792  0  1.031121  0
H  H4  1  0.63435528  0.34782218  0.19203939  1  0  0.104446  0  0.979808  0  0.120376  0  0.11011  0  1.048018  0  0  0.112967  0  1.047813  0  0  0.096917  0.108873  0  1.046824  0
H  H5  1  0.13436401  0.19205664  0.34779433  1  0  0.104489  0  0.979776  0  0.120672  0  0.110163  0  1.048009  0  0  0.113022  0  1.047805  0  0  0.096961  0.108926  0  1.046808  0
H  H6  1  0.36562901  0.65218064  0.80795459  1  0  0.104393  0  0.979744  0  0.120413  0  0.110055  0  1.047993  0  0  0.112915  0  1.047782  0  0  0.096898  0.108817  0  1.0468  0
H  H7  1  0.86562116  0.80793709  0.65220835  1  0  0.104434  0  0.979769  0  0.120573  0  0.110123  0  1.048  0  0  0.112984  0  1.047791  0  0  0.096932  0.108887  0  1.046803  0
H  H8  1  0.65484921  0.09812292  0.31273730  1  0  0.098601  0  0.933935  0  0.122758  0  0.107955  0  0.995158  0  0  0.110507  0  0.993674  0  0  0.105293  0.10623  0  0.995979  0
H  H9  1  0.15485988  0.31274704  0.09809869  1  0  0.098731  0  0.933938  0  0.1226  0  0.108079  0  0.995145  0  0  0.110622  0  0.993684  0  0  0.105359  0.106352  0  0.995971  0
H  H10  1  0.34514322  0.90187769  0.68726153  1  0  0.098604  0  0.934055  0  0.122708  0  0.108011  0  0.995212  0  0  0.110562  0  0.993726  0  0  0.10531  0.106285  0  0.996035  0
H  H11  1  0.84513514  0.68724948  0.90190487  1  0  0.098717  0  0.933958  0  0.122588  0  0.108053  0  0.995192  0  0  0.110604  0  0.993712  0  0  0.105335  0.106328  0  0.996019  0
H  H12  1  0.72165052  0.94149107  0.17830933  1  0  0.116006  0  0.961406  0  0.117275  0  0.124634  0  1.024381  0  0  0.127372  0  1.023905  0  0  0.108002  0.122484  0  1.025377  0
H  H13  1  0.22165508  0.17830920  0.94147779  1  0  0.115982  0  0.961291  0  0.116751  0  0.124527  0  1.024373  0  0  0.127261  0  1.023897  0  0  0.107964  0.12238  0  1.025365  0
H  H14  1  0.27834772  0.05851139  0.82168685  1  0  0.11596  0  0.961464  0  0.117236  0  0.124597  0  1.024423  0  0  0.127334  0  1.023945  0  0  0.107977  0.12245  0  1.025413  0
H  H15  1  0.77833928  0.82168936  0.05852513  1  0  0.11595  0  0.961368  0  0.117072  0  0.124539  0  1.024395  0  0  0.127274  0  1.023921  0  0  0.107976  0.122393  0  1.025382  0
Pb  Pb16  1  0.75002214  0.33396026  0.66602706  1  0  1.067733  0  1.702658  0  1.322498  0  0.863392  0  2.139511  0  0  0.916442  0  2.107558  0  0  0.545287  0.829956  0  2.158251  0
Pb  Pb17  1  0.24999824  0.66602740  0.33397143  1  0  1.067824  0  1.702658  0  1.322657  0  0.863491  0  2.139522  0  0  0.916557  0  2.10754  0  0  0.545298  0.830063  0  2.158238  0
C  C18  1  0.69849485  0.31979977  0.99398826  1  0  0.13289  0  3.712224  0  0.3987  0  0.105024  0  3.956441  0  0  0.111224  0  3.975855  0  0  0.051738  0.101313  0  3.942757  0
C  C19  1  0.19850297  0.99399581  0.31978145  1  0  0.132788  0  3.711828  0  0.398917  0  0.104959  0  3.956053  0  0  0.111127  0  3.975463  0  0  0.051813  0.101271  0  3.942374  0
C  C20  1  0.30149338  0.68019992  0.00600892  1  0  0.13276  0  3.71205  0  0.398663  0  0.104924  0  3.956246  0  0  0.111121  0  3.975667  0  0  0.051747  0.101207  0  3.942562  0
C  C21  1  0.80149735  0.00599952  0.68021972  1  0  0.132633  0  3.712054  0  0.39888  0  0.104775  0  3.956287  0  0  0.110935  0  3.975704  0  0  0.05176  0.101085  0  3.942594  0
C  C22  1  0.66415736  0.27591471  0.13564343  1  0  -0.117071  0  3.727573  0  0.037902  0  -0.127423  0  3.974235  0  0  -0.134292  0  3.996202  0  0  -0.082234  -0.12324  0  3.958733  0
C  C23  1  0.16416143  0.13566151  0.27589367  1  0  -0.117047  0  3.727213  0  0.037424  0  -0.127424  0  3.97386  0  0  -0.134298  0  3.995832  0  0  -0.082356  -0.123242  0  3.958357  0
C  C24  1  0.33583047  0.72409108  0.86435158  1  0  -0.116906  0  3.727425  0  0.03795  0  -0.127278  0  3.974108  0  0  -0.13415  0  3.99608  0  0  -0.082252  -0.123098  0  3.958615  0
C  C25  1  0.83582702  0.86433211  0.72410753  1  0  -0.11685  0  3.727117  0  0.037553  0  -0.127218  0  3.973709  0  0  -0.13409  0  3.995688  0  0  -0.082256  -0.123035  0  3.958208  0
C  C26  1  0.67468171  0.13752303  0.20225496  1  0  0.007328  0  3.713557  0  -0.025517  0  -0.010584  0  3.962537  0  0  -0.007377  0  3.981567  0  0  -0.06462  -0.012598  0  3.949995  0
C  C27  1  0.17469073  0.20226350  0.13750329  1  0  0.007056  0  3.713719  0  -0.025241  0  -0.01085  0  3.962696  0  0  -0.00765  0  3.981724  0  0  -0.064681  -0.012865  0  3.950163  0
C  C28  1  0.32530745  0.86247964  0.79773726  1  0  0.00712  0  3.713811  0  -0.025436  0  -0.010842  0  3.962853  0  0  -0.007635  0  3.981883  0  0  -0.064696  -0.012855  0  3.95031  0
C  C29  1  0.82529875  0.79773619  0.86249734  1  0  0.007007  0  3.713784  0  -0.025277  0  -0.010913  0  3.962783  0  0  -0.007714  0  3.98182  0  0  -0.0647  -0.012928  0  3.95025  0
C  C30  1  0.71216052  0.04954919  0.12616701  1  0  -0.133345  0  3.686808  0  -0.000289  0  -0.155148  0  3.939884  0  0  -0.161585  0  3.961003  0  0  -0.077153  -0.150977  0  3.925992  0
C  C31  1  0.21216312  0.12617007  0.04953974  1  0  -0.133202  0  3.68663  0  -0.000195  0  -0.154908  0  3.939714  0  0  -0.161329  0  3.960826  0  0  -0.077083  -0.15074  0  3.92582  0
C  C32  1  0.28783662  0.95045227  0.87382788  1  0  -0.133222  0  3.686616  0  -0.000452  0  -0.154978  0  3.939731  0  0  -0.16141  0  3.960846  0  0  -0.07705  -0.150805  0  3.925833  0
C  C33  1  0.78783790  0.87383334  0.95045651  1  0  -0.133179  0  3.686756  0  -0.000492  0  -0.154936  0  3.939799  0  0  -0.161367  0  3.960912  0  0  -0.077062  -0.150763  0  3.925904  0
C  C34  1  0.73599820  0.10207952  0.98428754  1  0  0.17255  0  3.751231  0  0.486593  0  0.167192  0  3.99457  0  0  0.174095  0  4.015  0  0  0.124446  0.162795  0  3.980359  0
C  C35  1  0.23599016  0.98428725  0.10206846  1  0  0.172627  0  3.750724  0  0.440276  0  0.167235  0  3.994178  0  0  0.174126  0  4.014619  0  0  0.124531  0.162845  0  3.979965  0
C  C36  1  0.26400911  0.89791866  0.01571132  1  0  0.172716  0  3.750948  0  0.486655  0  0.167235  0  3.994506  0  0  0.174143  0  4.014933  0  0  0.124476  0.162835  0  3.9803  0
C  C37  1  0.76401244  0.01571203  0.89792624  1  0  0.172577  0  3.750997  0  0.440313  0  0.167216  0  3.994323  0  0  0.174129  0  4.014731  0  0  0.124443  0.162816  0  3.980112  0
C  C38  1  0.18165830  0.45121257  0.74874788  1  0  0.30063  0  4.01261  0  0.553324  0  0.279861  0  4.313509  0  0  0.302049  0  4.327865  0  0  0.139684  0.26451  0  4.305215  0
C  C39  1  0.68160794  0.74875878  0.45121163  1  0  0.300711  0  4.013477  0  0.553323  0  0.279944  0  4.314344  0  0  0.302125  0  4.32871  0  0  0.139631  0.264586  0  4.306055  0
C  C40  1  0.81835158  0.54877842  0.25125038  1  0  0.300669  0  4.013051  0  0.553646  0  0.279896  0  4.313948  0  0  0.302079  0  4.328309  0  0  0.13969  0.264544  0  4.305659  0
C  C41  1  0.31839355  0.25123853  0.54878585  1  0  0.300656  0  4.013575  0  0.554064  0  0.279883  0  4.314453  0  0  0.302063  0  4.328816  0  0  0.139619  0.264527  0  4.306152  0
S  S42  1  0.97220593  0.53824367  0.68346896  1  0  -0.397454  0  2.204373  0  0.036046  0  -0.349915  0  2.530156  0  0  -0.372437  0  2.52904  0  0  -0.119035  -0.334257  0  2.529266  0
S  S43  1  0.47216966  0.68347802  0.53823626  1  0  -0.397482  0  2.204847  0  0.035944  0  -0.349938  0  2.53064  0  0  -0.37244  0  2.529493  0  0  -0.119025  -0.334314  0  2.529803  0
S  S44  1  0.02780297  0.46175348  0.31653368  1  0  -0.397512  0  2.20439  0  0.03589  0  -0.349966  0  2.530178  0  0  -0.372471  0  2.529031  0  0  -0.119046  -0.33431  0  2.529289  0
S  S45  1  0.52783580  0.31652122  0.46176162  1  0  -0.39749  0  2.204668  0  0.035797  0  -0.349939  0  2.53045  0  0  -0.372444  0  2.529303  0  0  -0.119019  -0.334332  0  2.529649  0
N  N46  1  0.73442544  0.23533947  0.92024320  1  0  -0.33704  0  3.21579  0  -1.26357  0  -0.260926  0  3.460434  0  0  -0.280591  0  3.482297  0  0  -0.292654  -0.248324  0  3.445224  0
N  N47  1  0.23441473  0.92024561  0.23533694  1  0  -0.33719  0  3.215583  0  -1.263636  0  -0.261045  0  3.460243  0  0  -0.280706  0  3.482122  0  0  -0.292797  -0.248434  0  3.444992  0
N  N48  1  0.26557986  0.76465978  0.07975656  1  0  -0.337076  0  3.215558  0  -1.263577  0  -0.26092  0  3.460231  0  0  -0.280583  0  3.482093  0  0  -0.292681  -0.248317  0  3.445014  0
N  N49  1  0.76559137  0.07974750  0.76466031  1  0  -0.336928  0  3.215887  0  -1.263616  0  -0.260802  0  3.460509  0  0  -0.280469  0  3.482388  0  0  -0.292698  -0.248212  0  3.445321  0
N  N50  1  0.33569722  0.39021229  0.79587521  1  0  -0.547587  0  2.760438  0  -1.328168  0  -0.495519  0  3.013951  0  0  -0.515331  0  3.022859  0  0  -0.369662  -0.483516  0  3.009438  0
N  N51  1  0.83564780  0.79587814  0.39021747  1  0  -0.5477  0  2.760903  0  -1.328031  0  -0.495643  0  3.014406  0  0  -0.515458  0  3.023318  0  0  -0.369671  -0.483643  0  3.009898  0
N  N52  1  0.66432717  0.60976914  0.20412022  1  0  -0.547588  0  2.760893  0  -1.328003  0  -0.495527  0  3.014395  0  0  -0.515342  0  3.023305  0  0  -0.369674  -0.483527  0  3.00988  0
N  N53  1  0.16436698  0.20411874  0.60977220  1  0  -0.547598  0  2.761158  0  -1.328284  0  -0.495537  0  3.014659  0  0  -0.515347  0  3.023568  0  0  -0.36966  -0.483531  0  3.010143  0
