# generated using pymatgen
data_AlH9C21N(ClO2)3
_symmetry_space_group_name_H-M   'P 1'
_cell_length_a   4.11494143
_cell_length_b   13.48195776
_cell_length_c   13.48211029
_cell_angle_alpha   119.99869711
_cell_angle_beta   89.99920438
_cell_angle_gamma   90.00075187
_symmetry_Int_Tables_number   1
_chemical_formula_structural   AlH9C21N(ClO2)3
_chemical_formula_sum   'Al1 H9 C21 N1 Cl3 O6'
_cell_volume   647.75508157
_cell_formula_units_Z   1
loop_
 _symmetry_equiv_pos_site_id
 _symmetry_equiv_pos_as_xyz
  1  'x, y, z'
loop_
 _atom_site_type_symbol
 _atom_site_label
 _atom_site_symmetry_multiplicity
 _atom_site_fract_x
 _atom_site_fract_y
 _atom_site_fract_z
 _atom_site_occupancy
 _atom_site_pbe_bader_charge
 _atom_site_pbe_bader_spin_density
 _atom_site_pbe_cm5_charge
 _atom_site_pbe_ddec_charge
 _atom_site_pbe_ddec_spin_density
 _atom_site_pbe_ddec_sum_bond_order
 _atom_site_pbe_magmom
Al  Al0  1  0.02400491  0.49999897  0.49999513  1  2.510701  0  0.432878  1.627225  0  2.536717  0
H  H1  1  0.22511635  0.81179007  0.78354188  1  0.089382  0  0.113562  0.123031  0  0.968822  0
H  H2  1  0.20790381  0.02268933  0.89392330  1  0.049201  0  0.103878  0.113841  0  1.025348  0
H  H3  1  0.76656418  0.03467666  0.62939741  1  0.093276  0  0.1041  0.121368  0  1.036111  0
H  H4  1  0.76657030  0.09472179  0.96533354  1  0.087645  0  0.104082  0.121356  0  1.036225  0
H  H5  1  0.22510266  0.47173710  0.18819055  1  0.123484  0  0.113602  0.123142  0  0.968817  0
H  H6  1  0.20787292  0.37121821  0.97730001  1  0.048987  0  0.103928  0.113878  0  1.025218  0
H  H7  1  0.76656043  0.37060733  0.90528145  1  0.098079  0  0.104109  0.121402  0  1.036102  0
H  H8  1  0.22511416  0.21645360  0.52825996  1  0.089958  0  0.113579  0.123051  0  0.968867  0
H  H9  1  0.20788461  0.10607577  0.62878250  1  0.095203  0  0.103945  0.113983  0  1.025235  0
C  C10  1  0.52175864  0.40574884  0.32537346  1  1.57952  0  0.279384  0.683944  0  4.057407  0
C  C11  1  0.52173607  0.41962147  0.59424199  1  1.586332  0  0.27943  0.68397  0  4.057366  0
C  C12  1  0.52176121  0.67461545  0.58036570  1  1.657494  0  0.279353  0.683732  0  4.057576  0
C  C13  1  0.34722677  0.86106525  0.75050814  1  -0.069353  0  -0.080557  -0.066576  0  3.977807  0
C  C14  1  0.33490456  0.98000321  0.81231744  1  0.028489  0  -0.099088  -0.18266  0  3.995433  0
C  C15  1  0.48789151  0.04516458  0.77070418  1  0.394065  0  0.093803  0.199198  0  4.015075  0
C  C16  1  0.64773619  0.98731691  0.66480676  1  0.109054  0  -0.10463  -0.253914  0  3.993774  0
C  C17  1  0.65160143  0.86822828  0.60247168  1  -0.024845  0  0.016183  0.139952  0  4.06771  0
C  C18  1  0.50731031  0.80296345  0.64487277  1  -0.00918  0  -0.020392  -0.112345  0  3.967166  0
C  C19  1  0.64773323  0.17748488  0.01268461  1  0.074  0  -0.10452  -0.253872  0  3.99386  0
C  C20  1  0.65159581  0.23424125  0.13177143  1  -0.029266  0  0.016269  0.140099  0  4.067657  0
C  C21  1  0.50731758  0.34190064  0.19702372  1  0.109433  0  -0.020489  -0.112386  0  3.967244  0
C  C22  1  0.34719121  0.38942939  0.13892681  1  0.004512  0  -0.080523  -0.066632  0  3.977945  0
C  C23  1  0.33491051  0.33230458  0.01998889  1  -0.050144  0  -0.099154  -0.182795  0  3.995578  0
C  C24  1  0.48788889  0.22553500  0.95483830  1  0.297096  0  0.093713  0.199157  0  4.015117  0
C  C25  1  0.64772382  0.33519316  0.82251161  1  0.054288  0  -0.10461  -0.253932  0  3.993855  0
C  C26  1  0.65160736  0.39752909  0.76575323  1  0.053023  0  0.016265  0.140155  0  4.067445  0
C  C27  1  0.50733214  0.35512053  0.65808878  1  0.024425  0  -0.020479  -0.112575  0  3.967368  0
C  C28  1  0.34721687  0.24949460  0.61057257  1  -0.057966  0  -0.080561  -0.066511  0  3.978186  0
C  C29  1  0.33490552  0.18767492  0.66769734  1  -0.052991  0  -0.099165  -0.182939  0  3.995855  0
C  C30  1  0.48789289  0.22929764  0.77446544  1  0.351613  0  0.093817  0.199251  0  4.015393  0
N  N31  1  0.48029844  0.16666471  0.83333354  1  -1.202813  0  -0.245446  -0.140672  0  3.608115  0
Cl  Cl32  1  0.83673798  0.80129199  0.46941458  1  -0.206241  0  -0.001282  -0.062645  0  1.511886  0
Cl  Cl33  1  0.83674019  0.16812704  0.19871330  1  -0.200877  0  -0.001275  -0.062665  0  1.511948  0
Cl  Cl34  1  0.83674624  0.53058296  0.83186341  1  -0.202393  0  -0.001263  -0.062674  0  1.511948  0
O  O35  1  0.76345460  0.62921131  0.60157877  1  -1.249678  0  -0.231444  -0.592435  0  2.353118  0
O  O36  1  0.76343686  0.47236923  0.37077861  1  -1.252279  0  -0.231477  -0.592571  0  2.353116  0
O  O37  1  0.76343431  0.39841036  0.52762429  1  -1.246306  0  -0.231522  -0.592528  0  2.352892  0
O  O38  1  0.29130630  0.62125978  0.51134785  1  -1.254334  0  -0.235954  -0.606056  0  2.398785  0
O  O39  1  0.29128920  0.48864452  0.60990844  1  -1.250198  0  -0.23601  -0.606112  0  2.398793  0
O  O40  1  0.29128485  0.39008536  0.37873158  1  -1.250397  0  -0.236037  -0.60624  0  2.398773  0
