# generated using pymatgen
data_AlH5C11ClO5F
_symmetry_space_group_name_H-M   'P 1'
_cell_length_a   6.68262215
_cell_length_b   11.09916950
_cell_length_c   15.48039638
_cell_angle_alpha   81.75222093
_cell_angle_beta   75.51218247
_cell_angle_gamma   73.63222249
_symmetry_Int_Tables_number   1
_chemical_formula_structural   AlH5C11ClO5F
_chemical_formula_sum   'Al2 H10 C22 Cl2 O10 F2'
_cell_volume   1063.34477636
_cell_formula_units_Z   2
loop_
 _symmetry_equiv_pos_site_id
 _symmetry_equiv_pos_as_xyz
  1  'x, y, z'
loop_
 _atom_site_type_symbol
 _atom_site_label
 _atom_site_symmetry_multiplicity
 _atom_site_fract_x
 _atom_site_fract_y
 _atom_site_fract_z
 _atom_site_occupancy
 _atom_site_pbe_bader_charge
 _atom_site_pbe_bader_spin_density
 _atom_site_pbe_cm5_charge
 _atom_site_pbe_ddec_charge
 _atom_site_pbe_ddec_spin_density
 _atom_site_pbe_ddec_sum_bond_order
 _atom_site_pbe_magmom
Al  Al0  1  0.49999758  0.49999857  0.50000121  1  2.500436  0  0.401081  1.648194  0  2.568579  0
Al  Al1  1  0.99999995  0.49999646  0.50000079  1  2.503465  0  0.397157  1.653603  0  2.560424  0
H  H2  1  0.27092926  0.58395711  0.39491350  1  0.639802  0  0.353182  0.432052  0  0.851734  0
H  H3  1  0.72906680  0.41603819  0.60508769  1  0.639719  0  0.353128  0.431961  0  0.851845  0
H  H4  1  0.69056896  0.12299173  0.55601734  1  0.123615  0  0.110837  0.129845  0  1.002876  0
H  H5  1  0.30943677  0.87700273  0.44398291  1  0.123652  0  0.11083  0.129784  0  1.002925  0
H  H6  1  0.71913763  0.46359754  0.94646616  1  0.059025  0  0.107337  0.124252  0  1.020005  0
H  H7  1  0.28086788  0.53640727  0.05353457  1  0.058942  0  0.107398  0.124352  0  1.020009  0
H  H8  1  0.60766948  0.45387973  0.23970012  1  0.150771  0  0.11073  0.119066  0  1.007746  0
H  H9  1  0.66899977  0.45737619  0.07694845  1  0.079006  0  0.099785  0.10032  0  1.030247  0
H  H10  1  0.39233193  0.54612432  0.76029527  1  0.150778  0  0.110737  0.119052  0  1.007687  0
H  H11  1  0.33100470  0.54263444  0.92304803  1  0.079002  0  0.099731  0.100235  0  1.030259  0
C  C12  1  0.85340139  0.49148134  0.33956143  1  1.602356  0  0.270871  0.662496  0  4.094689  0
C  C13  1  0.63925513  0.72676866  0.50005367  1  1.58952  0  0.268052  0.654212  0  4.090868  0
C  C14  1  0.14659667  0.50851968  0.66043843  1  1.602358  0  0.270971  0.662549  0  4.094642  0
C  C15  1  0.36074358  0.27322764  0.49994652  1  1.590073  0  0.268001  0.654136  0  4.090924  0
C  C16  1  0.57256023  0.86715342  0.50273235  1  -0.013848  0  -0.009538  -0.071376  0  3.926063  0
C  C17  1  0.42744902  0.13284015  0.49726697  1  -0.014274  0  -0.009674  -0.071503  0  3.926139  0
C  C18  1  0.67922549  0.93747759  0.53555515  1  0.105192  0  0.018647  0.127358  0  4.034204  0
C  C19  1  0.32078838  0.06251606  0.46444304  1  0.105592  0  0.018596  0.12727  0  4.034449  0
C  C20  1  0.60654112  0.06827993  0.53194348  1  0.02545  0  -0.089014  -0.161683  0  3.979553  0
C  C21  1  0.39347120  0.93171367  0.46805552  1  0.025267  0  -0.08913  -0.161708  0  3.979798  0
C  C22  1  0.09485188  0.50944436  0.75983390  1  0.019342  0  -0.020713  -0.158761  0  3.958876  0
C  C23  1  0.90514816  0.49056234  0.24016594  1  0.019509  0  -0.020679  -0.158681  0  3.95882  0
C  C24  1  0.90659696  0.48755956  0.81608442  1  0.432315  0  0.10801  0.290231  0  4.036899  0
C  C25  1  0.86833776  0.48375071  0.90857513  1  0.028382  0  -0.099954  -0.261393  0  3.969689  0
C  C26  1  0.09340304  0.51244701  0.18391867  1  0.432379  0  0.108066  0.290361  0  4.036692  0
C  C27  1  0.13166578  0.51625502  0.09142572  1  0.028845  0  -0.100016  -0.261543  0  3.969626  0
C  C28  1  0.75563610  0.47087409  0.19764554  1  -0.028336  0  -0.071954  -0.052558  0  3.973915  0
C  C29  1  0.79171749  0.47344877  0.10528655  1  -0.069405  0  -0.094684  -0.147112  0  3.980199  0
C  C30  1  0.24436502  0.52913351  0.80235541  1  -0.028147  0  -0.072013  -0.052573  0  3.973941  0
C  C31  1  0.20828741  0.52656089  0.89471061  1  -0.069614  0  -0.094593  -0.147001  0  3.980412  0
C  C32  1  0.01942524  0.50288985  0.95056232  1  0.048255  0  0.003693  0.105367  0  3.979377  0
C  C33  1  0.98058163  0.49711886  0.04943537  1  -0.01468  0  0.003602  0.105293  0  3.979392  0
Cl  Cl34  1  0.89497774  0.86859815  0.58402713  1  -0.184975  0  0.011038  -0.049224  0  1.541358  0
Cl  Cl35  1  0.10503505  0.13138802  0.41596920  1  -0.184933  0  0.011065  -0.049192  0  1.541356  0
O  O36  1  0.65690517  0.50488424  0.37807085  1  -1.255823  0  -0.232227  -0.590419  0  2.339945  0
O  O37  1  0.83768989  0.67289306  0.48769754  1  -1.25427  0  -0.236806  -0.596021  0  2.380946  0
O  O38  1  0.99507677  0.51979806  0.62164940  1  -1.24591  0  -0.233624  -0.595704  0  2.370838  0
O  O39  1  0.51090158  0.32614595  0.49284496  1  -1.243799  0  -0.236268  -0.586488  0  2.338527  0
O  O40  1  0.34309024  0.49511579  0.62193001  1  -1.255781  0  -0.232273  -0.590426  0  2.33995  0
O  O41  1  0.16231038  0.32709676  0.51229978  1  -1.254178  0  -0.23675  -0.595952  0  2.380895  0
O  O42  1  0.00491755  0.48020103  0.37835101  1  -1.245854  0  -0.233618  -0.595715  0  2.370929  0
O  O43  1  0.48909621  0.67385211  0.50715840  1  -1.243326  0  -0.236286  -0.586518  0  2.338516  0
O  O44  1  0.24937258  0.55381641  0.45765240  1  -1.44188  0  -0.449804  -0.989051  0  2.184751  0
O  O45  1  0.75062656  0.44617893  0.54234846  1  -1.441809  0  -0.449753  -0.988942  0  2.184839  0
F  F46  1  0.75333033  0.46484172  0.78165863  1  -0.636052  0  -0.086578  -0.136187  0  1.374941  0
F  F47  1  0.24666815  0.53516488  0.21834332  1  -0.636157  0  -0.086596  -0.136259  0  1.374935  0
