# generated using pymatgen
data_CdH12C14(NO2)3
_symmetry_space_group_name_H-M   'P 1'
_cell_length_a   7.73437769
_cell_length_b   9.36292921
_cell_length_c   11.26073363
_cell_angle_alpha   102.28186787
_cell_angle_beta   106.07366946
_cell_angle_gamma   106.33419710
_symmetry_Int_Tables_number   1
_chemical_formula_structural   CdH12C14(NO2)3
_chemical_formula_sum   'Cd2 H24 C28 N6 O12'
_cell_volume   713.64218711
_cell_formula_units_Z   2
loop_
 _symmetry_equiv_pos_site_id
 _symmetry_equiv_pos_as_xyz
  1  'x, y, z'
loop_
 _atom_site_type_symbol
 _atom_site_label
 _atom_site_symmetry_multiplicity
 _atom_site_fract_x
 _atom_site_fract_y
 _atom_site_fract_z
 _atom_site_occupancy
 _atom_site_hle17_bader_spin_density
 _atom_site_hle17_ddec_charge
 _atom_site_hle17_ddec_spin_density
 _atom_site_hle17_ddec_sum_bond_order
 _atom_site_hle17_magmom
 _atom_site_hse06_10hf_bader_spin_density
 _atom_site_hse06_10hf_ddec_charge
 _atom_site_hse06_10hf_ddec_spin_density
 _atom_site_hse06_10hf_ddec_sum_bond_order
 _atom_site_hse06_10hf_magmom
 _atom_site_hse06_bader_spin_density
 _atom_site_hse06_ddec_charge
 _atom_site_hse06_ddec_spin_density
 _atom_site_hse06_ddec_sum_bond_order
 _atom_site_hse06_magmom
 _atom_site_pbe_bader_spin_density
 _atom_site_pbe_cm5_charge
 _atom_site_pbe_ddec_charge
 _atom_site_pbe_ddec_spin_density
 _atom_site_pbe_ddec_sum_bond_order
 _atom_site_pbe_magmom
Cd  Cd0  1  0.05469187  0.84470812  0.07849834  1  0  1.169931  0  1.621247  0  0  0.969854  0  2.06503  0  0  1.028672  0  2.011451  0  0  0.780317  0.928119  0  2.102086  0
Cd  Cd1  1  0.94530672  0.15529187  0.92150140  1  0  1.169885  0  1.621262  0  0  0.969811  0  2.065034  0  0  1.028625  0  2.011461  0  0  0.780305  0.928073  0  2.102094  0
H  H2  1  0.82954212  0.53918655  0.48342625  1  0  0.102095  0  0.960302  0  0  0.111416  0  1.025612  0  0  0.114531  0  1.023164  0  0  0.107436  0.109082  0  1.027284  0
H  H3  1  0.17046129  0.46081810  0.51657790  1  0  0.102112  0  0.960291  0  0  0.111428  0  1.025603  0  0  0.114541  0  1.023154  0  0  0.10747  0.109095  0  1.027273  0
H  H4  1  0.35898108  0.20975308  0.25051738  1  0  0.071501  0  0.95944  0  0  0.081303  0  1.023508  0  0  0.083109  0  1.021785  0  0  0.11278  0.079722  0  1.025207  0
H  H5  1  0.64101402  0.79024811  0.74948190  1  0  0.071529  0  0.959407  0  0  0.081317  0  1.023486  0  0  0.083124  0  1.021763  0  0  0.112786  0.079736  0  1.025185  0
H  H6  1  0.73319661  0.52344040  0.08290367  1  0  0.089976  0  0.937608  0  0  0.099798  0  0.999874  0  0  0.102431  0  0.996737  0  0  0.120891  0.097475  0  1.002867  0
H  H7  1  0.26680065  0.47655372  0.91709565  1  0  0.089978  0  0.937609  0  0  0.099804  0  0.999858  0  0  0.102435  0  0.996723  0  0  0.120902  0.09748  0  1.002848  0
H  H8  1  0.55537203  0.37322946  0.48405684  1  0  0.107635  0  0.962558  0  0  0.119882  0  1.019909  0  0  0.12253  0  1.019484  0  0  0.10791  0.118201  0  1.019795  0
H  H9  1  0.44462549  0.62677407  0.51594154  1  0  0.107658  0  0.962546  0  0  0.11989  0  1.01991  0  0  0.122541  0  1.019482  0  0  0.107909  0.11821  0  1.019796  0
H  H10  1  0.07261057  0.77891339  0.65734587  1  0  0.110939  0  0.975283  0  0  0.116161  0  1.044395  0  0  0.119966  0  1.042135  0  0  0.101914  0.113431  0  1.045869  0
H  H11  1  0.92738909  0.22108895  0.34265360  1  0  0.110968  0  0.975214  0  0  0.11618  0  1.044337  0  0  0.119986  0  1.042073  0  0  0.101915  0.113431  0  1.045829  0
H  H12  1  0.31982390  0.04543133  0.72132032  1  0  0.107045  0  0.956934  0  0  0.11975  0  1.014744  0  0  0.122182  0  1.014254  0  0  0.106204  0.11773  0  1.015502  0
H  H13  1  0.68017523  0.95456984  0.27867795  1  0  0.107028  0  0.956925  0  0  0.11972  0  1.014754  0  0  0.122153  0  1.014263  0  0  0.106181  0.117701  0  1.015508  0
H  H14  1  0.50929972  0.26008780  0.66007119  1  0  0.112226  0  0.949084  0  0  0.120507  0  1.01374  0  0  0.12439  0  1.009828  0  0  0.109488  0.117608  0  1.016412  0
H  H15  1  0.49070047  0.73991571  0.33992859  1  0  0.1122  0  0.949136  0  0  0.120488  0  1.013784  0  0  0.12437  0  1.009872  0  0  0.109495  0.117583  0  1.016474  0
H  H16  1  0.64700014  0.39612088  0.24260987  1  0  0.100157  0  0.954324  0  0  0.113111  0  1.010757  0  0  0.115202  0  1.011344  0  0  0.106476  0.111545  0  1.01044  0
H  H17  1  0.35300408  0.60387671  0.75739406  1  0  0.100162  0  0.954365  0  0  0.113104  0  1.010801  0  0  0.115195  0  1.011393  0  0  0.10648  0.111539  0  1.010485  0
H  H18  1  0.34906738  0.84431279  0.90030581  1  0  0.108843  0  0.955369  0  0  0.122105  0  1.018374  0  0  0.124626  0  1.017434  0  0  0.099378  0.120279  0  1.019158  0
H  H19  1  0.65093094  0.15568367  0.09969502  1  0  0.108816  0  0.955483  0  0  0.122091  0  1.018481  0  0  0.12461  0  1.017542  0  0  0.099387  0.120265  0  1.019264  0
H  H20  1  0.52444947  0.98478658  0.86739871  1  0  0.096909  0  0.962706  0  0  0.110095  0  1.028767  0  0  0.111954  0  1.028701  0  0  0.096386  0.108423  0  1.029647  0
H  H21  1  0.47554752  0.01520989  0.13260098  1  0  0.096904  0  0.962668  0  0  0.110104  0  1.028731  0  0  0.111965  0  1.02866  0  0  0.096387  0.108433  0  1.029611  0
H  H22  1  0.24274260  0.62607888  0.11589778  1  0  0.414244  0  0.892873  0  0  0.38024  0  0.962642  0  0  0.391812  0  0.945669  0  0  0.284147  0.371974  0  0.974738  0
H  H23  1  0.75725546  0.37391994  0.88410253  1  0  0.414252  0  0.892857  0  0  0.380245  0  0.962631  0  0  0.391817  0  0.945657  0  0  0.284152  0.371978  0  0.974728  0
H  H24  1  0.40475423  0.74384211  0.08409525  1  0  0.413634  0  0.899372  0  0  0.382222  0  0.964761  0  0  0.394  0  0.947839  0  0  0.279764  0.373914  0  0.976647  0
H  H25  1  0.59524651  0.25615668  0.91590557  1  0  0.413646  0  0.899365  0  0  0.382243  0  0.964743  0  0  0.394017  0  0.947824  0  0  0.279785  0.373934  0  0.976631  0
C  C26  1  0.86192958  0.58834039  0.40907973  1  0  -0.049955  0  3.691822  0  0  -0.074537  0  3.94132  0  0  -0.072212  0  3.959604  0  0  -0.062346  -0.075609  0  3.928313  0
C  C27  1  0.13807089  0.41166076  0.59092234  1  0  -0.049983  0  3.691842  0  0  -0.074567  0  3.941349  0  0  -0.072239  0  3.959629  0  0  -0.062414  -0.075639  0  3.928342  0
C  C28  1  0.34535291  0.16399239  0.33006154  1  0  0.148916  0  3.716687  0  0  0.113474  0  3.977885  0  0  0.12223  0  3.995381  0  0  0.052839  0.107742  0  3.966439  0
C  C29  1  0.65464568  0.83600760  0.66993731  1  0  0.148871  0  3.716764  0  0  0.113433  0  3.977966  0  0  0.122187  0  3.995465  0  0  0.052809  0.1077  0  3.96652  0
C  C30  1  0.81127331  0.58044184  0.18706091  1  0  0.166982  0  3.669836  0  0  0.130126  0  3.930138  0  0  0.139435  0  3.945679  0  0  0.0592  0.123663  0  3.920244  0
C  C31  1  0.18872502  0.41955461  0.81293993  1  0  0.166971  0  3.6698  0  0  0.130133  0  3.930079  0  0  0.139445  0  3.945617  0  0  0.0592  0.123672  0  3.920184  0
C  C32  1  0.45308799  0.25534643  0.46045056  1  0  -0.117367  0  3.731931  0  0  -0.131962  0  3.988617  0  0  -0.13903  0  4.01007  0  0  -0.084373  -0.127549  0  3.973619  0
C  C33  1  0.54690979  0.74465474  0.53954834  1  0  -0.117367  0  3.731895  0  0  -0.131942  0  3.988582  0  0  -0.139009  0  4.010032  0  0  -0.084349  -0.12753  0  3.973584  0
C  C34  1  0.00829648  0.73758025  0.44956480  1  0  0.032153  0  3.783738  0  0  0.048321  0  4.014269  0  0  0.045629  0  4.039087  0  0  -0.00016  0.049244  0  3.997792  0
C  C35  1  0.99170131  0.26242092  0.55043411  1  0  0.032087  0  3.783726  0  0  0.048261  0  4.014252  0  0  0.045568  0  4.03907  0  0  -0.000174  0.049184  0  3.997771  0
C  C36  1  0.04812217  0.79952391  0.35105092  1  0  0.136272  0  3.741162  0  0  0.128863  0  3.978101  0  0  0.133672  0  4.000068  0  0  0.119962  0.125704  0  3.963124  0
C  C37  1  0.95187722  0.20047490  0.64894876  1  0  0.136284  0  3.74124  0  0  0.12886  0  3.978184  0  0  0.133669  0  4.000152  0  0  0.119977  0.125701  0  3.963207  0
C  C38  1  0.19045374  0.95532196  0.38890728  1  0  0.132661  0  3.748439  0  0  0.127957  0  3.982889  0  0  0.132358  0  4.005477  0  0  0.119094  0.125053  0  3.967511  0
C  C39  1  0.80954888  0.04467800  0.61109144  1  0  0.132602  0  3.748591  0  0  0.127933  0  3.982988  0  0  0.132335  0  4.005575  0  0  0.119084  0.12503  0  3.967609  0
C  C40  1  0.11000157  0.82763465  0.58404365  1  0  -0.101949  0  3.723519  0  0  -0.122804  0  3.977028  0  0  -0.12671  0  4.000506  0  0  -0.087324  -0.119897  0  3.961054  0
C  C41  1  0.88999674  0.17236770  0.41595646  1  0  -0.101941  0  3.723603  0  0  -0.122777  0  3.977096  0  0  -0.126684  0  4.000579  0  0  -0.087308  -0.119855  0  3.961134  0
C  C42  1  0.24571155  0.97397052  0.61939811  1  0  -0.092924  0  3.725297  0  0  -0.115613  0  3.978568  0  0  -0.118775  0  4.002008  0  0  -0.0854  -0.113379  0  3.963068  0
C  C43  1  0.75429027  0.02603063  0.38059801  1  0  -0.092908  0  3.725223  0  0  -0.115592  0  3.978493  0  0  -0.118748  0  4.001917  0  0  -0.085378  -0.113359  0  3.962988  0
C  C44  1  0.28956675  0.04104996  0.52360339  1  0  0.026903  0  3.785995  0  0  0.041742  0  4.019687  0  0  0.039211  0  4.044207  0  0  -0.000709  0.042794  0  4.003272  0
C  C45  1  0.71043533  0.95894883  0.47639679  1  0  0.02693  0  3.785932  0  0  0.041761  0  4.019626  0  0  0.039232  0  4.044144  0  0  -0.000708  0.042814  0  4.003211  0
C  C46  1  0.42644436  0.19338252  0.55771730  1  0  -0.035136  0  3.664104  0  0  -0.060949  0  3.914107  0  0  -0.058156  0  3.931168  0  0  -0.06064  -0.062031  0  3.902024  0
C  C47  1  0.57355746  0.80661863  0.44227882  1  0  -0.03511  0  3.664118  0  0  -0.060945  0  3.914149  0  0  -0.058151  0  3.93121  0  0  -0.06067  -0.062028  0  3.902064  0
C  C48  1  0.76233035  0.51036271  0.27770422  1  0  -0.108386  0  3.717501  0  0  -0.121721  0  3.971831  0  0  -0.128704  0  3.993273  0  0  -0.082295  -0.116966  0  3.957178  0
C  C49  1  0.23767199  0.48963960  0.72229576  1  0  -0.108372  0  3.717459  0  0  -0.121703  0  3.97178  0  0  -0.128684  0  3.993213  0  0  -0.082269  -0.116947  0  3.957124  0
C  C50  1  0.64138066  0.86381869  0.99275110  1  0  0.703055  0  3.840795  0  0  0.654339  0  4.142372  0  0  0.68838  0  4.134825  0  0  0.205977  0.631286  0  4.146343  0
C  C51  1  0.35862168  0.13618362  0.00725154  1  0  0.703104  0  3.840659  0  0  0.654389  0  4.142251  0  0  0.688429  0  4.134703  0  0  0.205988  0.631337  0  4.146223  0
C  C52  1  0.49441980  0.93504909  0.94247779  1  0  -0.26192  0  3.671846  0  0  -0.299362  0  3.915441  0  0  -0.305149  0  3.92309  0  0  -0.172561  -0.295417  0  3.910666  0
C  C53  1  0.50558066  0.06495206  0.05752429  1  0  -0.261873  0  3.671884  0  0  -0.299367  0  3.915507  0  0  -0.305152  0  3.923155  0  0  -0.172595  -0.295427  0  3.910738  0
N  N54  1  0.22067969  0.01816802  0.29510128  1  0  -0.35845  0  3.246561  0  0  -0.287878  0  3.510055  0  0  -0.308128  0  3.528986  0  0  -0.321772  -0.274016  0  3.497297  0
N  N55  1  0.77932187  0.98182960  0.70489593  1  0  -0.358438  0  3.246615  0  0  -0.287868  0  3.510096  0  0  -0.308117  0  3.529024  0  0  -0.321755  -0.274006  0  3.497338  0
N  N56  1  0.95109419  0.71940620  0.22275457  1  0  -0.354286  0  3.243195  0  0  -0.284833  0  3.509013  0  0  -0.304733  0  3.527248  0  0  -0.320022  -0.270953  0  3.496203  0
N  N57  1  0.04890708  0.28059377  0.77724567  1  0  -0.354211  0  3.243224  0  0  -0.284764  0  3.509033  0  0  -0.304664  0  3.527267  0  0  -0.32002  -0.270885  0  3.496222  0
N  N58  1  0.88925306  0.61299792  0.81164369  1  0  0.687981  0  4.148629  0  0  0.711539  0  4.451878  0  0  0.739755  0  4.458763  0  0  0.096815  0.692863  0  4.446591  0
N  N59  1  0.11074687  0.38700206  0.18835718  1  0  0.687658  0  4.148981  0  0  0.711442  0  4.451992  0  0  0.73966  0  4.458876  0  0  0.096767  0.692766  0  4.446706  0
O  O60  1  0.29700892  0.73709320  0.11918180  1  0  -0.859376  0  1.891252  0  0  -0.80003  0  2.101565  0  0  -0.822969  0  2.066151  0  0  -0.599529  -0.783211  0  2.126171  0
O  O61  1  0.70299048  0.26290560  0.88081877  1  0  -0.859385  0  1.891246  0  0  -0.800038  0  2.101532  0  0  -0.822971  0  2.06613  0  0  -0.599547  -0.783218  0  2.126141  0
O  O62  1  0.01525640  0.74831248  0.83938256  1  0  -0.474024  0  1.81698  0  0  -0.449864  0  2.046396  0  0  -0.468463  0  2.041156  0  0  -0.183227  -0.436974  0  2.049849  0
O  O63  1  0.98474219  0.25168751  0.16061717  1  0  -0.473919  0  1.817055  0  0  -0.449843  0  2.046406  0  0  -0.46844  0  2.041165  0  0  -0.183218  -0.436948  0  2.049854  0
O  O64  1  0.84947038  0.57296213  0.90641564  1  0  -0.50669  0  1.822353  0  0  -0.47651  0  2.047775  0  0  -0.496311  0  2.039903  0  0  -0.195079  -0.462876  0  2.053294  0
O  O65  1  0.15052901  0.42703667  0.09358493  1  0  -0.506568  0  1.822404  0  0  -0.47648  0  2.047783  0  0  -0.496272  0  2.039893  0  0  -0.195062  -0.462846  0  2.053303  0
O  O66  1  0.80586353  0.52237864  0.69759783  1  0  -0.426606  0  1.759844  0  0  -0.423149  0  1.977605  0  0  -0.435202  0  1.973955  0  0  -0.170753  -0.414541  0  1.979803  0
O  O67  1  0.19413587  0.47762017  0.30240273  1  0  -0.426482  0  1.760029  0  0  -0.423098  0  1.977695  0  0  -0.435157  0  1.974051  0  0  -0.170724  -0.414487  0  1.979894  0
O  O68  1  0.80661487  0.91798555  0.98073668  1  0  -0.680744  0  2.082197  0  0  -0.593349  0  2.349529  0  0  -0.626866  0  2.337281  0  0  -0.330269  -0.56961  0  2.357216  0
O  O69  1  0.19338506  0.08201442  0.01926508  1  0  -0.680796  0  2.082095  0  0  -0.593402  0  2.349438  0  0  -0.626923  0  2.337194  0  0  -0.330298  -0.569662  0  2.357124  0
O  O70  1  0.59953802  0.76123442  0.04677490  1  0  -0.612264  0  1.947949  0  0  -0.560237  0  2.169005  0  0  -0.584669  0  2.16026  0  0  -0.310507  -0.542811  0  2.174277  0
O  O71  1  0.40046326  0.23876554  0.95322623  1  0  -0.612273  0  1.94792  0  0  -0.560258  0  2.168993  0  0  -0.584689  0  2.160245  0  0  -0.310505  -0.542833  0  2.174265  0
