# generated using pymatgen
data_Cu2H12C8S(N2O3)2
_symmetry_space_group_name_H-M   'P 1'
_cell_length_a   8.01654072
_cell_length_b   8.01654314
_cell_length_c   11.20302275
_cell_angle_alpha   105.71960907
_cell_angle_beta   105.72011995
_cell_angle_gamma   94.79347009
_symmetry_Int_Tables_number   1
_chemical_formula_structural   Cu2H12C8S(N2O3)2
_chemical_formula_sum   'Cu4 H24 C16 S2 N8 O12'
_cell_volume   657.47052879
_cell_formula_units_Z   2
loop_
 _symmetry_equiv_pos_site_id
 _symmetry_equiv_pos_as_xyz
  1  'x, y, z'
loop_
 _atom_site_type_symbol
 _atom_site_label
 _atom_site_symmetry_multiplicity
 _atom_site_fract_x
 _atom_site_fract_y
 _atom_site_fract_z
 _atom_site_occupancy
 _atom_site_hle17_bader_spin_density
 _atom_site_hle17_ddec_charge
 _atom_site_hle17_ddec_spin_density
 _atom_site_hle17_ddec_sum_bond_order
 _atom_site_hle17_magmom
 _atom_site_hse06_10hf_bader_spin_density
 _atom_site_hse06_10hf_ddec_charge
 _atom_site_hse06_10hf_ddec_spin_density
 _atom_site_hse06_10hf_ddec_sum_bond_order
 _atom_site_hse06_10hf_magmom
 _atom_site_hse06_bader_spin_density
 _atom_site_hse06_ddec_charge
 _atom_site_hse06_ddec_spin_density
 _atom_site_hse06_ddec_sum_bond_order
 _atom_site_hse06_magmom
 _atom_site_pbe_bader_spin_density
 _atom_site_pbe_cm5_charge
 _atom_site_pbe_ddec_charge
 _atom_site_pbe_ddec_spin_density
 _atom_site_pbe_ddec_sum_bond_order
 _atom_site_pbe_magmom
Cu  Cu0  1  0.09700964  0.47754351  0.80317174  1  0  0.571554  0  1.784703  0  0  0.456128  0  2.252505  0  0  0.442761  0  2.215016  0  0  0.568032  0.468105  0  2.274714  0
Cu  Cu1  1  0.52245717  0.90298671  0.69682708  1  0  0.57155  0  1.784691  0  0  0.456166  0  2.252419  0  0  0.442778  0  2.214935  0  0  0.568036  0.468143  0  2.274621  0
Cu  Cu2  1  0.90298984  0.52246033  0.19682529  1  0  0.571485  0  1.784731  0  0  0.456123  0  2.252469  0  0  0.442731  0  2.214977  0  0  0.568029  0.468101  0  2.274714  0
Cu  Cu3  1  0.47754185  0.09701447  0.30317289  1  0  0.57151  0  1.784724  0  0  0.456147  0  2.25246  0  0  0.442769  0  2.214979  0  0  0.568049  0.468118  0  2.274725  0
H  H4  1  0.28739111  0.65105983  0.08745560  1  0  0.10998  0  0.948308  0  0  0.114901  0  1.012181  0  0  0.119179  0  1.008817  0  0  0.122683  0.111593  0  1.015001  0
H  H5  1  0.34893775  0.71260522  0.41254590  1  0  0.109961  0  0.948298  0  0  0.11488  0  1.012188  0  0  0.119158  0  1.008826  0  0  0.122703  0.111602  0  1.014977  0
H  H6  1  0.71260638  0.34894002  0.91254471  1  0  0.109978  0  0.948298  0  0  0.114904  0  1.012169  0  0  0.119181  0  1.008805  0  0  0.1227  0.111591  0  1.014982  0
H  H7  1  0.65106146  0.28738938  0.58745461  1  0  0.110024  0  0.948216  0  0  0.114914  0  1.012145  0  0  0.119194  0  1.008781  0  0  0.122692  0.111626  0  1.014932  0
H  H8  1  0.03590574  0.22009229  0.54011515  1  0  0.105435  0  0.982002  0  0  0.109482  0  1.04906  0  0  0.114228  0  1.044643  0  0  0.117334  0.105977  0  1.052421  0
H  H9  1  0.77990798  0.96409394  0.95988394  1  0  0.105405  0  0.98201  0  0  0.109451  0  1.049075  0  0  0.114199  0  1.044654  0  0  0.11733  0.105945  0  1.052435  0
H  H10  1  0.96409094  0.77990235  0.45987772  1  0  0.105489  0  0.981976  0  0  0.109518  0  1.049042  0  0  0.11427  0  1.044621  0  0  0.117351  0.106015  0  1.052406  0
H  H11  1  0.22009947  0.03591909  0.04012092  1  0  0.105464  0  0.982006  0  0  0.109479  0  1.049087  0  0  0.114236  0  1.044667  0  0  0.117342  0.105975  0  1.052452  0
H  H12  1  0.40949450  0.33395411  0.76972571  1  0  0.098108  0  0.951896  0  0  0.103917  0  1.019492  0  0  0.107808  0  1.016054  0  0  0.120241  0.100912  0  1.022408  0
H  H13  1  0.66604022  0.59049526  0.73027462  1  0  0.098084  0  0.951904  0  0  0.103873  0  1.019522  0  0  0.107764  0  1.016086  0  0  0.120213  0.10087  0  1.022436  0
H  H14  1  0.59050431  0.66604576  0.23027219  1  0  0.098115  0  0.951856  0  0  0.103922  0  1.019446  0  0  0.107814  0  1.016006  0  0  0.120231  0.100927  0  1.022377  0
H  H15  1  0.33395076  0.40949666  0.26972552  1  0  0.098117  0  0.951882  0  0  0.10393  0  1.019472  0  0  0.10782  0  1.016035  0  0  0.120272  0.100937  0  1.022403  0
H  H16  1  0.01853282  0.75403932  0.68262985  1  0  0.091103  0  0.991059  0  0  0.09552  0  1.059846  0  0  0.099576  0  1.056043  0  0  0.116329  0.092474  0  1.062913  0
H  H17  1  0.24596003  0.98147056  0.81736903  1  0  0.091159  0  0.990937  0  0  0.095481  0  1.059826  0  0  0.099534  0  1.056027  0  0  0.116343  0.092439  0  1.062885  0
H  H18  1  0.98146537  0.24595664  0.31736269  1  0  0.091132  0  0.990943  0  0  0.095497  0  1.059806  0  0  0.099553  0  1.056002  0  0  0.11632  0.092459  0  1.062885  0
H  H19  1  0.75404631  0.01853587  0.18263700  1  0  0.091206  0  0.990898  0  0  0.09555  0  1.059775  0  0  0.099606  0  1.055971  0  0  0.116336  0.09251  0  1.062857  0
H  H20  1  0.95307993  0.77336848  0.87742723  1  0  0.424734  0  0.878335  0  0  0.399185  0  0.935037  0  0  0.406501  0  0.924214  0  0  0.292208  0.394074  0  0.942588  0
H  H21  1  0.22663049  0.04691991  0.62257363  1  0  0.424738  0  0.878337  0  0  0.399195  0  0.935023  0  0  0.406505  0  0.924208  0  0  0.292195  0.394083  0  0.942577  0
H  H22  1  0.04691843  0.22662874  0.12257273  1  0  0.42475  0  0.878325  0  0  0.399199  0  0.935027  0  0  0.406511  0  0.924208  0  0  0.292205  0.394092  0  0.942575  0
H  H23  1  0.77337024  0.95308388  0.37742899  1  0  0.424765  0  0.878308  0  0  0.39922  0  0.934999  0  0  0.406534  0  0.924178  0  0  0.292215  0.394115  0  0.942544  0
H  H24  1  0.98540045  0.69387521  0.99516258  1  0  0.424573  0  0.879146  0  0  0.394825  0  0.941205  0  0  0.403665  0  0.928475  0  0  0.287087  0.388706  0  0.94998  0
H  H25  1  0.30612057  0.01459898  0.50483701  1  0  0.424592  0  0.879124  0  0  0.394839  0  0.941203  0  0  0.403682  0  0.928467  0  0  0.287066  0.388718  0  0.94998  0
H  H26  1  0.01459770  0.30612071  0.00483619  1  0  0.424585  0  0.879131  0  0  0.394841  0  0.941191  0  0  0.403685  0  0.928455  0  0  0.287062  0.388726  0  0.949959  0
H  H27  1  0.69387907  0.98539823  0.49516499  1  0  0.424577  0  0.879136  0  0  0.394823  0  0.941217  0  0  0.403668  0  0.928479  0  0  0.287052  0.388705  0  0.949989  0
C  C28  1  0.44957906  0.40934652  0.87279493  1  0  0.064971  0  3.669005  0  0  0.037564  0  3.920811  0  0  0.039947  0  3.93415  0  0  0.04183  0.035411  0  3.913014  0
C  C29  1  0.59064842  0.55041587  0.62720464  1  0  0.065102  0  3.668988  0  0  0.037755  0  3.920685  0  0  0.040135  0  3.934022  0  0  0.041935  0.035607  0  3.912883  0
C  C30  1  0.55042234  0.59065336  0.12720348  1  0  0.064939  0  3.668928  0  0  0.037544  0  3.920738  0  0  0.039925  0  3.934071  0  0  0.041833  0.03538  0  3.912977  0
C  C31  1  0.40934537  0.44957738  0.37279542  1  0  0.06498  0  3.668802  0  0  0.037561  0  3.920632  0  0  0.039941  0  3.933967  0  0  0.041838  0.035401  0  3.912879  0
C  C32  1  0.38255674  0.58438938  0.04768294  1  0  0.07857  0  3.650833  0  0  0.052904  0  3.89827  0  0  0.055668  0  3.911156  0  0  0.044853  0.050539  0  3.890938  0
C  C33  1  0.41560740  0.61744403  0.45231976  1  0  0.078597  0  3.65073  0  0  0.052916  0  3.898191  0  0  0.05568  0  3.911072  0  0  0.044826  0.050519  0  3.890866  0
C  C34  1  0.61744357  0.41561179  0.95231819  1  0  0.078591  0  3.650895  0  0  0.052918  0  3.898349  0  0  0.055681  0  3.911233  0  0  0.044854  0.050551  0  3.89101  0
C  C35  1  0.58438813  0.38255185  0.54768116  1  0  0.078553  0  3.650763  0  0  0.052884  0  3.898215  0  0  0.055644  0  3.9111  0  0  0.044877  0.050498  0  3.890873  0
C  C36  1  0.02105601  0.34582528  0.52271487  1  0  0.064972  0  3.65961  0  0  0.033596  0  3.91735  0  0  0.038055  0  3.926485  0  0  0.032427  0.030338  0  3.911758  0
C  C37  1  0.65417357  0.97894307  0.97728251  1  0  0.065055  0  3.65961  0  0  0.033678  0  3.917354  0  0  0.038139  0  3.926485  0  0  0.032446  0.030423  0  3.911755  0
C  C38  1  0.97893916  0.65416805  0.47727567  1  0  0.064807  0  3.659768  0  0  0.033471  0  3.917506  0  0  0.037927  0  3.926642  0  0  0.032389  0.030211  0  3.911919  0
C  C39  1  0.34583236  0.02106864  0.02272179  1  0  0.064906  0  3.659781  0  0  0.033598  0  3.917468  0  0  0.038048  0  3.926612  0  0  0.03241  0.030339  0  3.911884  0
C  C40  1  0.01168508  0.63973768  0.60147875  1  0  0.060095  0  3.68448  0  0  0.030708  0  3.943441  0  0  0.035017  0  3.953049  0  0  0.031975  0.027513  0  3.937478  0
C  C41  1  0.36026508  0.98831834  0.89852203  1  0  0.059991  0  3.684484  0  0  0.030684  0  3.943459  0  0  0.034992  0  3.953069  0  0  0.0319  0.027489  0  3.937495  0
C  C42  1  0.98830813  0.36025956  0.39851485  1  0  0.059939  0  3.684428  0  0  0.030596  0  3.943437  0  0  0.034903  0  3.953043  0  0  0.03196  0.027391  0  3.937509  0
C  C43  1  0.63974300  0.01169074  0.10148308  1  0  0.059883  0  3.684386  0  0  0.030553  0  3.943435  0  0  0.034861  0  3.953044  0  0  0.031945  0.027347  0  3.93751  0
S  S44  1  0.91475451  0.08525053  0.75000297  1  0  1.564122  0  5.847711  0  0  1.437687  0  6.380023  0  0  1.490791  0  6.347988  0  0  0.563647  1.401235  0  6.400828  0
S  S45  1  0.08524991  0.91475199  0.24999745  1  0  1.564261  0  5.847547  0  0  1.43784  0  6.379834  0  0  1.490925  0  6.347816  0  0  0.56375  1.401384  0  6.400666  0
N  N46  1  0.32982848  0.49384657  0.91904112  1  0  -0.269191  0  3.387903  0  0  -0.204726  0  3.697122  0  0  -0.204493  0  3.69953  0  0  -0.35974  -0.205683  0  3.695623  0
N  N47  1  0.50614893  0.67016410  0.58095927  1  0  -0.26934  0  3.388087  0  0  -0.204885  0  3.697312  0  0  -0.204643  0  3.699698  0  0  -0.359864  -0.205845  0  3.695829  0
N  N48  1  0.67017055  0.50615462  0.08095708  1  0  -0.269142  0  3.387951  0  0  -0.204702  0  3.697183  0  0  -0.204461  0  3.699577  0  0  -0.359724  -0.205665  0  3.695718  0
N  N49  1  0.49384616  0.32982915  0.41904194  1  0  -0.269171  0  3.387968  0  0  -0.20472  0  3.697196  0  0  -0.204481  0  3.699592  0  0  -0.359756  -0.205684  0  3.695748  0
N  N50  1  0.03344460  0.48571265  0.62708179  1  0  -0.28316  0  3.401919  0  0  -0.218909  0  3.718107  0  0  -0.218231  0  3.719445  0  0  -0.371257  -0.219438  0  3.716293  0
N  N51  1  0.51428638  0.96655552  0.87291812  1  0  -0.28319  0  3.40196  0  0  -0.218945  0  3.718125  0  0  -0.218262  0  3.719447  0  0  -0.371227  -0.219476  0  3.716308  0
N  N52  1  0.96655078  0.51428198  0.37291082  1  0  -0.283028  0  3.402041  0  0  -0.218815  0  3.718217  0  0  -0.218132  0  3.719542  0  0  -0.371223  -0.219353  0  3.716444  0
N  N53  1  0.48571910  0.03345354  0.12708825  1  0  -0.28309  0  3.402038  0  0  -0.218898  0  3.718235  0  0  -0.218219  0  3.71957  0  0  -0.371229  -0.219438  0  3.716474  0
O  O54  1  0.94943357  0.27073650  0.84014657  1  0  -0.740713  0  2.076403  0  0  -0.66401  0  2.353462  0  0  -0.685391  0  2.333366  0  0  -0.367487  -0.649253  0  2.366409  0
O  O55  1  0.72927037  0.05055341  0.65985303  1  0  -0.740727  0  2.076444  0  0  -0.664026  0  2.353504  0  0  -0.685425  0  2.333419  0  0  -0.36749  -0.649261  0  2.366442  0
O  O56  1  0.05056674  0.72926469  0.15985277  1  0  -0.740745  0  2.076327  0  0  -0.664069  0  2.353399  0  0  -0.685426  0  2.333287  0  0  -0.367512  -0.649293  0  2.366355  0
O  O57  1  0.27073511  0.94943989  0.34014846  1  0  -0.740764  0  2.07635  0  0  -0.664071  0  2.353407  0  0  -0.685463  0  2.333325  0  0  -0.367499  -0.64929  0  2.366365  0
O  O58  1  0.95122956  0.66167556  0.89848280  1  0  -0.829983  0  1.879372  0  0  -0.77003  0  2.08196  0  0  -0.786873  0  2.052336  0  0  -0.599982  -0.758262  0  2.10199  0
O  O59  1  0.33832052  0.04876882  0.60151753  1  0  -0.829986  0  1.879315  0  0  -0.770052  0  2.081879  0  0  -0.786891  0  2.052251  0  0  -0.599954  -0.758283  0  2.101915  0
O  O60  1  0.04877270  0.33832170  0.10151615  1  0  -0.829994  0  1.879336  0  0  -0.770059  0  2.081893  0  0  -0.786902  0  2.052266  0  0  -0.599935  -0.758285  0  2.101924  0
O  O61  1  0.66167956  0.95123104  0.39848418  1  0  -0.829994  0  1.87928  0  0  -0.770057  0  2.081832  0  0  -0.786897  0  2.052201  0  0  -0.599941  -0.758284  0  2.101866  0
O  O62  1  0.93435874  0.96343626  0.82927034  1  0  -0.753054  0  2.002296  0  0  -0.689841  0  2.254944  0  0  -0.712757  0  2.238286  0  0  -0.358358  -0.673586  0  2.265805  0
O  O63  1  0.03657555  0.06566235  0.67073928  1  0  -0.753067  0  2.002213  0  0  -0.689839  0  2.254838  0  0  -0.712722  0  2.23816  0  0  -0.358407  -0.673576  0  2.265691  0
O  O64  1  0.06565518  0.03656892  0.17073425  1  0  -0.753072  0  2.002316  0  0  -0.689844  0  2.254966  0  0  -0.712737  0  2.2383  0  0  -0.358378  -0.67356  0  2.265823  0
O  O65  1  0.96342799  0.93434278  0.32926326  1  0  -0.753097  0  2.002206  0  0  -0.689871  0  2.254834  0  0  -0.712786  0  2.238182  0  0  -0.358391  -0.673597  0  2.265697  0
