# generated using pymatgen
data_CuH14C14(N5O2)2
_symmetry_space_group_name_H-M   'P 1'
_cell_length_a   7.48005890
_cell_length_b   11.10099430
_cell_length_c   10.76772482
_cell_angle_alpha   89.99933545
_cell_angle_beta   89.99913691
_cell_angle_gamma   96.27444370
_symmetry_Int_Tables_number   1
_chemical_formula_structural   CuH14C14(N5O2)2
_chemical_formula_sum   'Cu2 H28 C28 N20 O8'
_cell_volume   888.75388660
_cell_formula_units_Z   2
loop_
 _symmetry_equiv_pos_site_id
 _symmetry_equiv_pos_as_xyz
  1  'x, y, z'
loop_
 _atom_site_type_symbol
 _atom_site_label
 _atom_site_symmetry_multiplicity
 _atom_site_fract_x
 _atom_site_fract_y
 _atom_site_fract_z
 _atom_site_occupancy
 _atom_site_pbe_bader_charge
 _atom_site_pbe_bader_spin_density
 _atom_site_pbe_cm5_charge
 _atom_site_pbe_ddec_charge
 _atom_site_pbe_ddec_spin_density
 _atom_site_pbe_ddec_sum_bond_order
 _atom_site_pbe_magmom
Cu  Cu0  1  0.74999055  0.24999414  0.31312768  1  1.058186  0.5708  0.735972  0.792994  0.728905  2.238759  0.567
Cu  Cu1  1  0.25000333  0.75000092  0.68687475  1  1.058168  0.570801  0.735934  0.792919  0.72891  2.238697  0.567
H  H2  1  0.87890051  0.51603571  0.30155940  1  0.185939  0.000281  0.148858  0.123232  3.8e-05  0.952126  0.0
H  H3  1  0.62108258  0.98394741  0.30155794  1  0.185828  0.000281  0.148844  0.123133  3.8e-05  0.952186  0.0
H  H4  1  0.12109235  0.48396117  0.69844954  1  0.186107  0.000281  0.148857  0.123196  3.8e-05  0.952223  0.0
H  H5  1  0.37889985  0.01604315  0.69843428  1  0.185887  0.000281  0.148857  0.123197  3.8e-05  0.952058  0.0
H  H6  1  0.47050392  0.26481925  0.82942937  1  0.114827  4.9e-05  0.110193  0.072918  2.4e-05  1.048664  0.0
H  H7  1  0.02951067  0.23519234  0.82943830  1  0.114677  4.9e-05  0.110213  0.072955  2.4e-05  1.048748  0.0
H  H8  1  0.52952348  0.73516846  0.17057121  1  0.114733  4.9e-05  0.110239  0.073021  2.4e-05  1.048734  0.0
H  H9  1  0.97047428  0.76482904  0.17057157  1  0.114667  4.9e-05  0.11022  0.072963  2.4e-05  1.048667  0.0
H  H10  1  0.17970646  0.11362013  0.54591596  1  0.094953  -5.2e-05  0.103346  0.124565  -5e-05  0.988104  0.0
H  H11  1  0.32026520  0.38637720  0.54591269  1  0.094937  -5.2e-05  0.103417  0.124659  -5e-05  0.988024  0.0
H  H12  1  0.82028536  0.88637856  0.45408926  1  0.094976  -5.2e-05  0.103384  0.124588  -5e-05  0.988072  0.0
H  H13  1  0.67972662  0.61362149  0.45409531  1  0.094847  -5.2e-05  0.103364  0.124597  -5e-05  0.988105  0.0
H  H14  1  0.09016955  0.21977178  0.64310067  1  0.06984  0.00085  0.098289  0.110205  0.000371  1.002102  0.0
H  H15  1  0.40979944  0.28022246  0.64309960  1  0.07005  0.000849  0.098333  0.110392  0.000371  1.002002  0.0
H  H16  1  0.90981857  0.78022874  0.35689620  1  0.070041  0.000849  0.098289  0.110233  0.000371  1.002135  0.0
H  H17  1  0.59019635  0.71976806  0.35689726  1  0.069901  0.00085  0.098311  0.110326  0.000371  1.002064  0.0
H  H18  1  0.62569650  0.45093289  0.72760837  1  0.14352  0.000145  0.12014  0.162835  0.000131  0.975745  0.0
H  H19  1  0.87431837  0.04908789  0.72760948  1  0.143266  0.000145  0.120177  0.162896  0.000131  0.975561  0.0
H  H20  1  0.37432720  0.54905664  0.27239220  1  0.143553  0.000145  0.120235  0.163008  0.000131  0.975594  0.0
H  H21  1  0.12567316  0.95094072  0.27238366  1  0.14324  0.000145  0.120209  0.163007  0.000131  0.975649  0.0
H  H22  1  0.84392372  0.64323599  0.76629395  1  0.566641  9.1e-05  0.304876  0.330853  5.8e-05  0.97493  0.0
H  H23  1  0.65608893  0.85677717  0.76629086  1  0.567157  9.1e-05  0.304821  0.3308  5.8e-05  0.974979  0.0
H  H24  1  0.15608635  0.35675993  0.23371127  1  0.566503  9.2e-05  0.304831  0.330798  5.8e-05  0.975007  0.0
H  H25  1  0.34390889  0.14323329  0.23370321  1  0.566609  9.2e-05  0.30491  0.330933  5.8e-05  0.97482  0.0
H  H26  1  0.91023895  0.68287720  0.91994979  1  0.531005  5e-06  0.29436  0.285358  7e-06  1.033583  0.0
H  H27  1  0.58976967  0.81713213  0.91994599  1  0.531054  5e-06  0.294248  0.28534  7e-06  1.03372  0.0
H  H28  1  0.08975986  0.31712328  0.08005450  1  0.531053  5e-06  0.294327  0.285419  7e-06  1.033576  0.0
H  H29  1  0.41024537  0.18287737  0.08004622  1  0.531011  5e-06  0.294361  0.285391  7e-06  1.033445  0.0
C  C30  1  0.81920359  0.49113533  0.21197454  1  0.967011  -0.000159  0.159682  0.167221  -0.000377  4.006555  0.0
C  C31  1  0.68078814  0.00885515  0.21197346  1  0.967281  -0.000158  0.159814  0.167585  -0.000378  4.006459  0.0
C  C32  1  0.18080144  0.50886241  0.78803161  1  0.966788  -0.000159  0.159708  0.167363  -0.000378  4.006518  0.0
C  C33  1  0.31919609  0.99113812  0.78801968  1  0.967134  -0.000159  0.159657  0.167161  -0.000378  4.006559  0.0
C  C34  1  0.67116584  0.38502424  0.07113187  1  1.479813  0.000395  0.337952  0.415111  1.4e-05  4.083843  0.0
C  C35  1  0.82883839  0.11497441  0.07113731  1  1.479379  0.000395  0.337938  0.415136  1.4e-05  4.083828  0.0
C  C36  1  0.32884969  0.61496440  0.92886870  1  1.479978  0.000396  0.33801  0.415191  1.5e-05  4.084036  0.0
C  C37  1  0.17115690  0.88503696  0.92886327  1  1.480325  0.000396  0.337959  0.415033  1.5e-05  4.084121  0.0
C  C38  1  0.03214373  0.24034697  0.45285824  1  1.550195  -0.001139  0.200059  0.628841  -0.00214  4.135559  -0.004
C  C39  1  0.46783091  0.25964794  0.45285682  1  1.549658  -0.00114  0.199973  0.628893  -0.002141  4.135711  -0.004
C  C40  1  0.96785416  0.75964807  0.54714048  1  1.54993  -0.00114  0.200046  0.628795  -0.002142  4.135597  -0.004
C  C41  1  0.53215362  0.74034714  0.54714376  1  1.549717  -0.00114  0.200023  0.628851  -0.002142  4.135656  -0.004
C  C42  1  0.74362201  0.52309540  0.89892487  1  0.992614  0.000158  0.252358  0.418126  0.000174  4.077861  0.0
C  C43  1  0.75639025  0.97691692  0.89892397  1  0.992124  0.000158  0.252316  0.418029  0.000174  4.07775  0.0
C  C44  1  0.25638654  0.47689145  0.10108035  1  0.993251  0.000158  0.2524  0.418171  0.000174  4.078452  0.0
C  C45  1  0.24361788  0.02310711  0.10107289  1  0.992684  0.000158  0.252423  0.418182  0.000174  4.07825  0.0
C  C46  1  0.55539064  0.33178336  0.88311676  1  0.423301  -0.000209  0.042915  0.128726  -0.000315  4.041938  0.0
C  C47  1  0.94461773  0.16822723  0.88312316  1  0.423722  -0.000209  0.042969  0.128734  -0.000315  4.041755  0.0
C  C48  1  0.44463290  0.66820526  0.11688475  1  0.423968  -0.000209  0.042928  0.128737  -0.000314  4.042039  0.0
C  C49  1  0.05536990  0.83179414  0.11688206  1  0.423916  -0.000209  0.042865  0.128705  -0.000315  4.042036  0.0
C  C50  1  0.16057698  0.21010256  0.55455705  1  -0.051874  0.01116  -0.166887  -0.275595  0.008144  3.944954  0.008
C  C51  1  0.33939535  0.28989193  0.55455566  1  -0.081714  0.011257  -0.167073  -0.276136  0.008144  3.945071  0.008
C  C52  1  0.83941840  0.78989340  0.44544352  1  -0.081976  0.011258  -0.166954  -0.275716  0.008144  3.944964  0.008
C  C53  1  0.66059750  0.71010494  0.44544398  1  -0.051296  0.011161  -0.167003  -0.275951  0.008145  3.944943  0.008
C  C54  1  0.63958174  0.43532007  0.82676955  1  0.039029  -0.000329  -0.113091  -0.328453  -0.000385  3.948495  0.0
C  C55  1  0.86043129  0.06469487  0.82676969  1  0.039376  -0.000329  -0.11311  -0.328443  -0.000385  3.948243  0.0
C  C56  1  0.36044643  0.56467216  0.17323382  1  0.038435  -0.000329  -0.113306  -0.328838  -0.000385  3.948443  0.0
C  C57  1  0.13955336  0.93532469  0.17322903  1  0.038929  -0.000329  -0.113258  -0.328792  -0.000385  3.948563  0.0
N  N58  1  0.75040999  0.49380550  0.02309282  1  -0.872915  0.002724  -0.117411  -0.009423  0.001756  3.744247  0.002
N  N59  1  0.74959155  0.00619471  0.02309293  1  -0.872499  0.002724  -0.117448  -0.009483  0.001757  3.744158  0.002
N  N60  1  0.24960928  0.50618949  0.97691240  1  -0.873326  0.002723  -0.117566  -0.009611  0.001756  3.744651  0.002
N  N61  1  0.25039702  0.99380853  0.97690300  1  -0.873251  0.002723  -0.117545  -0.009541  0.001756  3.744285  0.002
N  N62  1  0.83078647  0.62607910  0.86028334  1  -1.343861  0.000495  -0.547255  -0.569626  0.000248  3.381571  0.0
N  N63  1  0.66921512  0.87392832  0.86027805  1  -1.343669  0.000495  -0.547074  -0.569456  0.000249  3.381433  0.0
N  N64  1  0.16922750  0.37392406  0.13971817  1  -1.343914  0.000495  -0.547061  -0.569418  0.000248  3.382095  0.0
N  N65  1  0.33077418  0.12607128  0.13970953  1  -1.343479  0.000495  -0.547225  -0.569591  0.000248  3.38197  0.0
N  N66  1  0.71857240  0.38283728  0.19242746  1  -1.188976  0.060288  -0.378031  -0.433321  0.040363  3.541077  0.052
N  N67  1  0.78142170  0.11714892  0.19243243  1  -1.189276  0.06029  -0.377978  -0.433449  0.040365  3.541287  0.052
N  N68  1  0.28144122  0.61715590  0.80757590  1  -1.188696  0.060281  -0.377968  -0.433339  0.04036  3.541088  0.052
N  N69  1  0.21856622  0.88284253  0.80757000  1  -1.189013  0.060286  -0.378081  -0.433338  0.040362  3.541214  0.052
N  N70  1  0.56817585  0.30376852  0.00453664  1  -1.213964  0.000225  -0.329052  -0.381906  -2.1e-05  3.379203  0.0
N  N71  1  0.93183283  0.19623191  0.00454749  1  -1.213501  0.000225  -0.329141  -0.381947  -2.1e-05  3.379029  0.0
N  N72  1  0.43184785  0.69622101  0.99546301  1  -1.213397  0.000225  -0.329123  -0.382018  -2e-05  3.379143  0.0
N  N73  1  0.06816231  0.80377856  0.99546144  1  -1.214173  0.000225  -0.329  -0.381844  -2e-05  3.378996  0.0
N  N74  1  0.84328624  0.56210465  0.11288249  1  -0.689515  0.005411  -0.223603  -0.243367  0.003427  3.116629  0.004
N  N75  1  0.65670963  0.93788998  0.11287750  1  -0.689619  0.005412  -0.223667  -0.243498  0.003428  3.11641  0.004
N  N76  1  0.15672085  0.43788946  0.88712180  1  -0.690088  0.005411  -0.223621  -0.243409  0.003427  3.116359  0.004
N  N77  1  0.34327849  0.06211053  0.88711007  1  -0.689675  0.005411  -0.223504  -0.243191  0.003427  3.116353  0.004
O  O78  1  0.88429299  0.16923807  0.44427403  1  -1.101838  0.13032  -0.333193  -0.532161  0.082585  2.210696  0.116
O  O79  1  0.61568481  0.33075574  0.44426980  1  -1.101401  0.13032  -0.333081  -0.532017  0.082586  2.210757  0.116
O  O80  1  0.11570655  0.83075878  0.55572469  1  -1.101728  0.130337  -0.333182  -0.532105  0.082595  2.210629  0.116
O  O81  1  0.38430418  0.66924206  0.55572613  1  -1.101654  0.130312  -0.333128  -0.532069  0.082581  2.210728  0.116
O  O82  1  0.06853606  0.33220589  0.38439736  1  -1.210307  0.003841  -0.33244  -0.590528  0.001493  2.167649  0.004
O  O83  1  0.43143757  0.16778993  0.38439369  1  -1.210476  0.003842  -0.33246  -0.590662  0.001493  2.167588  0.004
O  O84  1  0.93146420  0.66778733  0.61560136  1  -1.21031  0.00384  -0.332431  -0.590506  0.001492  2.167601  0.004
O  O85  1  0.56854669  0.83221150  0.61560131  1  -1.210361  0.003842  -0.332462  -0.590574  0.001493  2.167649  0.004
