# generated using pymatgen
data_FeP2H12C6(NO3)2
_symmetry_space_group_name_H-M   'P 1'
_cell_length_a   8.59283311
_cell_length_b   8.72260483
_cell_length_c   8.35060734
_cell_angle_alpha   70.30430879
_cell_angle_beta   80.44597187
_cell_angle_gamma   81.37514397
_symmetry_Int_Tables_number   1
_chemical_formula_structural   FeP2H12C6(NO3)2
_chemical_formula_sum   'Fe2 P4 H24 C12 N4 O12'
_cell_volume   578.11523195
_cell_formula_units_Z   2
loop_
 _symmetry_equiv_pos_site_id
 _symmetry_equiv_pos_as_xyz
  1  'x, y, z'
loop_
 _atom_site_type_symbol
 _atom_site_label
 _atom_site_symmetry_multiplicity
 _atom_site_fract_x
 _atom_site_fract_y
 _atom_site_fract_z
 _atom_site_occupancy
 _atom_site_pbe_bader_charge
 _atom_site_pbe_bader_spin_density
 _atom_site_pbe_cm5_charge
 _atom_site_pbe_ddec_charge
 _atom_site_pbe_ddec_spin_density
 _atom_site_pbe_ddec_sum_bond_order
 _atom_site_pbe_magmom
Fe  Fe0  1  0.24489168  0.55932459  0.42614771  1  1.63764  3.966664  0.90327  1.331597  4.680072  2.735671  3.904
Fe  Fe1  1  0.75510442  0.44066794  0.57385995  1  1.637648  3.966663  0.903288  1.331629  4.680084  2.735711  3.904
P  P2  1  0.56901435  0.53854986  0.23271153  1  3.217625  -0.00346  0.343688  1.252634  -0.005299  5.38344  -0.002
P  P3  1  0.07430679  0.23617969  0.45522107  1  3.282789  0.025218  0.368315  1.314608  0.025889  5.316948  0.024
P  P4  1  0.43098790  0.46143452  0.76729118  1  3.216887  -0.00344  0.34376  1.252622  -0.005286  5.382799  -0.002
P  P5  1  0.92569037  0.76381716  0.54477626  1  3.28289  0.025218  0.368471  1.31478  0.025888  5.316249  0.024
H  H6  1  0.68128835  0.77280263  0.00642534  1  0.06303  -0.001509  0.122346  0.141149  -0.000881  0.974755  -0.001
H  H7  1  0.62194235  0.62898428  0.92293867  1  0.161156  -0.005666  0.12431  0.160778  -0.004272  1.017596  -0.005
H  H8  1  0.10957137  0.99142670  0.68421778  1  0.154412  0.025468  0.12437  0.16384  0.009674  1.000373  0.019
H  H9  1  0.19184519  0.15442905  0.71908567  1  0.075651  0.000199  0.118175  0.130034  -0.000573  1.019934  0.0
H  H10  1  0.93262301  0.76790775  0.03463861  1  0.082851  0.00033  0.118103  0.104847  0.000419  0.962561  0.0
H  H11  1  0.96931693  0.58269233  0.20745884  1  0.090659  -0.02682  0.108861  0.087131  -0.021571  1.028438  -0.018
H  H12  1  0.87311651  0.31668371  0.15945034  1  0.121871  -0.026549  0.115199  0.108771  -0.021406  1.005056  -0.02
H  H13  1  0.78041659  0.36917969  0.96861208  1  0.092979  0.000292  0.117928  0.110788  0.000229  0.981567  0.0
H  H14  1  0.44562504  0.11324332  0.73471250  1  0.069109  0.000499  0.111786  0.099107  -0.000371  1.002306  0.0
H  H15  1  0.49116956  0.89923946  0.75680297  1  0.087886  0.034305  0.116937  0.115608  0.013034  0.977554  0.022
H  H16  1  0.38265586  0.80802037  0.53078831  1  0.133319  0.031085  0.114049  0.107303  0.012102  1.032902  0.023
H  H17  1  0.27021916  0.96766794  0.38113458  1  0.142403  -3e-06  0.117948  0.117807  -0.000573  1.005423  0.0
H  H18  1  0.31871482  0.22719067  0.99358198  1  0.062962  -0.001509  0.12235  0.141145  -0.000881  0.974694  -0.001
H  H19  1  0.37806528  0.37101843  0.07706405  1  0.16108  -0.005662  0.124315  0.160762  -0.004269  1.01753  -0.005
H  H20  1  0.89042908  0.00857870  0.31578029  1  0.154357  0.025473  0.124392  0.163882  0.009675  1.000286  0.019
H  H21  1  0.80814576  0.84557758  0.28090156  1  0.0757  0.000198  0.118166  0.130002  -0.000573  1.019873  0.0
H  H22  1  0.06737883  0.23209065  0.96536926  1  0.082828  0.00033  0.118063  0.104791  0.000419  0.962635  0.0
H  H23  1  0.03068993  0.41729610  0.79255461  1  0.090797  -0.026814  0.10879  0.087045  -0.021569  1.028629  -0.018
H  H24  1  0.12688325  0.68330484  0.84055711  1  0.121829  -0.026539  0.115226  0.108811  -0.021397  1.005037  -0.019
H  H25  1  0.21958182  0.63081470  0.03138722  1  0.092909  0.000293  0.117947  0.110831  0.000229  0.98155  0.0
H  H26  1  0.55438027  0.88675786  0.26528284  1  0.069087  0.000499  0.111794  0.099074  -0.000371  1.002287  0.0
H  H27  1  0.50883575  0.10076166  0.24319120  1  0.08785  0.034306  0.116964  0.115653  0.013033  0.97758  0.022
H  H28  1  0.61734712  0.19197976  0.46920786  1  0.133346  0.031085  0.114059  0.107332  0.012103  1.03292  0.023
H  H29  1  0.72978239  0.03234062  0.61885483  1  0.142465  -2e-06  0.117969  0.117844  -0.000574  1.005356  0.0
C  C30  1  0.68277910  0.64219624  0.02345552  1  -0.042377  0.003945  -0.055766  -0.36948  -0.005505  3.881712  0.01
C  C31  1  0.18649960  0.09257388  0.62579844  1  -0.11803  0.027012  -0.057538  -0.384198  0.01242  3.8907  0.009
C  C32  1  0.96217308  0.63498332  0.06848172  1  0.304191  -0.014748  -0.048366  -0.091192  -0.021229  3.894685  -0.008
C  C33  1  0.87321160  0.39893633  0.02566028  1  0.296017  -0.016772  -0.050075  -0.1035  -0.023194  3.875011  -0.009
C  C34  1  0.47296477  0.02406041  0.66527487  1  0.329888  0.022543  -0.046331  -0.095363  0.011263  3.869908  0.012
C  C35  1  0.37053069  0.93954231  0.45539678  1  0.260043  0.025296  -0.054999  -0.119564  0.01217  3.870326  0.014
C  C36  1  0.31721912  0.35780452  0.97654603  1  -0.042209  0.003957  -0.055704  -0.369395  -0.005493  3.881583  0.01
C  C37  1  0.81349973  0.90742991  0.37419209  1  -0.118098  0.027023  -0.057537  -0.384165  0.012423  3.890395  0.009
C  C38  1  0.03782408  0.36501320  0.93153133  1  0.304223  -0.014751  -0.048256  -0.091025  -0.021227  3.895092  -0.008
C  C39  1  0.12678550  0.60106215  0.97434359  1  0.296222  -0.016774  -0.050136  -0.103565  -0.023197  3.874924  -0.009
C  C40  1  0.52703572  0.97594363  0.33472135  1  0.329953  0.02254  -0.046326  -0.095344  0.011263  3.869909  0.012
C  C41  1  0.62946511  0.06046065  0.54459709  1  0.259995  0.025291  -0.055007  -0.119637  0.012167  3.870553  0.014
N  N42  1  0.84276966  0.56755866  0.01864586  1  -1.068503  -0.235677  -0.255882  0.095013  -0.239391  3.541411  -0.185
N  N43  1  0.34447729  0.03396324  0.57063214  1  -1.06424  0.292912  -0.251961  0.109384  0.141411  3.510094  0.225
N  N44  1  0.15722856  0.43244210  0.98135569  1  -1.068693  -0.235587  -0.25593  0.094902  -0.2393  3.541537  -0.184
N  N45  1  0.65552562  0.96603933  0.42936306  1  -1.064252  0.29293  -0.251963  0.109356  0.14142  3.510162  0.225
O  O46  1  0.40871409  0.64933847  0.24765452  1  -1.364523  0.186991  -0.372843  -0.718879  0.09196  2.205904  0.136
O  O47  1  0.67270001  0.54948574  0.36582036  1  -1.364662  0.202226  -0.377161  -0.756857  0.099611  2.363309  0.151
O  O48  1  0.15679190  0.39819267  0.37926498  1  -1.35484  0.212422  -0.370861  -0.748766  0.103757  2.369706  0.16
O  O49  1  0.91367641  0.27094077  0.56366544  1  -1.357325  0.218838  -0.376098  -0.742418  0.107093  2.301346  0.163
O  O50  1  0.54830816  0.36779692  0.24302352  1  -1.441386  0.020019  -0.355161  -0.717594  0.008752  2.139354  0.016
O  O51  1  0.06009750  0.16309578  0.32058960  1  -1.427595  0.034874  -0.352303  -0.702562  0.014343  2.091808  0.029
O  O52  1  0.59129234  0.35066460  0.75235306  1  -1.364173  0.186965  -0.372833  -0.718937  0.091951  2.206262  0.136
O  O53  1  0.32731732  0.45050915  0.63416586  1  -1.364688  0.202222  -0.377148  -0.756841  0.099605  2.363264  0.151
O  O54  1  0.84320395  0.60180874  0.62072353  1  -1.354829  0.212416  -0.370792  -0.748784  0.103756  2.369885  0.16
O  O55  1  0.08632513  0.72906805  0.43632865  1  -1.357338  0.218813  -0.376093  -0.742459  0.107085  2.301161  0.163
O  O56  1  0.45169290  0.63222742  0.75697994  1  -1.441238  0.020045  -0.355295  -0.717648  0.008766  2.138499  0.016
O  O57  1  0.93987458  0.83690852  0.67942225  1  -1.427544  0.034877  -0.352475  -0.702689  0.014344  2.091229  0.029
