# generated using pymatgen
data_Co2P4H20C25O12
_symmetry_space_group_name_H-M   'P 1'
_cell_length_a   12.82048016
_cell_length_b   15.73332299
_cell_length_c   20.46209517
_cell_angle_alpha   89.97334740
_cell_angle_beta   99.15136460
_cell_angle_gamma   90.16911486
_symmetry_Int_Tables_number   1
_chemical_formula_structural   Co2P4H20C25O12
_chemical_formula_sum   'Co8 P16 H80 C100 O48'
_cell_volume   4074.83110477
_cell_formula_units_Z   4
loop_
 _symmetry_equiv_pos_site_id
 _symmetry_equiv_pos_as_xyz
  1  'x, y, z'
loop_
 _atom_site_type_symbol
 _atom_site_label
 _atom_site_symmetry_multiplicity
 _atom_site_fract_x
 _atom_site_fract_y
 _atom_site_fract_z
 _atom_site_occupancy
 _atom_site_pbe_bader_charge
 _atom_site_pbe_bader_spin_density
 _atom_site_pbe_cm5_charge
 _atom_site_pbe_ddec_charge
 _atom_site_pbe_ddec_spin_density
 _atom_site_pbe_ddec_sum_bond_order
 _atom_site_pbe_magmom
Co  Co0  1  0.64925174  0.35025465  0.22257271  1  1.300243  2.623602  0.695488  1.140493  2.804736  2.344235  2.572
Co  Co1  1  0.85039498  0.85079856  0.27967650  1  1.301014  -2.623965  0.696367  1.140921  -2.802663  2.343657  -2.572
Co  Co2  1  0.35314084  0.65082120  0.77829089  1  1.301271  -2.626232  0.695955  1.140792  -2.801911  2.34089  -2.574
Co  Co3  1  0.14727755  0.14910926  0.71946959  1  1.30085  2.622994  0.69655  1.140749  2.803628  2.339048  2.571
Co  Co4  1  0.64943263  0.64979021  0.23331058  1  1.305622  -2.62822  0.698027  1.13408  -2.807521  2.347119  -2.576
Co  Co5  1  0.84840008  0.14917593  0.26839926  1  1.309527  2.629046  0.699203  1.137276  2.809909  2.344204  2.577
Co  Co6  1  0.35243687  0.34962865  0.76574775  1  1.307564  -2.629578  0.69784  1.135548  -2.806028  2.345491  -2.577
Co  Co7  1  0.14984439  0.85009029  0.73149535  1  1.30834  -2.629919  0.698735  1.137167  -2.806031  2.341651  -2.578
P  P8  1  0.31891461  0.23093802  0.64389861  1  3.398383  0.00099  0.377597  1.305934  0.000773  5.316703  0.001
P  P9  1  0.17988526  0.73114147  0.85280901  1  3.393328  -0.010065  0.377198  1.303453  -0.012653  5.318697  -0.009
P  P10  1  0.68025969  0.76773944  0.35558597  1  3.345764  -0.010153  0.377738  1.30575  -0.01259  5.317934  -0.01
P  P11  1  0.82030031  0.26848707  0.14716167  1  3.400606  0.010046  0.376261  1.301431  0.012731  5.322879  0.01
P  P12  1  0.47932329  0.50728865  0.18802340  1  3.371329  -0.000511  0.383568  1.301853  -0.000994  5.348966  0.001
P  P13  1  0.02169259  0.00849136  0.31108285  1  3.343295  0.000563  0.383624  1.301773  0.001038  5.343505  -0.001
P  P14  1  0.52193778  0.49316134  0.81257357  1  3.361858  -0.010118  0.383397  1.301608  -0.012561  5.350409  -0.011
P  P15  1  0.97624513  0.99113761  0.68838077  1  3.360204  -0.000554  0.385536  1.302588  -0.001046  5.342285  0.001
P  P16  1  0.33499039  0.77121947  0.65572754  1  3.347121  -0.010359  0.384576  1.289938  -0.012366  5.303153  -0.011
P  P17  1  0.16920806  0.26809180  0.84201081  1  3.338021  -0.001236  0.385429  1.289452  -0.001166  5.30285  -0.003
P  P18  1  0.66542799  0.22916609  0.34496562  1  3.348492  0.010394  0.384012  1.288232  0.012428  5.307902  0.011
P  P19  1  0.83181983  0.73140763  0.15683598  1  3.358861  -0.010339  0.383492  1.287881  -0.012458  5.306902  -0.011
P  P20  1  0.81599976  0.49637588  0.26296574  1  3.398081  -0.000224  0.380198  1.29355  -0.000154  5.335327  -0.001
P  P21  1  0.68130944  0.99468929  0.23877729  1  3.374603  0.000183  0.380381  1.294612  9.3e-05  5.334717  0.001
P  P22  1  0.18748990  0.50415429  0.73634554  1  3.386941  -0.010016  0.379362  1.292039  -0.012446  5.337116  -0.01
P  P23  1  0.31535218  0.00503589  0.76196056  1  3.389636  -0.000221  0.381231  1.295659  -9e-05  5.331983  -0.001
H  H24  1  0.40371997  0.39114903  0.40067798  1  0.06053  -5e-06  0.097134  0.097164  -8e-06  1.033284  0.0
H  H25  1  0.09475376  0.88995347  0.09873862  1  0.072645  1e-06  0.096518  0.096195  8e-06  1.034252  0.0
H  H26  1  0.59699641  0.60808089  0.59931321  1  0.061338  -2.5e-05  0.09681  0.096568  -1e-06  1.034185  0.0
H  H27  1  0.90373045  0.10969379  0.90090214  1  0.07605  -1.3e-05  0.096717  0.096598  -1.2e-05  1.034822  0.0
H  H28  1  0.48831612  0.38793346  0.30059656  1  0.108312  0.000593  0.099215  0.102072  0.000244  1.053401  0.0
H  H29  1  0.01065814  0.88825632  0.19906623  1  0.095514  -0.000529  0.099289  0.102419  -0.000193  1.053548  0.0
H  H30  1  0.51205200  0.61163431  0.69916040  1  0.106748  -0.000613  0.0997  0.102496  -0.000238  1.051855  0.0
H  H31  1  0.98815301  0.11108424  0.80071501  1  0.113095  0.000534  0.099513  0.103322  0.000218  1.051484  0.0
H  H32  1  0.36068891  0.63597181  0.24519190  1  0.063857  1.4e-05  0.11105  0.111781  8.4e-05  0.975619  0.0
H  H33  1  0.14032130  0.13680626  0.25227932  1  0.099217  4e-06  0.111145  0.113271  -7.3e-05  0.975149  0.0
H  H34  1  0.64501289  0.36586837  0.75717871  1  0.090885  8e-06  0.110911  0.112102  8.4e-05  0.97587  0.0
H  H35  1  0.85383598  0.86437073  0.74599696  1  0.079281  -1e-05  0.111365  0.112206  6.5e-05  0.975033  0.0
H  H36  1  0.27027631  0.63604103  0.34313533  1  0.051126  3.8e-05  0.104815  0.10705  1.6e-05  0.993704  0.0
H  H37  1  0.23041591  0.13528315  0.15421613  1  0.054803  -4.9e-05  0.104549  0.106949  -2.1e-05  0.99466  0.0
H  H38  1  0.73540142  0.36566502  0.65923940  1  0.062934  -4.3e-05  0.10431  0.106944  -1.6e-05  0.994314  0.0
H  H39  1  0.76403421  0.86609624  0.84411594  1  0.064498  3.8e-05  0.104029  0.106812  1.5e-05  0.995503  0.0
H  H40  1  0.17655630  0.39421885  0.33947577  1  0.088544  -0.00013  0.105539  0.107642  -6e-05  0.995847  0.0
H  H41  1  0.32202568  0.89026828  0.15782723  1  0.085342  0.000128  0.104859  0.106589  5.9e-05  0.996272  0.0
H  H42  1  0.82625206  0.60615452  0.66115865  1  0.068076  -0.000149  0.105388  0.107154  -5e-05  0.996301  0.0
H  H43  1  0.67441829  0.11008935  0.84206779  1  0.061334  -0.000126  0.105766  0.107366  -5.7e-05  0.996159  0.0
H  H44  1  0.99913907  0.38554306  0.27229280  1  0.068962  5.9e-05  0.109641  0.116344  -0.000106  0.990256  0.0
H  H45  1  0.49831188  0.88178622  0.22646534  1  0.090877  -7e-05  0.10982  0.116711  9.8e-05  0.988117  0.0
H  H46  1  0.00417702  0.61508272  0.72765367  1  0.112989  -9.4e-05  0.109881  0.117154  0.000115  0.991417  0.0
H  H47  1  0.49760559  0.11815885  0.77398335  1  0.100506  8.4e-05  0.110081  0.117656  8.2e-05  0.989355  0.0
H  H48  1  0.91442475  0.62115829  0.35828344  1  0.102963  -4e-06  0.108699  0.118704  0.000176  1.000756  0.0
H  H49  1  0.58492645  0.11920509  0.14322619  1  0.10186  0.0  0.107926  0.118028  -0.000177  1.001815  0.0
H  H50  1  0.08878954  0.38015224  0.64057692  1  0.105091  -0.000157  0.108621  0.118576  -2.5e-05  1.002436  0.0
H  H51  1  0.41220688  0.88089101  0.85790827  1  0.114606  -4e-06  0.108483  0.118584  0.000178  1.002659  0.0
H  H52  1  0.09029931  0.62684064  0.42810773  1  0.095708  8.9e-05  0.101322  0.104661  2.6e-05  1.024452  0.0
H  H53  1  0.41024265  0.12473528  0.07200780  1  0.078905  -9.9e-05  0.101501  0.105154  -3.1e-05  1.024176  0.0
H  H54  1  0.91260585  0.37446563  0.57123798  1  0.07787  -8e-05  0.101555  0.105377  -2.1e-05  1.024982  0.0
H  H55  1  0.58737083  0.87570784  0.92863178  1  0.078744  8.8e-05  0.101368  0.105221  2.6e-05  1.024501  0.0
H  H56  1  0.40882729  0.64173211  0.44629688  1  0.041801  -9.3e-05  0.095732  0.093645  -2.9e-05  1.062425  0.0
H  H57  1  0.09185899  0.13905299  0.05071384  1  0.054741  -9.4e-05  0.095877  0.093679  -3.5e-05  1.065065  0.0
H  H58  1  0.59621204  0.35635984  0.55639353  1  0.094105  7.7e-05  0.096227  0.094147  2.6e-05  1.061682  0.0
H  H59  1  0.90482193  0.86063686  0.94707626  1  0.088628  -9.1e-05  0.095583  0.092849  -2.9e-05  1.063401  0.0
H  H60  1  0.44388965  0.74597387  0.53653228  1  0.074401  -9.2e-05  0.103678  0.10007  -1.8e-05  0.996489  0.0
H  H61  1  0.05913445  0.24324844  0.96037876  1  0.068979  1.9e-05  0.103773  0.099816  9e-06  0.995758  0.0
H  H62  1  0.56029126  0.25201934  0.46616919  1  0.057649  9.4e-05  0.103423  0.099799  2.2e-05  0.997147  0.0
H  H63  1  0.93954025  0.75641229  0.03736528  1  0.056411  -9.6e-05  0.103304  0.099619  -1.9e-05  0.996257  0.0
H  H64  1  0.17599154  0.64991376  0.61812459  1  0.105065  -7.1e-05  0.110124  0.119146  0.000179  1.00618  0.0
H  H65  1  0.32851460  0.14744500  0.88097595  1  0.098802  1.8e-05  0.110328  0.119066  -5.1e-05  1.00728  0.0
H  H66  1  0.82322273  0.35158836  0.38123200  1  0.10513  7.3e-05  0.1107  0.120081  -0.000178  1.006202  0.0
H  H67  1  0.67310231  0.85267485  0.11960425  1  0.110709  -7.6e-05  0.110287  0.119189  0.000172  1.007626  0.0
H  H68  1  0.14537517  0.54238671  0.52983504  1  0.060616  -2.6e-05  0.104173  0.105553  -5e-06  1.001465  0.0
H  H69  1  0.35700394  0.04006259  0.96954132  1  0.066984  2.9e-05  0.104087  0.105741  1.3e-05  1.002776  0.0
H  H70  1  0.85465228  0.45883907  0.46962965  1  0.089963  2.4e-05  0.104528  0.105849  6e-06  1.002543  0.0
H  H71  1  0.64258344  0.95999991  0.03108205  1  0.064096  -2.5e-05  0.103854  0.1049  -7e-06  1.003015  0.0
H  H72  1  0.12674933  0.36850720  0.44660929  1  0.08107  -3e-05  0.100131  0.10356  -1.6e-05  1.033089  0.0
H  H73  1  0.37136388  0.86637876  0.05128062  1  0.081342  -2.7e-05  0.100559  0.104085  -5e-06  1.033506  0.0
H  H74  1  0.87311358  0.63334471  0.55421143  1  0.077329  -2.9e-05  0.100261  0.104789  -6e-06  1.033701  0.0
H  H75  1  0.62600493  0.13332047  0.94936851  1  0.077786  3.4e-05  0.100311  0.104574  9e-06  1.033483  0.0
H  H76  1  0.15636299  0.25701404  0.53160843  1  0.102535  0.000209  0.112923  0.117745  8e-06  0.976831  0.0
H  H77  1  0.34135936  0.75610059  0.96546079  1  0.080022  -0.000199  0.111841  0.116012  4.6e-05  0.97839  0.0
H  H78  1  0.84246611  0.74406284  0.46865242  1  0.100245  -0.000199  0.112375  0.11641  3.9e-05  0.977713  0.0
H  H79  1  0.65677067  0.24325672  0.03555048  1  0.101747  0.000204  0.112083  0.116956  -4.1e-05  0.977768  0.0
H  H80  1  0.45749012  0.36838516  0.61009022  1  0.100848  -4.8e-05  0.10235  0.099583  -5e-06  1.022838  0.0
H  H81  1  0.04069571  0.86753928  0.88778798  1  0.095379  -7.7e-05  0.102319  0.099785  8e-06  1.022807  0.0
H  H82  1  0.54451618  0.62834845  0.38896142  1  0.099059  -8.7e-05  0.103033  0.101115  1e-06  1.025038  0.0
H  H83  1  0.95831669  0.13218554  0.11146978  1  0.079658  7.4e-05  0.101966  0.099796  -1.1e-05  1.024851  0.0
H  H84  1  0.43006095  0.47837406  0.52330085  1  0.076555  0.00013  0.098013  0.095762  5.4e-05  1.036207  0.0
H  H85  1  0.06859538  0.97637183  0.97543017  1  0.037446  -0.000133  0.097789  0.094659  -4.7e-05  1.037141  0.0
H  H86  1  0.57275848  0.51939617  0.47650322  1  0.030661  -0.00013  0.097638  0.096221  -4.5e-05  1.036281  0.0
H  H87  1  0.92964417  0.02370060  0.02353836  1  0.05642  0.000134  0.097661  0.095152  4.8e-05  1.036011  0.0
H  H88  1  0.35874844  0.09507566  0.64294271  1  0.661233  2.4e-05  0.31533  0.399444  -2.6e-05  0.923369  0.0
H  H89  1  0.14306462  0.59440027  0.85403708  1  0.671623  -6.5e-05  0.315536  0.399883  -4.3e-05  0.923046  0.0
H  H90  1  0.63877827  0.90334637  0.35707884  1  0.668504  -7e-05  0.315665  0.400381  -4.4e-05  0.921732  0.0
H  H91  1  0.85971138  0.40473966  0.14560871  1  0.669877  8.7e-05  0.315479  0.399063  5.1e-05  0.923771  0.0
H  H92  1  0.36617321  0.45057865  0.11047897  1  0.649934  -0.000857  0.356847  0.417207  -0.000531  0.839253  -0.001
H  H93  1  0.13522855  0.95290296  0.38875457  1  0.632433  0.000876  0.356065  0.417513  0.000532  0.83799  0.001
H  H94  1  0.63614380  0.54847154  0.89020728  1  0.635935  -0.000713  0.356354  0.416865  -0.000343  0.838809  -0.001
H  H95  1  0.86109526  0.04628434  0.61140662  1  0.63454  -0.000915  0.355394  0.416284  -0.000551  0.838623  -0.001
H  H96  1  0.85306217  0.55422178  0.16871935  1  0.662616  -0.000144  0.320089  0.394228  -1e-05  0.929506  0.0
H  H97  1  0.64146830  0.05261180  0.33231367  1  0.674444  0.000141  0.319916  0.394952  4e-06  0.928625  0.0
H  H98  1  0.15085662  0.44577873  0.83060899  1  0.665856  0.000104  0.319956  0.394307  0.000111  0.93013  0.0
H  H99  1  0.35587781  0.94713250  0.66844599  1  0.66696  -0.000139  0.319159  0.394008  -6e-06  0.93081  0.0
H  H100  1  0.47999752  0.84539035  0.65771874  1  0.646031  -9.3e-05  0.362041  0.41857  -4.6e-05  0.827072  0.0
H  H101  1  0.02687497  0.34438144  0.84046506  1  0.612449  -0.000132  0.361513  0.418881  -6.8e-05  0.827258  0.0
H  H102  1  0.51888058  0.15680211  0.34231038  1  0.659574  8.8e-05  0.362524  0.420522  4.4e-05  0.8252  0.0
H  H103  1  0.97658118  0.65782785  0.15914520  1  0.633443  -8.1e-05  0.361456  0.419891  -3.7e-05  0.826816  0.0
C  C104  1  0.25721513  0.51008145  0.43180288  1  0.040585  7e-06  0.012961  -0.010958  5e-06  3.789697  0.0
C  C105  1  0.24255630  0.00785980  0.06663890  1  0.019244  -2.4e-05  0.014941  -0.005934  -2.1e-05  3.784837  0.0
C  C106  1  0.74507401  0.49011279  0.56883964  1  0.027719  -1.6e-05  0.015548  -0.006868  -1.5e-05  3.78499  0.0
C  C107  1  0.75491650  0.99235978  0.93290670  1  0.054296  1e-05  0.01323  -0.009764  1e-05  3.790861  0.0
C  C108  1  0.32958790  0.51305830  0.37874150  1  -0.056441  -0.000395  0.000828  0.075006  -0.000196  3.920853  0.0
C  C109  1  0.17010663  0.01193035  0.11966618  1  -0.038578  0.000199  -0.001877  0.071097  9.7e-05  3.919261  0.0
C  C110  1  0.67317728  0.48720178  0.62226064  1  -0.056559  -0.000741  -0.001242  0.071176  -0.000366  3.919928  0.0
C  C111  1  0.82673143  0.98844951  0.87950445  1  -0.035933  -0.000123  -0.00049  0.073986  -5.8e-05  3.920157  0.0
C  C112  1  0.39368412  0.44499333  0.36673300  1  -0.071413  0.000366  -0.094091  -0.135779  0.000172  3.975364  0.0
C  C113  1  0.10543801  0.94420678  0.13228703  1  -0.034829  -0.000316  -0.093192  -0.134718  -0.00015  3.972915  0.0
C  C114  1  0.60787283  0.55472227  0.63368672  1  0.000193  -0.000158  -0.092836  -0.133257  -4.7e-05  3.971881  0.0
C  C115  1  0.89232824  0.05566037  0.86715909  1  -0.052961  0.000283  -0.093941  -0.136206  0.000137  3.971975  0.0
C  C116  1  0.44186897  0.44323266  0.31002937  1  -0.015109  -0.00034  -0.08197  -0.051367  -8.2e-05  3.983013  0.0
C  C117  1  0.05746565  0.94334199  0.18911837  1  -0.030556  0.000254  -0.082937  -0.051717  5.7e-05  3.981508  0.0
C  C118  1  0.55948432  0.55663784  0.69034076  1  -0.073616  -0.001022  -0.082352  -0.051622  -0.000586  3.980302  -0.001
C  C119  1  0.94044535  0.05639627  0.81035557  1  -0.028722  -0.000171  -0.082802  -0.05258  -2e-05  3.976207  0.0
C  C120  1  0.42824319  0.51070567  0.26499048  1  -0.564079  0.000394  -0.030145  -0.228693  0.000148  4.054298  0.001
C  C121  1  0.07179305  0.01133853  0.23367533  1  -0.539698  -0.000481  -0.028387  -0.224818  -0.000204  4.046493  -0.001
C  C122  1  0.57433036  0.48989680  0.73602003  1  -0.531733  -0.002004  -0.029937  -0.228509  -0.000614  4.051582  -0.001
C  C123  1  0.92507917  0.98879348  0.76547117  1  -0.602117  0.000491  -0.02955  -0.225411  0.000214  4.044511  0.001
C  C124  1  0.36938891  0.58186625  0.27897498  1  0.02442  -0.000218  -0.076718  -0.05049  -7.5e-05  4.001846  0.0
C  C125  1  0.13108239  0.08221684  0.21898104  1  -0.03692  9.6e-05  -0.076488  -0.052502  6e-06  3.998774  0.0
C  C126  1  0.63485049  0.41932751  0.72278448  1  -0.073063  -0.000684  -0.078104  -0.0539  -0.000342  4.001143  0.0
C  C127  1  0.86431460  0.91854434  0.77968633  1  -0.023445  -4.4e-05  -0.078344  -0.052445  2.3e-05  4.00108  0.0
C  C128  1  0.32006849  0.58233710  0.33464339  1  -0.070685  0.000474  -0.090142  -0.133955  0.000249  3.981828  0.0
C  C129  1  0.18021944  0.08181257  0.16321169  1  -0.064427  -0.000439  -0.090799  -0.134503  -0.00023  3.979234  0.0
C  C130  1  0.68424063  0.41872389  0.66711882  1  -0.039095  -0.000121  -0.089616  -0.133115  -5.1e-05  3.981546  0.0
C  C131  1  0.81526311  0.91905229  0.83547542  1  -0.066595  0.000386  -0.089401  -0.134423  0.000201  3.981508  0.0
C  C132  1  0.14517195  0.50931950  0.39079986  1  -0.020795  0.002087  0.002454  0.075537  0.001065  3.907629  0.001
C  C133  1  0.35440353  0.00642548  0.10794041  1  -0.029462  -0.002135  0.001492  0.075724  -0.001091  3.905295  -0.001
C  C134  1  0.85749948  0.49145242  0.60926511  1  -0.029155  -0.00205  0.001469  0.074991  -0.00104  3.90914  -0.001
C  C135  1  0.64272158  0.99388129  0.89219188  1  -0.050737  0.00205  0.002323  0.076079  0.001046  3.908053  0.001
C  C136  1  0.11838573  0.44309871  0.34487282  1  -0.070023  -0.000923  -0.087624  -0.126368  -0.000463  3.975336  -0.001
C  C137  1  0.38040563  0.93961760  0.15336756  1  -0.064756  0.000901  -0.08591  -0.125227  0.000453  3.972926  0.001
C  C138  1  0.88453318  0.55753932  0.65529358  1  0.003329  0.000127  -0.087134  -0.125333  5.1e-05  3.975048  0.0
C  C139  1  0.61625430  0.06067788  0.84681587  1  -0.061396  -0.000905  -0.088485  -0.127297  -0.000461  3.974682  -0.001
C  C140  1  0.01915025  0.43875659  0.30628182  1  -0.034929  0.000841  -0.079651  -0.055811  0.000352  3.981094  0.0
C  C141  1  0.47897049  0.93536110  0.19278655  1  -0.05206  -0.000788  -0.079468  -0.055661  -0.000335  3.978374  0.0
C  C142  1  0.98408204  0.56201596  0.69353079  1  -0.082526  -0.002377  -0.080084  -0.057143  -0.001174  3.982733  -0.002
C  C143  1  0.51739770  0.06472996  0.80772342  1  -0.057694  0.000831  -0.078752  -0.0559  0.000333  3.981286  0.0
C  C144  1  0.94465118  0.50279772  0.31144821  1  -0.602151  -0.000529  -0.032276  -0.217949  -0.000309  4.046879  -0.001
C  C145  1  0.55366154  0.00006170  0.18885987  1  -0.603845  0.000481  -0.030579  -0.215751  0.000299  4.042731  0.001
C  C146  1  0.05867666  0.49817336  0.68793575  1  -0.612677  -0.009149  -0.032052  -0.219169  -0.004091  4.049914  -0.006
C  C147  1  0.44299290  0.99992850  0.81194423  1  -0.555814  -0.000468  -0.031486  -0.216764  -0.000299  4.044754  -0.001
C  C148  1  0.97157399  0.57072148  0.35500455  1  -0.067739  0.002539  -0.07781  -0.049486  0.001352  3.976792  0.002
C  C149  1  0.52761428  0.06833078  0.14557192  1  0.034006  -0.002476  -0.07938  -0.051645  -0.001335  3.981216  -0.002
C  C150  1  0.03165935  0.43052226  0.64413422  1  -0.092904  -0.002763  -0.07861  -0.049777  -0.001323  3.978716  -0.002
C  C151  1  0.46932750  0.93182430  0.85534747  1  0.001988  0.002485  -0.07916  -0.050675  0.001334  3.979207  0.002
C  C152  1  0.07109624  0.57352010  0.39440473  1  -0.029392  -0.00021  -0.095172  -0.143025  -9e-05  3.981882  0.0
C  C153  1  0.42878937  0.07107706  0.10539918  1  -0.09371  0.000164  -0.094394  -0.143315  7.4e-05  3.982284  0.0
C  C154  1  0.93187971  0.42767371  0.60503738  1  -0.014542  0.000267  -0.094736  -0.142911  0.000127  3.98225  0.0
C  C155  1  0.56844330  0.92929259  0.89521912  1  -0.106411  -0.000181  -0.094367  -0.143458  -8.6e-05  3.982978  0.0
C  C156  1  0.27400229  0.58481774  0.48080766  1  -0.04039  -0.001389  0.000402  0.074568  -0.000712  3.921848  -0.001
C  C157  1  0.22741483  0.08242130  0.01746073  1  -0.056314  -0.001218  0.001058  0.073133  -0.000617  3.922113  -0.001
C  C158  1  0.72831407  0.41503832  0.52009461  1  -0.012571  0.001459  -6e-05  0.07289  0.00075  3.921651  0.001
C  C159  1  0.77075012  0.91757468  0.98187383  1  -0.00745  -0.001397  0.000372  0.072332  -0.000718  3.923114  -0.001
C  C160  1  0.35707125  0.64307100  0.48355104  1  -0.006079  9.1e-05  -0.095205  -0.143451  3.4e-05  3.982608  0.0
C  C161  1  0.14447515  0.14048729  0.01394590  1  -0.002044  -9.6e-05  -0.095971  -0.143811  -6.3e-05  3.98809  0.0
C  C162  1  0.64661004  0.35576283  0.51836164  1  -0.056464  -0.000163  -0.095157  -0.14262  -6.5e-05  3.983851  0.0
C  C163  1  0.85334665  0.85934144  0.98448579  1  -0.046202  0.000113  -0.09524  -0.14168  4.3e-05  3.984681  0.0
C  C164  1  0.37739591  0.70220944  0.53508842  1  -0.018268  -0.002027  -0.082382  -0.054604  -0.001048  4.009053  -0.001
C  C165  1  0.12543197  0.19951340  0.96231213  1  -0.065188  -0.001836  -0.083922  -0.057674  -0.000945  4.009767  -0.001
C  C166  1  0.62578970  0.29660863  0.46684291  1  -0.035395  0.002157  -0.08297  -0.056205  0.001114  4.007795  0.001
C  C167  1  0.87349419  0.80029676  0.03606575  1  -0.052838  -0.002116  -0.082047  -0.056149  -0.00109  4.009385  -0.001
C  C168  1  0.31271069  0.70477507  0.58393556  1  -0.584675  -0.005167  -0.027947  -0.21106  -0.002019  4.030924  -0.003
C  C169  1  0.19115277  0.20208806  0.91401527  1  -0.567268  -0.003787  -0.026735  -0.207815  -0.002003  4.027602  -0.002
C  C170  1  0.68865717  0.29510735  0.41698178  1  -0.597628  0.005108  -0.027781  -0.209189  0.001989  4.029493  0.003
C  C171  1  0.80920881  0.79783391  0.08512430  1  -0.607771  -0.005289  -0.02793  -0.208827  -0.002079  4.027928  -0.003
C  C172  1  0.22667734  0.64827906  0.58025271  1  -0.055025  -0.001262  -0.074832  -0.041553  -0.000435  3.958967  -0.001
C  C173  1  0.27704838  0.14577267  0.91842863  1  0.034223  -0.000601  -0.074863  -0.04038  -0.000309  3.956181  0.0
C  C174  1  0.77374574  0.35242766  0.41981289  1  -0.039379  0.001319  -0.074947  -0.042677  0.000479  3.958107  0.001
C  C175  1  0.72353968  0.85430119  0.08156790  1  0.02159  -0.001254  -0.074819  -0.042349  -0.000452  3.955389  -0.001
C  C176  1  0.20910046  0.58853092  0.53002932  1  -0.01348  0.000396  -0.0856  -0.121032  0.000188  3.963442  0.0
C  C177  1  0.29344645  0.08614982  0.96883110  1  -0.05893  0.000301  -0.086256  -0.1223  0.000159  3.960394  0.0
C  C178  1  0.79181534  0.41205552  0.47007384  1  -0.044314  -0.000439  -0.086223  -0.121592  -0.000196  3.968013  0.0
C  C179  1  0.70601352  0.91390700  0.03120473  1  -0.065765  0.000417  -0.085594  -0.119917  0.000191  3.962393  0.0
C  C180  1  0.27697099  0.43134469  0.47748976  1  -0.050869  0.000451  -0.000501  0.071438  0.00023  3.912554  0.0
C  C181  1  0.22147951  0.92924745  0.02090193  1  -0.031218  -0.001273  -0.000211  0.070841  -0.000648  3.90813  -0.001
C  C182  1  0.72440270  0.56851757  0.52282853  1  -0.049157  -0.001153  -0.001127  0.070703  -0.000586  3.910669  -0.001
C  C183  1  0.77633979  0.07076713  0.97883467  1  -0.052722  0.001086  -0.000255  0.071909  0.000551  3.908461  0.001
C  C184  1  0.20117367  0.36792902  0.48061768  1  -0.081238  -0.000286  -0.093808  -0.142668  -0.000153  3.9872  0.0
C  C185  1  0.29689267  0.86600794  0.01732912  1  -0.04126  0.000107  -0.095726  -0.146029  4.7e-05  3.989413  0.0
C  C186  1  0.79910774  0.63283657  0.51980056  1  -0.086801  0.000135  -0.094451  -0.146345  6.2e-05  3.987761  0.0
C  C187  1  0.70082208  0.13372797  0.98299150  1  -0.070761  -0.000137  -0.094255  -0.14588  -6.2e-05  3.988418  0.0
C  C188  1  0.21744694  0.30463929  0.52890844  1  0.01346  0.000382  -0.076109  -0.045881  0.000129  3.980263  0.0
C  C189  1  0.28038894  0.80341729  0.96853120  1  -0.039671  -0.001503  -0.074083  -0.042314  -0.000674  3.979069  -0.001
C  C190  1  0.78221296  0.69568466  0.47119734  1  -0.008153  -0.001486  -0.075594  -0.043704  -0.000668  3.978711  -0.001
C  C191  1  0.71773875  0.19613149  0.03193986  1  -0.012993  0.001449  -0.075616  -0.04391  0.000651  3.978756  0.001
C  C192  1  0.30951910  0.30412591  0.57593518  1  -0.599778  0.003925  -0.022876  -0.1926  0.00205  3.994462  0.002
C  C193  1  0.18847693  0.80334167  0.92136800  1  -0.571649  -0.006527  -0.023569  -0.192123  -0.002593  3.991703  -0.004
C  C194  1  0.69067274  0.69479850  0.42372715  1  -0.510611  -0.006382  -0.021918  -0.189232  -0.00259  3.99038  -0.004
C  C195  1  0.81022778  0.19626759  0.07858544  1  -0.592178  0.006602  -0.023591  -0.191911  0.002617  3.993549  0.004
C  C196  1  0.38685138  0.36645699  0.57251726  1  -0.082433  0.001322  -0.077449  -0.049013  0.000713  3.977234  0.001
C  C197  1  0.11130666  0.86525090  0.92535345  1  -0.091633  -0.00185  -0.078462  -0.05026  -0.000906  3.974699  -0.001
C  C198  1  0.61451377  0.63148793  0.42696467  1  -0.039647  -0.001787  -0.079684  -0.053687  -0.000877  3.978511  -0.001
C  C199  1  0.88737529  0.13448686  0.07415868  1  -0.040981  0.001765  -0.07821  -0.050068  0.000872  3.973977  0.001
C  C200  1  0.37088765  0.42848559  0.52350506  1  -0.025093  0.0003  -0.090866  -0.130129  0.000159  3.966577  0.0
C  C201  1  0.12750051  0.92661161  0.97491532  1  0.018029  -0.000182  -0.090454  -0.128144  -0.000107  3.964856  0.0
C  C202  1  0.63097859  0.57001777  0.47637355  1  -0.024107  -0.000148  -0.090578  -0.129956  -8.1e-05  3.966845  0.0
C  C203  1  0.87072308  0.07333674  0.02447188  1  -0.020523  0.000158  -0.090873  -0.130296  9.1e-05  3.964246  0.0
O  O204  1  0.37221447  0.14823138  0.61907726  1  -1.409263  -0.006085  -0.395193  -0.647887  -0.003101  2.160014  -0.005
O  O205  1  0.12627409  0.64763632  0.87655366  1  -1.420967  -0.008421  -0.394772  -0.648841  -0.003398  2.160148  -0.006
O  O206  1  0.62529083  0.84971414  0.38026297  1  -1.416501  -0.008443  -0.395084  -0.648661  -0.003418  2.161938  -0.007
O  O207  1  0.87595781  0.35106883  0.12353165  1  -1.417572  0.008419  -0.394363  -0.646677  0.003404  2.161933  0.006
O  O208  1  0.20477967  0.21374341  0.65378612  1  -1.414765  0.084232  -0.374003  -0.78577  0.043339  2.352222  0.058
O  O209  1  0.29435833  0.71509721  0.84342803  1  -1.415104  -0.091023  -0.37402  -0.785071  -0.046094  2.355301  -0.063
O  O210  1  0.79416050  0.78616109  0.34585298  1  -1.412786  -0.090404  -0.37464  -0.785273  -0.045826  2.352382  -0.063
O  O211  1  0.70626640  0.28626567  0.15656446  1  -1.414287  0.090708  -0.373894  -0.783692  0.04593  2.356346  0.063
O  O212  1  0.39246302  0.26731934  0.70392866  1  -1.415154  -0.081148  -0.377206  -0.781191  -0.041667  2.313453  -0.054
O  O213  1  0.10718466  0.76776098  0.79265183  1  -1.412681  -0.08455  -0.376111  -0.778539  -0.042524  2.310196  -0.057
O  O214  1  0.60753453  0.73056318  0.29553471  1  -1.412504  -0.084073  -0.376726  -0.780799  -0.042389  2.316092  -0.056
O  O215  1  0.89217560  0.23076719  0.20719896  1  -1.413364  0.084658  -0.375611  -0.778689  0.042661  2.314641  0.057
O  O216  1  0.53772552  0.42433303  0.18219172  1  -1.435524  0.072167  -0.378675  -0.795062  0.037781  2.375814  0.047
O  O217  1  0.96343146  0.92536761  0.31776126  1  -1.436217  -0.072036  -0.379087  -0.795426  -0.03767  2.377122  -0.047
O  O218  1  0.46483091  0.57672715  0.81849733  1  -1.436082  -0.076199  -0.378659  -0.793568  -0.038839  2.374229  -0.051
O  O219  1  0.03406808  0.07442111  0.68160300  1  -1.436264  0.071722  -0.37915  -0.794942  0.037614  2.375231  0.047
O  O220  1  0.37765425  0.50670480  0.13040837  1  -1.375613  0.001139  -0.38634  -0.628038  0.000841  2.121333  0.001
O  O221  1  0.12429538  0.00858948  0.36805035  1  -1.359823  -0.001021  -0.385525  -0.628936  -0.000749  2.119101  -0.001
O  O222  1  0.62258383  0.49219120  0.87087858  1  -1.358706  -0.012484  -0.385206  -0.627216  -0.005442  2.122443  -0.009
O  O223  1  0.87421056  0.99011032  0.63096387  1  -1.351978  0.00111  -0.385264  -0.628247  0.000808  2.119544  0.001
O  O224  1  0.53440259  0.59105283  0.17888975  1  -1.408446  -0.077892  -0.367176  -0.745709  -0.039238  2.316508  -0.052
O  O225  1  0.96685228  0.09204861  0.32034062  1  -1.408855  0.078112  -0.367074  -0.746635  0.039439  2.314881  0.052
O  O226  1  0.46539968  0.40982625  0.82082563  1  -1.409804  -0.081436  -0.367316  -0.747738  -0.040454  2.320217  -0.055
O  O227  1  0.03164323  0.90768054  0.67967468  1  -1.408132  -0.077698  -0.367199  -0.746878  -0.039198  2.316751  -0.052
O  O228  1  0.77193570  0.40815788  0.27171996  1  -1.422067  0.072342  -0.362932  -0.772916  0.037181  2.401627  0.051
O  O229  1  0.72626638  0.90680883  0.23090952  1  -1.422153  -0.072306  -0.363552  -0.773952  -0.037176  2.404241  -0.051
O  O230  1  0.23186512  0.59234579  0.72796813  1  -1.4223  -0.079317  -0.363602  -0.772207  -0.039907  2.401529  -0.057
O  O231  1  0.27004137  0.09279848  0.76962716  1  -1.42063  0.072538  -0.362936  -0.772409  0.037459  2.40384  0.052
O  O232  1  0.75259561  0.57172133  0.28037197  1  -1.428746  -0.072151  -0.364704  -0.777529  -0.037329  2.406089  -0.051
O  O233  1  0.74491075  0.07050290  0.22186064  1  -1.429339  0.071698  -0.364599  -0.779192  0.037108  2.406771  0.05
O  O234  1  0.25045144  0.42869534  0.71865059  1  -1.42963  -0.075447  -0.364393  -0.776763  -0.038178  2.404426  -0.054
O  O235  1  0.25191358  0.92914615  0.77894960  1  -1.42699  -0.072  -0.36495  -0.778919  -0.03728  2.404472  -0.051
O  O236  1  0.83167726  0.49861755  0.18560487  1  -1.410978  0.000863  -0.373962  -0.660156  0.00048  2.26141  0.0
O  O237  1  0.66326314  0.99711444  0.31569628  1  -1.413757  -0.00091  -0.37473  -0.661761  -0.0005  2.260605  0.0
O  O238  1  0.17210137  0.50147561  0.81373460  1  -1.410425  -0.001236  -0.374295  -0.661099  -5.7e-05  2.26409  0.0
O  O239  1  0.33360794  0.00249335  0.68509980  1  -1.412165  0.000863  -0.374219  -0.662458  0.000508  2.264694  0.0
O  O240  1  0.40415956  0.72731063  0.71355729  1  -1.426264  -0.070477  -0.373167  -0.785402  -0.035697  2.32744  -0.047
O  O241  1  0.09723701  0.22490018  0.78486969  1  -1.424826  0.069024  -0.373023  -0.783468  0.035558  2.32451  0.046
O  O242  1  0.59750958  0.27425392  0.28721817  1  -1.426866  0.070162  -0.372045  -0.784397  0.035474  2.332554  0.047
O  O243  1  0.90143065  0.77538355  0.21458527  1  -1.431237  -0.070827  -0.372981  -0.784351  -0.035706  2.331329  -0.047
O  O244  1  0.40609181  0.85281400  0.63800942  1  -1.368765  -0.007419  -0.369637  -0.62573  -0.00295  2.165605  -0.005
O  O245  1  0.10095966  0.35082600  0.86020921  1  -1.335824  0.005802  -0.369876  -0.627783  0.00293  2.168595  0.004
O  O246  1  0.59256074  0.14843434  0.36217291  1  -1.383844  0.007364  -0.36945  -0.628156  0.002921  2.164192  0.005
O  O247  1  0.90287691  0.65022195  0.13891716  1  -1.356634  -0.007412  -0.369729  -0.628846  -0.002948  2.163885  -0.005
O  O248  1  0.22874748  0.80527459  0.66517993  1  -1.42676  -0.06792  -0.357881  -0.751402  -0.034325  2.376923  -0.046
O  O249  1  0.27599048  0.30008347  0.83140931  1  -1.42402  -0.066971  -0.357101  -0.748136  -0.034432  2.382337  -0.046
O  O250  1  0.77113816  0.19403818  0.33550254  1  -1.423553  0.06808  -0.358577  -0.750878  0.03448  2.377623  0.046
O  O251  1  0.72562580  0.69713059  0.16653253  1  -1.42451  -0.068666  -0.356751  -0.747783  -0.034697  2.380131  -0.046
