# generated using pymatgen
data_ZnHC6O7
_symmetry_space_group_name_H-M   'P 1'
_cell_length_a   6.89885435
_cell_length_b   15.15917837
_cell_length_c   15.16075111
_cell_angle_alpha   117.72643842
_cell_angle_beta   98.71845663
_cell_angle_gamma   98.72756773
_symmetry_Int_Tables_number   1
_chemical_formula_structural   ZnHC6O7
_chemical_formula_sum   'Zn6 H6 C36 O42'
_cell_volume   1341.75232882
_cell_formula_units_Z   6
loop_
 _symmetry_equiv_pos_site_id
 _symmetry_equiv_pos_as_xyz
  1  'x, y, z'
loop_
 _atom_site_type_symbol
 _atom_site_label
 _atom_site_symmetry_multiplicity
 _atom_site_fract_x
 _atom_site_fract_y
 _atom_site_fract_z
 _atom_site_occupancy
 _atom_site_hle17_bader_spin_density
 _atom_site_hle17_ddec_charge
 _atom_site_hle17_ddec_spin_density
 _atom_site_hle17_ddec_sum_bond_order
 _atom_site_hle17_magmom
 _atom_site_hse06_10hf_bader_spin_density
 _atom_site_hse06_10hf_ddec_charge
 _atom_site_hse06_10hf_ddec_spin_density
 _atom_site_hse06_10hf_ddec_sum_bond_order
 _atom_site_hse06_10hf_magmom
 _atom_site_hse06_bader_spin_density
 _atom_site_hse06_ddec_charge
 _atom_site_hse06_ddec_spin_density
 _atom_site_hse06_ddec_sum_bond_order
 _atom_site_hse06_magmom
 _atom_site_pbe_bader_spin_density
 _atom_site_pbe_cm5_charge
 _atom_site_pbe_ddec_charge
 _atom_site_pbe_ddec_spin_density
 _atom_site_pbe_ddec_sum_bond_order
 _atom_site_pbe_magmom
Zn  Zn0  1  0.47280105  0.26208933  0.58945051  1  0  1.18153  0  1.75115  0  0  1.019675  0  2.202886  0  0  1.069394  0  2.140545  0  0  0.690608  0.984219  0  2.246072  0
Zn  Zn1  1  0.21064544  0.32723579  0.73794962  1  0  1.182073  0  1.751062  0  0  1.019749  0  2.203172  0  0  1.069462  0  2.14085  0  0  0.690674  0.98433  0  2.246337  0
Zn  Zn2  1  0.88346690  0.41061036  0.67277673  1  0  1.181831  0  1.750791  0  0  1.019559  0  2.202919  0  0  1.069282  0  2.140585  0  0  0.690722  0.984126  0  2.246104  0
Zn  Zn3  1  0.52719832  0.73790976  0.41054877  1  0  1.18156  0  1.751081  0  0  1.01972  0  2.202797  0  0  1.069433  0  2.140461  0  0  0.690618  0.984264  0  2.245984  0
Zn  Zn4  1  0.78935171  0.67276177  0.26204945  1  0  1.182072  0  1.751008  0  0  1.019723  0  2.203123  0  0  1.069444  0  2.140806  0  0  0.690649  0.984298  0  2.246287  0
Zn  Zn5  1  0.11653062  0.58938797  0.32722206  1  0  1.181815  0  1.750883  0  0  1.019543  0  2.203005  0  0  1.069276  0  2.140668  0  0  0.690729  0.984112  0  2.246188  0
H  H6  1  0.81379087  0.44546230  0.46971198  1  0  0.122447  0  0.958319  0  0  0.129903  0  1.024007  0  0  0.133912  0  1.021273  0  0  0.102456  0.126984  0  1.026143  0
H  H7  1  0.36821344  0.02415301  0.55473623  1  0  0.122264  0  0.95862  0  0  0.129482  0  1.024584  0  0  0.133467  0  1.02192  0  0  0.102336  0.126594  0  1.026673  0
H  H8  1  0.34399938  0.53047444  0.97570506  1  0  0.122215  0  0.957968  0  0  0.129415  0  1.024082  0  0  0.133389  0  1.021413  0  0  0.102499  0.126536  0  1.026163  0
H  H9  1  0.18620373  0.55453602  0.53028726  1  0  0.122438  0  0.958319  0  0  0.129867  0  1.024023  0  0  0.133879  0  1.021287  0  0  0.102441  0.126944  0  1.026162  0
H  H10  1  0.63178518  0.97584455  0.44526558  1  0  0.122313  0  0.95861  0  0  0.12952  0  1.024565  0  0  0.1335  0  1.02191  0  0  0.102352  0.126633  0  1.026654  0
H  H11  1  0.65600031  0.46952234  0.02429382  1  0  0.122216  0  0.957924  0  0  0.129395  0  1.024068  0  0  0.133371  0  1.021394  0  0  0.102475  0.126505  0  1.026162  0
C  C12  1  0.24696055  0.43340018  0.60480193  1  0  0.715806  0  3.804421  0  0  0.662071  0  4.091878  0  0  0.699933  0  4.080333  0  0  0.222543  0.636098  0  4.099145  0
C  C13  1  0.81348562  0.17136655  0.56655949  1  0  0.715976  0  3.804137  0  0  0.662563  0  4.091543  0  0  0.700485  0  4.079922  0  0  0.222894  0.636572  0  4.098834  0
C  C14  1  0.64208410  0.39508121  0.82866251  1  0  0.7159  0  3.80547  0  0  0.662365  0  4.092732  0  0  0.700191  0  4.081261  0  0  0.223161  0.636421  0  4.099941  0
C  C15  1  0.75303513  0.56659737  0.39519704  1  0  0.715821  0  3.804415  0  0  0.662093  0  4.091848  0  0  0.699959  0  4.080301  0  0  0.222513  0.636101  0  4.099142  0
C  C16  1  0.18650968  0.82863023  0.43343975  1  0  0.715988  0  3.804226  0  0  0.662713  0  4.091423  0  0  0.700632  0  4.079802  0  0  0.223022  0.636722  0  4.098714  0
C  C17  1  0.35791312  0.60491943  0.17133667  1  0  0.716012  0  3.805287  0  0  0.662432  0  4.092595  0  0  0.700255  0  4.081123  0  0  0.22317  0.63649  0  4.099802  0
C  C18  1  0.56038454  0.43029423  0.53177881  1  0  0.328636  0  3.848461  0  0  0.309911  0  4.110632  0  0  0.321704  0  4.130368  0  0  0.065418  0.301569  0  4.09707  0
C  C19  1  0.13001499  0.10143872  0.56980339  1  0  0.328586  0  3.847356  0  0  0.310717  0  4.10872  0  0  0.322488  0  4.128445  0  0  0.065783  0.302377  0  4.095181  0
C  C20  1  0.02852499  0.46826572  0.89855622  1  0  0.32807  0  3.847652  0  0  0.309908  0  4.109536  0  0  0.32169  0  4.129243  0  0  0.065319  0.301569  0  4.096009  0
C  C21  1  0.43961222  0.56970256  0.46821987  1  0  0.328561  0  3.848329  0  0  0.309832  0  4.110518  0  0  0.321627  0  4.130257  0  0  0.065373  0.301488  0  4.096955  0
C  C22  1  0.86998439  0.89856038  0.43019720  1  0  0.328607  0  3.84735  0  0  0.310758  0  4.108688  0  0  0.322528  0  4.128414  0  0  0.065815  0.302419  0  4.095145  0
C  C23  1  0.97146821  0.53173569  0.10144305  1  0  0.328128  0  3.847387  0  0  0.309909  0  4.109305  0  0  0.3217  0  4.129013  0  0  0.065307  0.301572  0  4.095773  0
C  C24  1  0.18786485  0.09240686  0.33589092  1  0  0.835705  0  3.756783  0  0  0.767576  0  4.078305  0  0  0.811801  0  4.062972  0  0  0.376974  0.737471  0  4.08848  0
C  C25  1  0.09591737  0.24340657  0.90756436  1  0  0.836421  0  3.754877  0  0  0.768169  0  4.076325  0  0  0.812385  0  4.061024  0  0  0.378063  0.738065  0  4.086454  0
C  C26  1  0.85295307  0.66404423  0.75675596  1  0  0.836419  0  3.758369  0  0  0.768217  0  4.079761  0  0  0.812443  0  4.064437  0  0  0.377702  0.73811  0  4.089884  0
C  C27  1  0.81213230  0.90759070  0.66410880  1  0  0.835944  0  3.756876  0  0  0.767813  0  4.078385  0  0  0.81204  0  4.063045  0  0  0.377087  0.737707  0  4.088557  0
C  C28  1  0.90408307  0.75659176  0.09242606  1  0  0.836593  0  3.754659  0  0  0.768301  0  4.076166  0  0  0.812514  0  4.060864  0  0  0.378101  0.738197  0  4.086297  0
C  C29  1  0.14706121  0.33596411  0.24325589  1  0  0.836161  0  3.758308  0  0  0.768027  0  4.079669  0  0  0.812247  0  4.064363  0  0  0.377607  0.737918  0  4.089791  0
C  C30  1  0.37983219  0.46353594  0.54984966  1  0  -0.166691  0  3.733572  0  0  -0.14934  0  3.97292  0  0  -0.159344  0  3.995199  0  0  -0.035495  -0.142487  0  3.957763  0
C  C31  1  0.91631399  0.08631540  0.53640431  1  0  -0.167691  0  3.734406  0  0  -0.151109  0  3.97444  0  0  -0.161074  0  3.996618  0  0  -0.036656  -0.144277  0  3.959339  0
C  C32  1  0.82993721  0.45006984  0.91372370  1  0  -0.167016  0  3.734711  0  0  -0.150754  0  3.975273  0  0  -0.160688  0  3.997463  0  0  -0.035795  -0.143928  0  3.96015  0
C  C33  1  0.62016310  0.53646084  0.45014825  1  0  -0.166685  0  3.73352  0  0  -0.149322  0  3.97286  0  0  -0.159341  0  3.995155  0  0  -0.035488  -0.142464  0  3.95771  0
C  C34  1  0.08368763  0.91368524  0.46359913  1  0  -0.167684  0  3.734431  0  0  -0.151125  0  3.974407  0  0  -0.161084  0  3.996586  0  0  -0.036693  -0.144291  0  3.959302  0
C  C35  1  0.17005885  0.54992849  0.08627433  1  0  -0.167087  0  3.734641  0  0  -0.150779  0  3.975202  0  0  -0.160713  0  3.997392  0  0  -0.035784  -0.143954  0  3.96008  0
C  C36  1  0.67445241  0.46898623  0.48274267  1  0  -0.19242  0  3.739517  0  0  -0.224827  0  3.996682  0  0  -0.228617  0  4.017326  0  0  -0.113461  -0.222108  0  3.982788  0
C  C37  1  0.20538023  0.01371625  0.53119172  1  0  -0.191899  0  3.739736  0  0  -0.224074  0  3.996921  0  0  -0.227935  0  4.017652  0  0  -0.112911  -0.221336  0  3.982916  0
C  C38  1  0.19166079  0.51738661  0.98622769  1  0  -0.191855  0  3.739061  0  0  -0.224105  0  3.996609  0  0  -0.227897  0  4.017245  0  0  -0.114028  -0.221371  0  3.982593  0
C  C39  1  0.32554258  0.53101287  0.51725895  1  0  -0.192299  0  3.739331  0  0  -0.224676  0  3.996492  0  0  -0.228467  0  4.017128  0  0  -0.113383  -0.221954  0  3.982598  0
C  C40  1  0.79461406  0.98628439  0.46881056  1  0  -0.191947  0  3.7396  0  0  -0.22411  0  3.996767  0  0  -0.227966  0  4.017489  0  0  -0.112944  -0.221365  0  3.982747  0
C  C41  1  0.80833705  0.48260941  0.01377137  1  0  -0.191806  0  3.738926  0  0  -0.224032  0  3.996526  0  0  -0.227825  0  4.01716  0  0  -0.11394  -0.221291  0  3.982515  0
C  C42  1  0.29472478  0.79019073  0.66376850  1  0  0.813143  0  3.785905  0  0  0.750537  0  4.103431  0  0  0.794853  0  4.088055  0  0  0.36493  0.720357  0  4.113555  0
C  C43  1  0.50482677  0.87417615  0.21038303  1  0  0.814579  0  3.784158  0  0  0.752255  0  4.101529  0  0  0.796591  0  4.086069  0  0  0.366019  0.722067  0  4.111701  0
C  C44  1  0.63061613  0.33608099  0.12574937  1  0  0.814707  0  3.785357  0  0  0.752272  0  4.102773  0  0  0.79661  0  4.087255  0  0  0.365756  0.722089  0  4.112973  0
C  C45  1  0.70528125  0.20980991  0.33623657  1  0  0.813061  0  3.786022  0  0  0.750459  0  4.103548  0  0  0.79478  0  4.088165  0  0  0.364823  0.720283  0  4.113672  0
C  C46  1  0.49517236  0.12582835  0.78961545  1  0  0.81453  0  3.784194  0  0  0.752185  0  4.101574  0  0  0.796519  0  4.086116  0  0  0.36595  0.721998  0  4.111744  0
C  C47  1  0.36939496  0.66391811  0.87424279  1  0  0.814454  0  3.785751  0  0  0.752009  0  4.103169  0  0  0.796344  0  4.087659  0  0  0.365621  0.721825  0  4.113365  0
O  O48  1  0.28949334  0.36920319  0.63254778  1  0  -0.685166  0  2.24464  0  0  -0.601405  0  2.524257  0  0  -0.631892  0  2.506384  0  0  -0.314688  -0.580073  0  2.535941  0
O  O49  1  0.92019246  0.26322953  0.63090903  1  0  -0.683891  0  2.243261  0  0  -0.60034  0  2.523111  0  0  -0.630894  0  2.505248  0  0  -0.314122  -0.579015  0  2.53485  0
O  O50  1  0.65700695  0.36738917  0.73677789  1  0  -0.684379  0  2.243777  0  0  -0.600432  0  2.523053  0  0  -0.630706  0  2.504904  0  0  -0.314511  -0.57925  0  2.53491  0
O  O51  1  0.71050273  0.63079514  0.36745223  1  0  -0.685241  0  2.244653  0  0  -0.601446  0  2.524213  0  0  -0.631938  0  2.506355  0  0  -0.314698  -0.580108  0  2.535905  0
O  O52  1  0.07980692  0.73676957  0.36909156  1  0  -0.683838  0  2.24334  0  0  -0.600382  0  2.523224  0  0  -0.630932  0  2.505353  0  0  -0.314147  -0.579058  0  2.534963  0
O  O53  1  0.34298918  0.63261224  0.26322158  1  0  -0.684402  0  2.24378  0  0  -0.600421  0  2.523041  0  0  -0.630684  0  2.504884  0  0  -0.31452  -0.579247  0  2.5349  0
O  O54  1  0.63046605  0.36530288  0.55841515  1  0  -0.71405  0  2.207588  0  0  -0.629042  0  2.508078  0  0  -0.660283  0  2.495859  0  0  -0.362882  -0.606517  0  2.515652  0
O  O55  1  0.26512463  0.19303636  0.63485469  1  0  -0.714135  0  2.206793  0  0  -0.629316  0  2.50689  0  0  -0.660482  0  2.494578  0  0  -0.363068  -0.606846  0  2.514522  0
O  O56  1  0.07207729  0.44168625  0.80695269  1  0  -0.714452  0  2.208821  0  0  -0.628883  0  2.507845  0  0  -0.660075  0  2.49562  0  0  -0.362792  -0.606439  0  2.51547  0
O  O57  1  0.36952631  0.63469390  0.44158389  1  0  -0.714079  0  2.207664  0  0  -0.629017  0  2.508017  0  0  -0.660259  0  2.495802  0  0  -0.362892  -0.606492  0  2.515589  0
O  O58  1  0.73487591  0.80696505  0.36514640  1  0  -0.714085  0  2.206861  0  0  -0.629296  0  2.506969  0  0  -0.660461  0  2.494657  0  0  -0.363042  -0.606825  0  2.514597  0
O  O59  1  0.92792063  0.55831285  0.19304715  1  0  -0.714568  0  2.208803  0  0  -0.628923  0  2.507785  0  0  -0.660154  0  2.495597  0  0  -0.362805  -0.60648  0  2.515407  0
O  O60  1  0.24809931  0.17350328  0.41137637  1  0  -0.413213  0  2.08352  0  0  -0.373594  0  2.316173  0  0  -0.396241  0  2.303696  0  0  -0.164842  -0.358195  0  2.324415  0
O  O61  1  0.07332132  0.23800252  0.82651132  1  0  -0.413969  0  2.083096  0  0  -0.373788  0  2.315126  0  0  -0.396462  0  2.302783  0  0  -0.165267  -0.358435  0  2.323453  0
O  O62  1  0.83737598  0.58862992  0.76255386  1  0  -0.413847  0  2.08421  0  0  -0.374028  0  2.316796  0  0  -0.396724  0  2.304446  0  0  -0.165237  -0.358661  0  2.325132  0
O  O63  1  0.75190370  0.82649428  0.58862375  1  0  -0.413319  0  2.083517  0  0  -0.373678  0  2.316122  0  0  -0.396328  0  2.303651  0  0  -0.164853  -0.358294  0  2.324404  0
O  O64  1  0.92668204  0.76199581  0.17347534  1  0  -0.414097  0  2.083261  0  0  -0.373863  0  2.315264  0  0  -0.39653  0  2.302914  0  0  -0.165259  -0.358506  0  2.323583  0
O  O65  1  0.16263459  0.41137688  0.23745043  1  0  -0.413659  0  2.084014  0  0  -0.373906  0  2.316576  0  0  -0.396604  0  2.304238  0  0  -0.165203  -0.358541  0  2.324911  0
O  O66  1  0.62377891  0.15153040  0.52739412  1  0  -0.641009  0  2.023597  0  0  -0.5765  0  2.28871  0  0  -0.605299  0  2.274044  0  0  -0.313397  -0.556299  0  2.298135  0
O  O67  1  0.47217992  0.37581442  0.84852506  1  0  -0.641519  0  2.023935  0  0  -0.576345  0  2.288237  0  0  -0.605089  0  2.273605  0  0  -0.313541  -0.556217  0  2.297707  0
O  O68  1  0.09630042  0.47250653  0.62401775  1  0  -0.64096  0  2.022965  0  0  -0.576033  0  2.287636  0  0  -0.604741  0  2.272953  0  0  -0.313236  -0.555935  0  2.297202  0
O  O69  1  0.37622047  0.84846869  0.47260713  1  0  -0.641035  0  2.023597  0  0  -0.576614  0  2.288695  0  0  -0.605408  0  2.274017  0  0  -0.313447  -0.55641  0  2.298125  0
O  O70  1  0.52781692  0.62418545  0.15147506  1  0  -0.641566  0  2.023859  0  0  -0.576396  0  2.288203  0  0  -0.605137  0  2.273564  0  0  -0.313561  -0.556268  0  2.297671  0
O  O71  1  0.90369379  0.52749103  0.37598178  1  0  -0.640895  0  2.022944  0  0  -0.576011  0  2.287649  0  0  -0.60472  0  2.272966  0  0  -0.313202  -0.555899  0  2.297207  0
O  O72  1  0.12702794  0.01205025  0.26020353  1  0  -0.388689  0  1.974096  0  0  -0.355769  0  2.163959  0  0  -0.377096  0  2.154779  0  0  -0.166597  -0.341378  0  2.170066  0
O  O73  1  0.11729010  0.24788144  0.98789067  1  0  -0.38862  0  1.973279  0  0  -0.355706  0  2.163122  0  0  -0.377034  0  2.15397  0  0  -0.167017  -0.341309  0  2.169204  0
O  O74  1  0.86814645  0.73965100  0.75187233  1  0  -0.38873  0  1.975135  0  0  -0.355774  0  2.16481  0  0  -0.377094  0  2.155638  0  0  -0.166748  -0.341383  0  2.170892  0
O  O75  1  0.87296881  0.98794653  0.73979449  1  0  -0.388833  0  1.974221  0  0  -0.355922  0  2.16409  0  0  -0.377249  0  2.154904  0  0  -0.166703  -0.341527  0  2.170198  0
O  O76  1  0.88270870  0.75212536  0.01210160  1  0  -0.388686  0  1.972866  0  0  -0.355763  0  2.162759  0  0  -0.377091  0  2.153612  0  0  -0.167048  -0.341364  0  2.168838  0
O  O77  1  0.13185952  0.26036119  0.24814669  1  0  -0.388603  0  1.975221  0  0  -0.35566  0  2.16487  0  0  -0.376979  0  2.155703  0  0  -0.166666  -0.341269  0  2.17095  0
O  O78  1  0.13434252  0.76578607  0.60783450  1  0  -0.385141  0  2.013446  0  0  -0.351736  0  2.214006  0  0  -0.373726  0  2.205432  0  0  -0.168329  -0.336849  0  2.219626  0
O  O79  1  0.36847917  0.84274452  0.23467177  1  0  -0.385641  0  2.012496  0  0  -0.352411  0  2.212801  0  0  -0.374386  0  2.20416  0  0  -0.169038  -0.337543  0  2.218486  0
O  O80  1  0.52607934  0.39186163  0.15772754  1  0  -0.385872  0  2.01314  0  0  -0.352624  0  2.213418  0  0  -0.374602  0  2.204743  0  0  -0.168886  -0.337749  0  2.219112  0
O  O81  1  0.86565943  0.23421226  0.39217185  1  0  -0.385065  0  2.013457  0  0  -0.351657  0  2.214015  0  0  -0.373644  0  2.20543  0  0  -0.168265  -0.336772  0  2.219632  0
O  O82  1  0.63152391  0.15725612  0.76532716  1  0  -0.385748  0  2.012546  0  0  -0.3525  0  2.212865  0  0  -0.374473  0  2.204224  0  0  -0.169094  -0.33763  0  2.21855  0
O  O83  1  0.47393175  0.60813747  0.84226463  1  0  -0.385751  0  2.013275  0  0  -0.352495  0  2.213566  0  0  -0.374486  0  2.204915  0  0  -0.168847  -0.337619  0  2.219259  0
O  O84  1  0.45429092  0.81527710  0.72098519  1  0  -0.411207  0  1.975086  0  0  -0.37805  0  2.162888  0  0  -0.399802  0  2.153064  0  0  -0.183499  -0.363241  0  2.169366  0
O  O85  1  0.63964304  0.90623133  0.18538619  1  0  -0.412208  0  1.975393  0  0  -0.37931  0  2.163521  0  0  -0.401076  0  2.153643  0  0  -0.183996  -0.364486  0  2.170021  0
O  O86  1  0.73298261  0.27897661  0.09315876  1  0  -0.412107  0  1.974963  0  0  -0.379148  0  2.162962  0  0  -0.400911  0  2.153085  0  0  -0.183878  -0.364328  0  2.169465  0
O  O87  1  0.54571987  0.18472431  0.27901462  1  0  -0.411203  0  1.9752  0  0  -0.378043  0  2.162997  0  0  -0.399799  0  2.153168  0  0  -0.183458  -0.363236  0  2.169475  0
O  O88  1  0.36035948  0.09377701  0.81461497  1  0  -0.412058  0  1.975383  0  0  -0.379151  0  2.163515  0  0  -0.400918  0  2.153644  0  0  -0.183871  -0.364324  0  2.170014  0
O  O89  1  0.26703027  0.72102018  0.90683574  1  0  -0.411966  0  1.97519  0  0  -0.379007  0  2.163202  0  0  -0.400767  0  2.153328  0  0  -0.183784  -0.364188  0  2.169703  0
