# generated using pymatgen
data_InH7C4O5
_symmetry_space_group_name_H-M   'P 1'
_cell_length_a   6.50791616
_cell_length_b   7.35644444
_cell_length_c   8.15593377
_cell_angle_alpha   90.00256881
_cell_angle_beta   113.46215925
_cell_angle_gamma   90.00204838
_symmetry_Int_Tables_number   1
_chemical_formula_structural   InH7C4O5
_chemical_formula_sum   'In2 H14 C8 O10'
_cell_volume   358.18383971
_cell_formula_units_Z   2
loop_
 _symmetry_equiv_pos_site_id
 _symmetry_equiv_pos_as_xyz
  1  'x, y, z'
loop_
 _atom_site_type_symbol
 _atom_site_label
 _atom_site_symmetry_multiplicity
 _atom_site_fract_x
 _atom_site_fract_y
 _atom_site_fract_z
 _atom_site_occupancy
 _atom_site_pbe_bader_spin_density
 _atom_site_pbe_cm5_charge
 _atom_site_pbe_ddec_charge
 _atom_site_pbe_ddec_spin_density
 _atom_site_pbe_ddec_sum_bond_order
 _atom_site_pbe_magmom
In  In0  1  0.00003878  0.49994533  0.00000671  1  0  0.771357  1.561092  0  2.806804  0
In  In1  1  0.99994889  0.99994676  0.99997242  1  0  0.771366  1.561109  0  2.806752  0
H  H2  1  0.31187699  0.25001970  0.00086815  1  0  0.326827  0.420241  0  0.868238  0
H  H3  1  0.68811583  0.74998416  0.99914751  1  0  0.326792  0.420185  0  0.868275  0
H  H4  1  0.65667634  0.87230444  0.49842987  1  0  0.101091  0.156691  0  1.017457  0
H  H5  1  0.34331786  0.37222652  0.50160680  1  0  0.101108  0.156693  0  1.017526  0
H  H6  1  0.15766446  0.62774242  0.50099441  1  0  0.101196  0.157059  0  1.017126  0
H  H7  1  0.84233029  0.12780503  0.49900258  1  0  0.101229  0.157236  0  1.017473  0
H  H8  1  0.34323918  0.12781224  0.50152869  1  0  0.101122  0.156708  0  1.017502  0
H  H9  1  0.65677860  0.62788881  0.49844797  1  0  0.101044  0.156661  0  1.01742  0
H  H10  1  0.84231222  0.37224513  0.49896543  1  0  0.101164  0.157055  0  1.017338  0
H  H11  1  0.15769201  0.87218388  0.50103787  1  0  0.101173  0.157146  0  1.017603  0
H  H12  1  0.75593217  0.75015776  0.35641080  1  0  0.107914  0.169018  0  0.992138  0
H  H13  1  0.24407991  0.25003505  0.64359304  1  0  0.107825  0.168933  0  0.99241  0
H  H14  1  0.39918400  0.74998548  0.64212960  1  0  0.108026  0.169695  0  0.992072  0
H  H15  1  0.60081997  0.24997488  0.35786534  1  0  0.108039  0.169773  0  0.991998  0
C  C16  1  0.40211292  0.75003575  0.26673498  1  0  0.241675  0.729039  0  4.095114  0
C  C17  1  0.59789234  0.24997490  0.73326899  1  0  0.241672  0.729069  0  4.095258  0
C  C18  1  0.13621806  0.74996195  0.73343482  1  0  0.241109  0.729013  0  4.09727  0
C  C19  1  0.86378742  0.24998074  0.26656431  1  0  0.241227  0.729229  0  4.09722  0
C  C20  1  0.63145285  0.75011656  0.41628607  1  0  -0.242573  -0.53116  0  3.845184  0
C  C21  1  0.36855397  0.25000012  0.58372088  1  0  -0.24249  -0.531128  0  3.845383  0
C  C22  1  0.21493447  0.74999876  0.58313441  1  0  -0.242864  -0.53346  0  3.849412  0
C  C23  1  0.78507252  0.24998334  0.41686891  1  0  -0.243006  -0.533809  0  3.849627  0
O  O24  1  0.16226666  0.24994498  0.99969863  1  0  -0.532605  -0.915234  0  2.08507  0
O  O25  1  0.83769963  0.74991886  0.00026502  1  0  -0.532539  -0.915175  0  2.085037  0
O  O26  1  0.31530567  0.59517005  0.20848853  1  0  -0.29599  -0.60667  0  2.266005  0
O  O27  1  0.68468450  0.09510401  0.79151795  1  0  -0.296105  -0.606881  0  2.266473  0
O  O28  1  0.10791147  0.90483809  0.79191931  1  0  -0.295659  -0.606117  0  2.266211  0
O  O29  1  0.89204704  0.40483303  0.20805855  1  0  -0.295673  -0.606202  0  2.266508  0
O  O30  1  0.68471028  0.40482293  0.79157920  1  0  -0.296056  -0.606595  0  2.266177  0
O  O31  1  0.31528674  0.90487809  0.20841182  1  0  -0.296089  -0.606729  0  2.266533  0
O  O32  1  0.89191303  0.09508828  0.20802163  1  0  -0.295684  -0.606248  0  2.265885  0
O  O33  1  0.10814031  0.59509199  0.79201625  1  0  -0.295621  -0.606238  0  2.266287  0
