# generated using pymatgen
data_CdH14C20N4(O3F2)2
_symmetry_space_group_name_H-M   'P 1'
_cell_length_a   6.91910415
_cell_length_b   7.98440913
_cell_length_c   11.02146620
_cell_angle_alpha   104.21693824
_cell_angle_beta   106.81306611
_cell_angle_gamma   102.98037977
_symmetry_Int_Tables_number   1
_chemical_formula_structural   CdH14C20N4(O3F2)2
_chemical_formula_sum   'Cd1 H14 C20 N4 O6 F4'
_cell_volume   535.55603338
_cell_formula_units_Z   1
loop_
 _symmetry_equiv_pos_site_id
 _symmetry_equiv_pos_as_xyz
  1  'x, y, z'
loop_
 _atom_site_type_symbol
 _atom_site_label
 _atom_site_symmetry_multiplicity
 _atom_site_fract_x
 _atom_site_fract_y
 _atom_site_fract_z
 _atom_site_occupancy
 _atom_site_hle17_bader_spin_density
 _atom_site_hle17_ddec_charge
 _atom_site_hle17_ddec_spin_density
 _atom_site_hle17_ddec_sum_bond_order
 _atom_site_hle17_magmom
 _atom_site_hse06_10hf_bader_spin_density
 _atom_site_hse06_10hf_ddec_charge
 _atom_site_hse06_10hf_ddec_spin_density
 _atom_site_hse06_10hf_ddec_sum_bond_order
 _atom_site_hse06_10hf_magmom
 _atom_site_hse06_bader_spin_density
 _atom_site_hse06_ddec_charge
 _atom_site_hse06_ddec_spin_density
 _atom_site_hse06_ddec_sum_bond_order
 _atom_site_hse06_magmom
 _atom_site_pbe_bader_spin_density
 _atom_site_pbe_cm5_charge
 _atom_site_pbe_ddec_charge
 _atom_site_pbe_ddec_spin_density
 _atom_site_pbe_ddec_sum_bond_order
 _atom_site_pbe_magmom
Cd  Cd0  1  0.99999493  0.49999501  0.49999611  1  0  1.129516  0  1.661331  0  0  0.941386  0  2.097884  0  0  0.995711  0  2.047767  0  0  0.769626  0.902963  0  2.131975  0
H  H1  1  0.35678714  0.34811593  0.94824901  1  0  0.114165  0  0.948082  0  0  0.121867  0  1.011693  0  0  0.12511  0  1.010733  0  0  0.110506  0.119548  0  1.012579  0
H  H2  1  0.64320999  0.65189807  0.05175281  1  0  0.114181  0  0.948064  0  0  0.12191  0  1.011618  0  0  0.125146  0  1.010662  0  0  0.110496  0.119591  0  1.012504  0
H  H3  1  0.31804607  0.96423338  0.58208336  1  0  0.126668  0  0.952403  0  0  0.136237  0  1.011846  0  0  0.13984  0  1.010254  0  0  0.110293  0.133774  0  1.012812  0
H  H4  1  0.68195911  0.03576854  0.41792489  1  0  0.126744  0  0.952529  0  0  0.136325  0  1.011927  0  0  0.139893  0  1.010419  0  0  0.110343  0.133834  0  1.012929  0
H  H5  1  0.43458140  0.89569568  0.78969213  1  0  0.086661  0  0.919064  0  0  0.095362  0  0.986232  0  0  0.099431  0  0.980856  0  0  0.118637  0.092444  0  0.989979  0
H  H6  1  0.56542212  0.10431433  0.21031913  1  0  0.086582  0  0.919117  0  0  0.095298  0  0.986275  0  0  0.099223  0  0.981252  0  0  0.118592  0.09238  0  0.99002  0
H  H7  1  0.15884403  0.15274806  0.45782708  1  0  0.071966  0  0.966624  0  0  0.076525  0  1.038458  0  0  0.078563  0  1.036915  0  0  0.109889  0.074977  0  1.039694  0
H  H8  1  0.84116567  0.84724992  0.54217578  1  0  0.071956  0  0.966676  0  0  0.076526  0  1.038489  0  0  0.078843  0  1.036461  0  0  0.109895  0.074977  0  1.039724  0
H  H9  1  0.20020000  0.52417233  0.80889247  1  0  0.085405  0  0.95526  0  0  0.088826  0  1.026676  0  0  0.091933  0  1.023433  0  0  0.112291  0.086522  0  1.029067  0
H  H10  1  0.79979671  0.47583220  0.19110209  1  0  0.085435  0  0.955135  0  0  0.088839  0  1.026598  0  0  0.091949  0  1.023328  0  0  0.112296  0.086517  0  1.029013  0
H  H11  1  0.45933476  0.65763863  0.59576281  1  0  0.418553  0  0.88155  0  0  0.386667  0  0.947849  0  0  0.396719  0  0.933273  0  0  0.288458  0.379598  0  0.958065  0
H  H12  1  0.54065693  0.34235088  0.40423721  1  0  0.418464  0  0.881689  0  0  0.386569  0  0.948  0  0  0.396582  0  0.933516  0  0  0.288436  0.379499  0  0.958218  0
H  H13  1  0.35169907  0.58631932  0.43943671  1  0  0.409576  0  0.898784  0  0  0.377025  0  0.965459  0  0  0.388616  0  0.948835  0  0  0.281813  0.368825  0  0.977196  0
H  H14  1  0.64829762  0.41367163  0.56056353  1  0  0.409627  0  0.898709  0  0  0.377047  0  0.965437  0  0  0.388641  0  0.948806  0  0  0.28181  0.368847  0  0.977173  0
C  C15  1  0.31583056  0.30199683  0.83980615  1  0  -0.135712  0  3.675466  0  0  -0.15759  0  3.923203  0  0  -0.16455  0  3.943844  0  0  -0.074491  -0.152951  0  3.909131  0
C  C16  1  0.68416914  0.69801586  0.16019586  1  0  -0.135747  0  3.67554  0  0  -0.157612  0  3.923249  0  0  -0.164751  0  3.944287  0  0  -0.074463  -0.152974  0  3.909176  0
C  C17  1  0.90535605  0.02393811  0.87989304  1  0  0.196687  0  3.793436  0  0  0.154622  0  4.107858  0  0  0.164985  0  4.115172  0  0  0.086833  0.148298  0  4.102391  0
C  C18  1  0.09464596  0.97605165  0.12009610  1  0  0.196585  0  3.793653  0  0  0.15459  0  4.107968  0  0  0.163492  0  4.116931  0  0  0.086805  0.148264  0  4.1025  0
C  C19  1  0.02901941  0.83457469  0.99944445  1  0  0.202071  0  3.791865  0  0  0.162822  0  4.101534  0  0  0.172596  0  4.108976  0  0  0.088507  0.15593  0  4.097123  0
C  C20  1  0.97098051  0.16542178  0.00054919  1  0  0.201925  0  3.792041  0  0  0.162641  0  4.101782  0  0  0.17282  0  4.107968  0  0  0.088445  0.155743  0  4.097379  0
C  C21  1  0.93212119  0.85581301  0.87713416  1  0  -0.207009  0  3.765385  0  0  -0.215655  0  4.044688  0  0  -0.21996  0  4.056868  0  0  -0.028088  -0.212889  0  4.036217  0
C  C22  1  0.06786920  0.14417788  0.12285591  1  0  -0.206877  0  3.765479  0  0  -0.215524  0  4.044704  0  0  -0.220282  0  4.058168  0  0  -0.028054  -0.212754  0  4.03623  0
C  C23  1  0.86824145  0.70374029  0.74529992  1  0  0.710574  0  3.884846  0  0  0.651009  0  4.195687  0  0  0.686944  0  4.183615  0  0  0.22176  0.626862  0  4.202696  0
C  C24  1  0.13175067  0.29624655  0.25469424  1  0  0.710507  0  3.885031  0  0  0.65092  0  4.195875  0  0  0.686644  0  4.184338  0  0  0.221707  0.626774  0  4.202882  0
C  C25  1  0.29423653  0.08746566  0.63599928  1  0  -0.137267  0  3.658488  0  0  -0.156434  0  3.901279  0  0  -0.163806  0  3.921623  0  0  -0.072935  -0.151645  0  3.887344  0
C  C26  1  0.70576500  0.91253891  0.36400701  1  0  -0.137434  0  3.658669  0  0  -0.156602  0  3.901447  0  0  -0.164103  0  3.922101  0  0  -0.073011  -0.151794  0  3.887524  0
C  C27  1  0.34645932  0.14017181  0.77557713  1  0  0.099703  0  3.771848  0  0  0.114569  0  4.006488  0  0  0.117595  0  4.027974  0  0  0.012419  0.112862  0  3.991575  0
C  C28  1  0.65354015  0.85983138  0.22442583  1  0  0.099749  0  3.771956  0  0  0.114599  0  4.006625  0  0  0.117443  0  4.028622  0  0  0.012419  0.112892  0  3.991707  0
C  C29  1  0.42224508  0.02309586  0.84753886  1  0  0.102479  0  3.655112  0  0  0.062791  0  3.929189  0  0  0.07068  0  3.938286  0  0  0.07832  0.057623  0  3.922663  0
C  C30  1  0.57775828  0.97692226  0.15247477  1  0  0.102645  0  3.65461  0  0  0.062922  0  3.92873  0  0  0.070542  0  3.938425  0  0  0.0784  0.057759  0  3.922194  0
C  C31  1  0.20615412  0.19228418  0.56661776  1  0  0.130656  0  3.725664  0  0  0.100383  0  3.978768  0  0  0.107818  0  3.997856  0  0  0.044875  0.095516  0  3.965903  0
C  C32  1  0.79385507  0.80771648  0.43338823  1  0  0.130705  0  3.725655  0  0  0.100421  0  3.978777  0  0  0.107904  0  3.997633  0  0  0.044882  0.095557  0  3.965903  0
C  C33  1  0.22786359  0.39886629  0.76291899  1  0  0.136778  0  3.694408  0  0  0.103692  0  3.951222  0  0  0.111263  0  3.967978  0  0  0.045655  0.09881  0  3.939636  0
C  C34  1  0.77213377  0.60113553  0.23707882  1  0  0.136784  0  3.694314  0  0  0.103678  0  3.951127  0  0  0.111136  0  3.968195  0  0  0.045669  0.09881  0  3.939548  0
N  N35  1  0.46838742  0.06596313  0.97593474  1  0  -0.213097  0  3.0454  0  0  -0.183405  0  3.341758  0  0  -0.193756  0  3.360877  0  0  -0.211652  -0.176423  0  3.328855  0
N  N36  1  0.53162271  0.93405788  0.02406970  1  0  -0.21305  0  3.045026  0  0  -0.18335  0  3.341395  0  0  -0.193719  0  3.360573  0  0  -0.211644  -0.176367  0  3.328493  0
N  N37  1  0.16974037  0.34344888  0.62777382  1  0  -0.339812  0  3.241753  0  0  -0.258753  0  3.500977  0  0  -0.279054  0  3.519911  0  0  -0.32779  -0.244772  0  3.487704  0
N  N38  1  0.83026259  0.65655169  0.37222472  1  0  -0.33981  0  3.241842  0  0  -0.258754  0  3.501083  0  0  -0.279101  0  3.520167  0  0  -0.3278  -0.244771  0  3.487803  0
O  O39  1  0.34854330  0.67122890  0.52207250  1  0  -0.828103  0  1.849397  0  0  -0.770954  0  2.034016  0  0  -0.793205  0  2.001008  0  0  -0.588854  -0.755112  0  2.056726  0
O  O40  1  0.65145233  0.32876339  0.47792690  1  0  -0.828059  0  1.849418  0  0  -0.770908  0  2.034086  0  0  -0.793199  0  2.001177  0  0  -0.588832  -0.755061  0  2.05679  0
O  O41  1  0.01760417  0.69844135  0.70109169  1  0  -0.630345  0  1.998497  0  0  -0.563189  0  2.251192  0  0  -0.593228  0  2.2405  0  0  -0.312107  -0.541957  0  2.257529  0
O  O42  1  0.98238579  0.30154817  0.29889987  1  0  -0.630418  0  1.998629  0  0  -0.563151  0  2.251208  0  0  -0.593229  0  2.240706  0  0  -0.31211  -0.54192  0  2.257541  0
O  O43  1  0.67785868  0.59865388  0.69264849  1  0  -0.623011  0  1.961475  0  0  -0.566137  0  2.177663  0  0  -0.591553  0  2.166623  0  0  -0.306047  -0.548144  0  2.184399  0
O  O44  1  0.32213511  0.40133295  0.30735231  1  0  -0.622903  0  1.961593  0  0  -0.566056  0  2.17777  0  0  -0.59153  0  2.166977  0  0  -0.305937  -0.548061  0  2.184504  0
F  F45  1  0.06268445  0.67410702  0.00118874  1  0  -0.164828  0  1.233137  0  0  -0.113549  0  1.395228  0  0  -0.121327  0  1.385028  0  0  -0.086483  -0.107906  0  1.402184  0
F  F46  1  0.93732552  0.32589235  0.99880625  1  0  -0.164851  0  1.233308  0  0  -0.113491  0  1.395361  0  0  -0.121029  0  1.384734  0  0  -0.086434  -0.107845  0  1.402317  0
F  F47  1  0.81170717  0.05050750  0.76223560  1  0  -0.177511  0  1.215752  0  0  -0.11747  0  1.371987  0  0  -0.13064  0  1.368371  0  0  -0.086686  -0.111315  0  1.377645  0
F  F48  1  0.18829718  0.94949313  0.23775775  1  0  -0.177503  0  1.215841  0  0  -0.117489  0  1.372047  0  0  -0.126038  0  1.363767  0  0  -0.08666  -0.111335  0  1.377705  0
