# generated using pymatgen
data_HgH7C8SNCl2
_symmetry_space_group_name_H-M   'P 1'
_cell_length_a   7.26833158
_cell_length_b   9.76830343
_cell_length_c   14.69672901
_cell_angle_alpha   89.99979776
_cell_angle_beta   95.23818549
_cell_angle_gamma   90.00055293
_symmetry_Int_Tables_number   1
_chemical_formula_structural   HgH7C8SNCl2
_chemical_formula_sum   'Hg4 H28 C32 S4 N4 Cl8'
_cell_volume   1039.09929444
_cell_formula_units_Z   4
loop_
 _symmetry_equiv_pos_site_id
 _symmetry_equiv_pos_as_xyz
  1  'x, y, z'
loop_
 _atom_site_type_symbol
 _atom_site_label
 _atom_site_symmetry_multiplicity
 _atom_site_fract_x
 _atom_site_fract_y
 _atom_site_fract_z
 _atom_site_occupancy
 _atom_site_pbe_bader_spin_density
 _atom_site_pbe_cm5_charge
 _atom_site_pbe_ddec_charge
 _atom_site_pbe_ddec_spin_density
 _atom_site_pbe_ddec_sum_bond_order
 _atom_site_pbe_magmom
Hg  Hg0  1  0.25002076  0.06466510  0.01499158  1  0  0.505126  0.594662  0  2.63253  0
Hg  Hg1  1  0.75002357  0.43533585  0.51499539  1  0  0.505093  0.59465  0  2.632554  0
Hg  Hg2  1  0.74997262  0.93533034  0.98500706  1  0  0.505074  0.594601  0  2.632525  0
Hg  Hg3  1  0.24997950  0.56466572  0.48500570  1  0  0.505104  0.594647  0  2.632499  0
H  H4  1  0.36524309  0.34149184  0.26048621  1  0  0.086344  0.152798  0  1.028739  0
H  H5  1  0.86523267  0.15851170  0.76048806  1  0  0.086332  0.152785  0  1.028783  0
H  H6  1  0.63476546  0.65850871  0.73951104  1  0  0.086324  0.152783  0  1.028743  0
H  H7  1  0.13475659  0.84148681  0.23951381  1  0  0.086345  0.152806  0  1.028738  0
H  H8  1  0.41830985  0.19197596  0.19757444  1  0  0.095536  0.151949  0  1.009798  0
H  H9  1  0.91830000  0.30803239  0.69757937  1  0  0.095561  0.151991  0  1.00972  0
H  H10  1  0.58170009  0.80802357  0.80242355  1  0  0.095559  0.151985  0  1.009737  0
H  H11  1  0.08168933  0.69197124  0.30242862  1  0  0.095548  0.151955  0  1.009713  0
H  H12  1  0.18638354  0.22752373  0.21763509  1  0  0.091772  0.152861  0  1.017045  0
H  H13  1  0.68636893  0.27246955  0.71762425  1  0  0.091807  0.152828  0  1.017092  0
H  H14  1  0.81362784  0.77247170  0.78236841  1  0  0.091796  0.152845  0  1.017003  0
H  H15  1  0.31361891  0.72752384  0.28237280  1  0  0.091773  0.152817  0  1.017138  0
H  H16  1  0.24085814  0.73926999  0.95631848  1  0  0.084091  0.10006  0  1.064201  0
H  H17  1  0.74084900  0.76073230  0.45631327  1  0  0.084008  0.100031  0  1.064079  0
H  H18  1  0.75914909  0.26072135  0.04368484  1  0  0.084129  0.100164  0  1.064252  0
H  H19  1  0.25914298  0.23926723  0.54368395  1  0  0.084031  0.10007  0  1.064289  0
H  H20  1  0.17175487  0.68638280  0.79116765  1  0  0.095582  0.106048  0  1.008838  0
H  H21  1  0.67174640  0.81362704  0.29116166  1  0  0.095584  0.106088  0  1.008742  0
H  H22  1  0.82824545  0.31361571  0.20883537  1  0  0.095587  0.106037  0  1.00884  0
H  H23  1  0.32825938  0.18638068  0.70883479  1  0  0.095608  0.106118  0  1.008837  0
H  H24  1  0.14802384  0.44803441  0.73688602  1  0  0.084916  0.092003  0  1.053357  0
H  H25  1  0.64802862  0.05198102  0.23688257  1  0  0.084889  0.091946  0  1.053289  0
H  H26  1  0.85196265  0.55196717  0.26311437  1  0  0.08487  0.091948  0  1.053418  0
H  H27  1  0.35197305  0.94802977  0.76311711  1  0  0.084884  0.091935  0  1.053414  0
H  H28  1  0.18023777  0.25208208  0.84787840  1  0  0.092468  0.111115  0  1.036237  0
H  H29  1  0.68025062  0.24792582  0.34787892  1  0  0.092456  0.111075  0  1.036233  0
H  H30  1  0.81974592  0.74791335  0.15211847  1  0  0.092424  0.11109  0  1.036185  0
H  H31  1  0.31975247  0.75207985  0.65212490  1  0  0.092446  0.111108  0  1.036193  0
C  C32  1  0.29130986  0.35153363  0.11584815  1  0  0.140039  0.25814  0  3.960841  0
C  C33  1  0.79132276  0.14846709  0.61584694  1  0  0.139996  0.258004  0  3.960809  0
C  C34  1  0.70869043  0.64845874  0.88415147  1  0  0.140084  0.258182  0  3.96097  0
C  C35  1  0.20868169  0.85153449  0.38415490  1  0  0.140004  0.258011  0  3.960922  0
C  C36  1  0.31784484  0.27489480  0.20309367  1  0  -0.244838  -0.460504  0  3.947532  0
C  C37  1  0.81784215  0.22510564  0.70309230  1  0  -0.244913  -0.460538  0  3.947596  0
C  C38  1  0.68216235  0.72510064  0.79690556  1  0  -0.244889  -0.460551  0  3.947334  0
C  C39  1  0.18215537  0.77489389  0.29690720  1  0  -0.244872  -0.460473  0  3.947453  0
C  C40  1  0.23313600  0.38724157  0.96386301  1  0  0.080907  0.162269  0  4.082036  0
C  C41  1  0.73314019  0.11276200  0.46386076  1  0  0.080972  0.162447  0  4.081928  0
C  C42  1  0.76686429  0.61274977  0.03613661  1  0  0.080985  0.162482  0  4.081952  0
C  C43  1  0.26685733  0.88724060  0.53613875  1  0  0.080976  0.162409  0  4.082007  0
C  C44  1  0.25112621  0.52463798  0.99415316  1  0  -0.010679  -0.028658  0  4.008878  0
C  C45  1  0.75113089  0.97536623  0.49415077  1  0  -0.010699  -0.028714  0  4.008927  0
C  C46  1  0.74888098  0.47535336  0.00584607  1  0  -0.010745  -0.028755  0  4.008991  0
C  C47  1  0.24886665  0.02463842  0.50585078  1  0  -0.010652  -0.028586  0  4.008886  0
C  C48  1  0.22933429  0.63387607  0.93266109  1  0  -0.099697  -0.114949  0  3.996969  0
C  C49  1  0.72933477  0.86613138  0.43265400  1  0  -0.099647  -0.114977  0  3.997135  0
C  C50  1  0.77066878  0.36611834  0.06734069  1  0  -0.09976  -0.115204  0  3.99744  0
C  C51  1  0.27066549  0.13387532  0.56734221  1  0  -0.099713  -0.115096  0  3.997439  0
C  C52  1  0.19141605  0.60313287  0.84042366  1  0  -0.09808  -0.078739  0  3.989299  0
C  C53  1  0.69141419  0.89687787  0.34041980  1  0  -0.09803  -0.078805  0  3.989502  0
C  C54  1  0.80858149  0.39686257  0.15957721  1  0  -0.098059  -0.078585  0  3.989279  0
C  C55  1  0.30858749  0.10313189  0.65958056  1  0  -0.098031  -0.078797  0  3.989475  0
C  C56  1  0.17559646  0.46693831  0.80982817  1  0  -0.102004  -0.089103  0  4.049426  0
C  C57  1  0.67560655  0.03307385  0.30982703  1  0  -0.10194  -0.088843  0  4.049197  0
C  C58  1  0.82439832  0.53306122  0.19017258  1  0  -0.10194  -0.089028  0  4.049281  0
C  C59  1  0.32439930  0.96693591  0.69017623  1  0  -0.101975  -0.088864  0  4.049253  0
C  C60  1  0.19501709  0.35801552  0.87075831  1  0  -0.10132  -0.169846  0  3.991703  0
C  C61  1  0.69503132  0.14199135  0.37075505  1  0  -0.101387  -0.170048  0  3.991738  0
C  C62  1  0.80497351  0.64198094  0.12923954  1  0  -0.101243  -0.169888  0  3.99169  0
C  C63  1  0.30497174  0.85801330  0.62924469  1  0  -0.101329  -0.170015  0  3.99166  0
S  S64  1  0.29970690  0.52770858  0.11194914  1  0  0.136203  0.14977  0  2.776014  0
S  S65  1  0.79971288  0.97228981  0.61194621  1  0  0.136177  0.149794  0  2.775934  0
S  S66  1  0.70030028  0.47228583  0.88805009  1  0  0.136177  0.149757  0  2.776035  0
S  S67  1  0.20028465  0.02771074  0.38805398  1  0  0.136148  0.149718  0  2.775854  0
N  N68  1  0.25688302  0.29338237  0.03492372  1  0  -0.318334  -0.277114  0  3.522258  0
N  N69  1  0.75689526  0.20661955  0.53492031  1  0  -0.318266  -0.277015  0  3.522276  0
N  N70  1  0.74311312  0.70660999  0.96507504  1  0  -0.318374  -0.277182  0  3.522253  0
N  N71  1  0.24311192  0.79338408  0.46507893  1  0  -0.318289  -0.277015  0  3.522493  0
Cl  Cl72  1  0.44012958  0.88593099  0.09777108  1  0  -0.259638  -0.401955  0  1.341525  0
Cl  Cl73  1  0.94013102  0.61407359  0.59777218  1  0  -0.259625  -0.40194  0  1.341496  0
Cl  Cl74  1  0.55987209  0.11407161  0.90222859  1  0  -0.259642  -0.401962  0  1.341457  0
Cl  Cl75  1  0.05987204  0.38592901  0.40222823  1  0  -0.259639  -0.401962  0  1.341476  0
Cl  Cl76  1  0.04886827  0.97471163  0.87711405  1  0  -0.258378  -0.410773  0  1.335136  0
Cl  Cl77  1  0.54887555  0.52529483  0.37711757  1  0  -0.258368  -0.410775  0  1.335196  0
Cl  Cl78  1  0.95113063  0.02528176  0.12288483  1  0  -0.258369  -0.410752  0  1.335138  0
Cl  Cl79  1  0.45113029  0.47471084  0.62288501  1  0  -0.258374  -0.410774  0  1.33516  0
