# generated using pymatgen
data_SbH8C4N2Cl3O2
_symmetry_space_group_name_H-M   'P 1'
_cell_length_a   7.12811777
_cell_length_b   8.82141034
_cell_length_c   10.47873515
_cell_angle_alpha   96.37617226
_cell_angle_beta   111.48411420
_cell_angle_gamma   108.73013735
_symmetry_Int_Tables_number   1
_chemical_formula_structural   SbH8C4N2Cl3O2
_chemical_formula_sum   'Sb2 H16 C8 N4 Cl6 O4'
_cell_volume   560.76465810
_cell_formula_units_Z   2
loop_
 _symmetry_equiv_pos_site_id
 _symmetry_equiv_pos_as_xyz
  1  'x, y, z'
loop_
 _atom_site_type_symbol
 _atom_site_label
 _atom_site_symmetry_multiplicity
 _atom_site_fract_x
 _atom_site_fract_y
 _atom_site_fract_z
 _atom_site_occupancy
 _atom_site_hle17_bader_spin_density
 _atom_site_hle17_ddec_charge
 _atom_site_hle17_ddec_spin_density
 _atom_site_hle17_ddec_sum_bond_order
 _atom_site_hle17_magmom
 _atom_site_hse06_10hf_bader_spin_density
 _atom_site_hse06_10hf_ddec_charge
 _atom_site_hse06_10hf_ddec_spin_density
 _atom_site_hse06_10hf_ddec_sum_bond_order
 _atom_site_hse06_10hf_magmom
 _atom_site_hse06_bader_spin_density
 _atom_site_hse06_ddec_charge
 _atom_site_hse06_ddec_spin_density
 _atom_site_hse06_ddec_sum_bond_order
 _atom_site_hse06_magmom
 _atom_site_pbe_bader_spin_density
 _atom_site_pbe_cm5_charge
 _atom_site_pbe_ddec_charge
 _atom_site_pbe_ddec_spin_density
 _atom_site_pbe_ddec_sum_bond_order
 _atom_site_pbe_magmom
Sb  Sb0  1  0.29914001  0.83896594  0.31300834  1  0  1.141444  0  2.768396  0  0  1.024303  0  3.297823  0  0  1.058005  0  3.270618  0  0  0.553821  0.996617  0  3.317666  0
Sb  Sb1  1  0.70086463  0.16103458  0.68697316  1  0  1.141459  0  2.768441  0  0  1.024344  0  3.297826  0  0  1.058047  0  3.270621  0  0  0.553842  0.996655  0  3.317672  0
H  H2  1  0.17827664  0.16900377  0.41567886  1  0  0.295988  0  0.901956  0  0  0.272914  0  0.974302  0  0  0.281058  0  0.967849  0  0  0.305983  0.267019  0  0.979242  0
H  H3  1  0.82173800  0.83097891  0.58434349  1  0  0.296023  0  0.901788  0  0  0.272952  0  0.97418  0  0  0.281097  0  0.967722  0  0  0.305942  0.267054  0  0.979119  0
H  H4  1  0.03151563  0.33742877  0.29518454  1  0  0.107456  0  0.944644  0  0  0.124751  0  1.010485  0  0  0.125524  0  1.010485  0  0  0.10071  0.124002  0  1.010538  0
H  H5  1  0.96852623  0.66258235  0.70483974  1  0  0.107401  0  0.944933  0  0  0.12483  0  1.010601  0  0  0.125602  0  1.010598  0  0  0.100743  0.124078  0  1.010656  0
H  H6  1  0.86693282  0.32083151  0.39103607  1  0  0.100662  0  0.932988  0  0  0.118797  0  1.000741  0  0  0.119063  0  1.000871  0  0  0.101786  0.117871  0  1.001456  0
H  H7  1  0.13311373  0.67918567  0.60900525  1  0  0.100762  0  0.933183  0  0  0.118963  0  1.000875  0  0  0.119227  0  1.001003  0  0  0.101889  0.118042  0  1.001588  0
H  H8  1  0.77080001  0.16824650  0.23003918  1  0  0.098577  0  0.918767  0  0  0.120021  0  0.980334  0  0  0.120193  0  0.980271  0  0  0.102436  0.12011  0  0.979494  0
H  H9  1  0.22921499  0.83175376  0.76996588  1  0  0.098631  0  0.919006  0  0  0.120077  0  0.980571  0  0  0.120244  0  0.980513  0  0  0.102499  0.12017  0  0.979731  0
H  H10  1  0.16865274  0.19829170  0.93552364  1  0  0.274538  0  0.944706  0  0  0.252096  0  1.019579  0  0  0.259682  0  1.014316  0  0  0.289187  0.246561  0  1.023771  0
H  H11  1  0.83132863  0.80171627  0.06448902  1  0  0.274604  0  0.944571  0  0  0.25217  0  1.019488  0  0  0.259763  0  1.01422  0  0  0.289078  0.246632  0  1.023682  0
H  H12  1  0.38530243  0.44388305  0.14265778  1  0  0.102049  0  0.952199  0  0  0.117488  0  1.02366  0  0  0.117651  0  1.023967  0  0  0.092548  0.117002  0  1.023706  0
H  H13  1  0.61463758  0.55616041  0.85732412  1  0  0.102245  0  0.952812  0  0  0.117587  0  1.024286  0  0  0.117718  0  1.024614  0  0  0.092585  0.117125  0  1.024312  0
H  H14  1  0.55658549  0.34185451  0.12533199  1  0  0.098162  0  0.951467  0  0  0.118242  0  1.015837  0  0  0.117925  0  1.016727  0  0  0.091898  0.118441  0  1.014754  0
H  H15  1  0.44341668  0.65817829  0.87467111  1  0  0.098391  0  0.952044  0  0  0.118585  0  1.016202  0  0  0.118267  0  1.017084  0  0  0.092101  0.118766  0  1.015144  0
H  H16  1  0.44132148  0.30631411  0.25098749  1  0  0.104844  0  0.951061  0  0  0.121296  0  1.019543  0  0  0.123098  0  1.018054  0  0  0.099479  0.119712  0  1.020962  0
H  H17  1  0.55865132  0.69370622  0.74905000  1  0  0.104986  0  0.951522  0  0  0.121445  0  1.019951  0  0  0.123239  0  1.01845  0  0  0.0996  0.119868  0  1.021365  0
C  C18  1  0.93186820  0.04648616  0.46301383  1  0  0.449963  0  3.842327  0  0  0.397671  0  4.1351  0  0  0.423563  0  4.134194  0  0  0.240787  0.380581  0  4.135002  0
C  C19  1  0.06816882  0.95350156  0.53697644  1  0  0.449689  0  3.841914  0  0  0.397364  0  4.134833  0  0  0.423223  0  4.133969  0  0  0.24049  0.380268  0  4.134732  0
C  C20  1  0.91720555  0.25096233  0.32569424  1  0  -0.105509  0  3.640712  0  0  -0.20889  0  3.902251  0  0  -0.203971  0  3.911451  0  0  -0.134744  -0.211631  0  3.895955  0
C  C21  1  0.08284905  0.74901615  0.67434533  1  0  -0.105596  0  3.641159  0  0  -0.209143  0  3.902889  0  0  -0.204218  0  3.91208  0  0  -0.135036  -0.211888  0  3.896583  0
C  C22  1  0.10027978  0.06115527  0.06588833  1  0  0.439228  0  3.851218  0  0  0.392266  0  4.139409  0  0  0.418119  0  4.138732  0  0  0.240794  0.374679  0  4.139721  0
C  C23  1  0.89975964  0.93888228  0.93410547  1  0  0.439149  0  3.851047  0  0  0.392326  0  4.139204  0  0  0.418187  0  4.138527  0  0  0.240829  0.374737  0  4.139514  0
C  C24  1  0.41256478  0.32840714  0.14598722  1  0  -0.118026  0  3.641725  0  0  -0.213858  0  3.890501  0  0  -0.209692  0  3.900163  0  0  -0.140608  -0.215927  0  3.884126  0
C  C25  1  0.58728242  0.67153268  0.85394992  1  0  -0.118193  0  3.64184  0  0  -0.214094  0  3.890758  0  0  -0.20986  0  3.900388  0  0  -0.141057  -0.216195  0  3.884415  0
N  N26  1  0.02521424  0.15537699  0.40534586  1  0  -0.305918  0  3.387258  0  0  -0.239672  0  3.633575  0  0  -0.260213  0  3.645697  0  0  -0.395907  -0.22656  0  3.626084  0
N  N27  1  0.97479953  0.84459832  0.59466219  1  0  -0.305906  0  3.386129  0  0  -0.239799  0  3.632727  0  0  -0.260342  0  3.644854  0  0  -0.395639  -0.226667  0  3.625221  0
N  N28  1  0.22210197  0.19086833  0.03881384  1  0  -0.312535  0  3.39733  0  0  -0.246654  0  3.638571  0  0  -0.267499  0  3.651352  0  0  -0.401302  -0.233553  0  3.630534  0
N  N29  1  0.77786791  0.80913494  0.96117259  1  0  -0.313229  0  3.395089  0  0  -0.247442  0  3.636483  0  0  -0.268319  0  3.649237  0  0  -0.401316  -0.234322  0  3.628456  0
Cl  Cl30  1  0.41087400  0.63755021  0.43110465  1  0  -0.400566  0  1.006465  0  0  -0.36206  0  1.256952  0  0  -0.370547  0  1.241952  0  0  -0.186776  -0.354066  0  1.267536  0
Cl  Cl31  1  0.58912959  0.36245403  0.56888171  1  0  -0.400552  0  1.006473  0  0  -0.362066  0  1.256973  0  0  -0.370561  0  1.241988  0  0  -0.186791  -0.354069  0  1.267555  0
Cl  Cl32  1  0.91425461  0.66520612  0.24214070  1  0  -0.379237  0  0.998826  0  0  -0.336621  0  1.233977  0  0  -0.344721  0  1.220882  0  0  -0.167177  -0.32965  0  1.24329  0
Cl  Cl33  1  0.08574889  0.33478942  0.75784098  1  0  -0.37924  0  0.998829  0  0  -0.336657  0  1.23405  0  0  -0.34476  0  1.220965  0  0  -0.167162  -0.329682  0  1.243351  0
Cl  Cl34  1  0.30947038  0.73417744  0.09188909  1  0  -0.401459  0  0.940496  0  0  -0.367339  0  1.163698  0  0  -0.375379  0  1.150669  0  0  -0.200594  -0.360059  0  1.172098  0
Cl  Cl35  1  0.69054089  0.26583551  0.90809050  1  0  -0.401488  0  0.940436  0  0  -0.367346  0  1.163557  0  0  -0.375385  0  1.150521  0  0  -0.200593  -0.360066  0  1.171962  0
O  O36  1  0.74473990  0.01903813  0.45999366  1  0  -0.612579  0  2.142743  0  0  -0.557808  0  2.403256  0  0  -0.582438  0  2.400034  0  0  -0.295295  -0.540256  0  2.404663  0
O  O37  1  0.25528054  0.98091850  0.54000470  1  0  -0.612345  0  2.142857  0  0  -0.557451  0  2.403223  0  0  -0.582065  0  2.400011  0  0  -0.295114  -0.539907  0  2.404638  0
O  O38  1  0.13802069  0.03641569  0.18730033  1  0  -0.577034  0  2.092135  0  0  -0.526888  0  2.34006  0  0  -0.549362  0  2.335417  0  0  -0.296976  -0.510837  0  2.343175  0
O  O39  1  0.86195432  0.96356887  0.81268174  1  0  -0.576839  0  2.09236  0  0  -0.526697  0  2.3402  0  0  -0.549165  0  2.33555  0  0  -0.296941  -0.510654  0  2.34332  0
