# generated using pymatgen
data_Zn4H34C46O13
_symmetry_space_group_name_H-M   'P 1'
_cell_length_a   15.17658678
_cell_length_b   15.11980850
_cell_length_c   19.63524183
_cell_angle_alpha   88.38474945
_cell_angle_beta   88.97519662
_cell_angle_gamma   88.90119012
_symmetry_Int_Tables_number   1
_chemical_formula_structural   Zn4H34C46O13
_chemical_formula_sum   'Zn4 H34 C46 O13'
_cell_volume   4502.34500586
_cell_formula_units_Z   1
loop_
 _symmetry_equiv_pos_site_id
 _symmetry_equiv_pos_as_xyz
  1  'x, y, z'
loop_
 _atom_site_type_symbol
 _atom_site_label
 _atom_site_symmetry_multiplicity
 _atom_site_fract_x
 _atom_site_fract_y
 _atom_site_fract_z
 _atom_site_occupancy
 _atom_site_pbe_bader_charge
 _atom_site_pbe_bader_spin_density
 _atom_site_pbe_cm5_charge
 _atom_site_pbe_ddec_charge
 _atom_site_pbe_ddec_spin_density
 _atom_site_pbe_ddec_sum_bond_order
 _atom_site_pbe_magmom
Zn  Zn0  1  0.43263062  0.42777390  0.56641700  1  1.311545  0  0.670584  0.962186  0  2.380696  0
Zn  Zn1  1  0.41717153  0.56632387  0.44179276  1  1.316499  0  0.669497  0.960669  0  2.391297  0
Zn  Zn2  1  0.57623192  0.42877172  0.44150464  1  1.310515  0  0.670246  0.959559  0  2.379029  0
Zn  Zn3  1  0.57299070  0.58082768  0.55246123  1  1.311597  0  0.668449  0.962685  0  2.370057  0
H  H4  1  0.42001951  0.40870239  0.77559764  1  0.108641  0  0.108871  0.115204  0  0.991835  0
H  H5  1  0.99937523  0.43559987  0.63259796  1  0.060697  0  0.103378  0.103943  0  0.993758  0
H  H6  1  0.85247197  0.47330285  0.58286833  1  0.068354  0  0.106779  0.111775  0  0.989704  0
H  H7  1  0.35284816  0.54120304  0.23621760  1  0.090122  0  0.107898  0.112243  0  0.992187  0
H  H8  1  0.40544392  0.47898886  0.00144485  1  0.071762  0  0.102726  0.100958  0  0.997656  0
H  H9  1  0.60859555  0.42646703  0.10106639  1  0.062072  0  0.102389  0.102352  0  1.000358  0
H  H10  1  0.62140244  0.60444395  0.76193963  1  0.083948  0  0.108538  0.11401  0  0.991523  0
H  H11  1  0.60400556  0.51557423  0.99882186  1  0.069463  0  0.102663  0.101723  0  0.996401  0
H  H12  1  0.43204497  0.40219047  0.90191198  1  0.062509  0  0.102491  0.10184  0  1.001597  0
H  H13  1  0.34421417  0.53555646  0.10968602  1  0.082159  0  0.102997  0.103007  0  0.992913  0
H  H14  1  0.31253178  0.25704438  0.31208593  1  0.005809  0  0.082492  0.105621  0  1.008158  0
H  H15  1  0.57583773  0.85538125  0.55693897  1  0.088094  0  0.108089  0.114642  0  0.997006  0
H  H16  1  0.23346573  0.24794272  0.37966740  1  0.019789  0  0.0836  0.107052  0  1.005997  0
H  H17  1  0.28301807  0.35137228  0.36010090  1  -0.001497  0  0.084325  0.114105  0  1.008531  0
H  H18  1  0.35031249  0.28117128  0.46394279  1  0.060129  0  0.087656  0.08345  0  0.996439  0
H  H19  1  0.42911328  0.29093455  0.39650082  1  0.042779  0  0.086181  0.080734  0  1.004103  0
H  H20  1  0.40449691  0.13416253  0.36659119  1  0.041221  0  0.096361  0.093714  0  0.970183  0
H  H21  1  0.32353838  0.12492034  0.43080400  1  0.030089  0  0.096511  0.092852  0  0.975331  0
H  H22  1  0.14597192  0.54162864  0.41677457  1  0.104892  0  0.106907  0.113959  0  0.99725  0
H  H23  1  0.75934931  0.58585320  0.22390347  1  0.028527  0  0.083449  0.108341  0  1.011281  0
H  H24  1  0.75665921  0.69443259  0.25581465  1  0.018171  0  0.085264  0.11025  0  1.002952  0
H  H25  1  0.83524862  0.66548897  0.19177912  1  0.027312  0  0.084746  0.109018  0  1.006637  0
H  H26  1  0.37713040  0.83516486  0.40537284  1  0.114286  0  0.105433  0.111918  0  0.995783  0
H  H27  1  0.90755719  0.66811974  0.30569859  1  0.029636  0  0.087498  0.073823  0  0.976973  0
H  H28  1  0.91087871  0.56022080  0.27353222  1  0.002478  0  0.087343  0.073923  0  0.976982  0
H  H29  1  0.77682476  0.52159582  0.34447368  1  0.092143  0  0.097802  0.107004  0  0.978798  0
H  H30  1  0.77206855  0.62876746  0.37567524  1  0.022776  0  0.096213  0.096455  0  0.964418  0
H  H31  1  0.63507051  0.59781722  0.88841487  1  0.040033  0  0.102497  0.102827  0  0.993877  0
H  H32  1  0.62324293  0.00043316  0.59278140  1  0.082322  0  0.10525  0.106811  0  0.991537  0
H  H33  1  0.36335695  0.99709971  0.39551748  1  0.06226  0  0.100808  0.096702  0  1.026597  0
H  H34  1  0.61078473  0.16447602  0.58389773  1  0.057578  0  0.105571  0.108427  0  0.985345  0
H  H35  1  0.16313043  0.43034370  0.62020948  1  0.090233  0  0.10611  0.112873  0  0.996551  0
H  H36  1  0.00023641  0.56983940  0.36555823  1  0.067391  0  0.101474  0.101405  0  1.025844  0
H  H37  1  0.61427938  0.42748113  0.22781732  1  0.097425  0  0.107837  0.112118  0  0.994484  0
C  C38  1  0.48445045  0.73699802  0.48783907  1  1.537012  0  0.226271  0.608972  0  4.162238  0
C  C39  1  0.53972636  0.49977794  0.97836759  1  0.015562  0  -0.087723  -0.132784  0  3.996564  0
C  C40  1  0.47144077  0.48535866  0.02217079  1  -0.119377  0  -0.088338  -0.132402  0  3.999668  0
C  C41  1  0.51080088  0.26494790  0.50836674  1  1.546486  0  0.235653  0.62818  0  4.168455  0
C  C42  1  0.48453488  0.48579577  0.23951611  1  -0.07174  0  -0.020168  -0.044772  0  3.981443  0
C  C43  1  0.47740496  0.83529595  0.48226056  1  0.059636  0  -0.026071  -0.049244  0  4.013319  0
C  C44  1  0.50911492  0.16567422  0.50770366  1  0.036539  0  -0.01135  -0.068324  0  3.938289  0
C  C45  1  0.57678837  0.03295543  0.55797621  1  -0.057213  0  -0.09054  -0.134164  0  4.028808  0
C  C46  1  0.56979487  0.12340082  0.55300957  1  -0.030489  0  -0.091549  -0.108827  0  4.03369  0
C  C47  1  0.45445318  0.11777323  0.46696869  1  -0.018831  0  0.000866  0.05075  0  3.871375  0
C  C48  1  0.46192747  0.02278317  0.47149352  1  -0.010186  0  -0.002581  0.033616  0  3.941119  0
C  C49  1  0.53295826  0.50123341  0.90428547  1  0.03571  0  -0.006256  0.121727  0  4.036987  0
C  C50  1  0.52317489  0.98042627  0.51739807  1  0.042185  0  -0.00759  0.072953  0  4.028581  0
C  C51  1  0.52938286  0.88705866  0.52176570  1  -0.123454  0  -0.073706  -0.124682  0  3.924085  0
C  C52  1  0.41731686  0.87665446  0.43641578  1  -0.074093  0  -0.088334  -0.094257  0  4.004344  0
C  C53  1  0.26156559  0.48737838  0.51169056  1  1.537967  0  0.226733  0.60574  0  4.165796  0
C  C54  1  0.40997798  0.96746895  0.43133978  1  -0.047403  0  -0.094726  -0.140172  0  4.015744  0
C  C55  1  0.16355212  0.48667199  0.51752983  1  0.01593  0  -0.022736  -0.043023  0  4.000997  0
C  C56  1  0.83567973  0.51974373  0.47970964  1  0.000705  0  -0.011354  -0.069646  0  3.946399  0
C  C57  1  0.96695367  0.54754884  0.41248516  1  -0.009389  0  -0.091514  -0.194785  0  3.959407  0
C  C58  1  0.87600370  0.54743529  0.41632405  1  -0.036949  0  -0.003285  0.103609  0  3.942789  0
C  C59  1  0.88536043  0.49324948  0.53512201  1  -0.018503  0  -0.083804  -0.150129  0  3.96377  0
C  C60  1  0.58752074  0.55658366  0.86370826  1  -0.057418  0  -0.089921  -0.138782  0  3.974814  0
C  C61  1  0.97850267  0.48964046  0.53057817  1  0.016071  0  -0.004685  0.081225  0  4.017213  0
C  C62  1  0.02008060  0.51860385  0.46797106  1  -0.094746  0  -0.00648  0.081372  0  4.020143  0
C  C63  1  0.11315393  0.51780642  0.46345804  1  -0.023742  0  -0.075918  -0.130835  0  3.923485  0
C  C64  1  0.12204750  0.45535788  0.57875005  1  -0.027041  0  -0.08913  -0.101414  0  4.004634  0
C  C65  1  0.73739550  0.51505226  0.48685804  1  1.560051  0  0.232649  0.620618  0  4.163545  0
C  C66  1  0.03160415  0.45816909  0.58526252  1  -0.05326  0  -0.091282  -0.136522  0  4.008042  0
C  C67  1  0.48912861  0.48887487  0.31511526  1  1.539536  0  0.224821  0.60111  0  4.175529  0
C  C68  1  0.51211640  0.50922606  0.68567804  1  1.542057  0  0.224704  0.600937  0  4.175914  0
C  C69  1  0.51914839  0.50765389  0.76126527  1  0.000716  0  -0.021706  -0.046224  0  3.983321  0
C  C70  1  0.46570777  0.45092141  0.80110880  1  -0.001017  0  -0.081674  -0.085096  0  3.987755  0
C  C71  1  0.58010972  0.56065501  0.79321131  1  -0.042053  0  -0.081966  -0.085727  0  3.986901  0
C  C72  1  0.47230326  0.44801441  0.87152509  1  -0.103527  0  -0.090643  -0.135959  0  3.972477  0
C  C73  1  0.38681500  0.15683695  0.41815726  1  -0.02907  0  -0.154817  -0.181144  0  3.958315  0
C  C74  1  0.36909360  0.25662350  0.41345223  1  -0.055491  0  -0.174341  -0.101609  0  3.96037  0
C  C75  1  0.29542239  0.27954807  0.36353894  1  -0.027294  0  -0.2452  -0.352406  0  3.985784  0
C  C76  1  0.81870482  0.57717732  0.35754840  1  -0.050871  0  -0.16026  -0.197717  0  3.963793  0
C  C77  1  0.86597401  0.61201108  0.29328192  1  -0.00751  0  -0.164991  -0.087572  0  3.984345  0
C  C78  1  0.80088588  0.64102959  0.23810208  1  -0.067092  0  -0.244414  -0.354736  0  3.98914  0
C  C79  1  0.55287603  0.45275803  0.13049783  1  0.026493  0  -0.089697  -0.136286  0  3.968518  0
C  C80  1  0.55630483  0.45291650  0.20116809  1  -0.022849  0  -0.082192  -0.087513  0  3.988733  0
C  C81  1  0.40826818  0.51594110  0.20603383  1  0.023881  0  -0.081823  -0.08457  0  3.99053  0
C  C82  1  0.40392532  0.51290422  0.13556354  1  -0.113409  0  -0.090095  -0.137764  0  3.97684  0
C  C83  1  0.47678969  0.48337706  0.09630715  1  -0.051886  0  -0.006179  0.12122  0  4.038436  0
O  O84  1  0.50040915  0.50079531  0.50079983  1  -1.237538  0  -0.572106  -1.028169  0  2.535565  0
O  O85  1  0.43147179  0.53729777  0.34518403  1  -1.179525  0  -0.316541  -0.549983  0  2.341022  0
O  O86  1  0.56055161  0.56352661  0.65168642  1  -1.173666  0  -0.31659  -0.546974  0  2.33161  0
O  O87  1  0.55047386  0.44321224  0.34393971  1  -1.178095  0  -0.316331  -0.549271  0  2.335016  0
O  O88  1  0.45803942  0.45554421  0.66074375  1  -1.170714  0  -0.317314  -0.549455  0  2.348684  0
O  O89  1  0.30459345  0.44165270  0.55619766  1  -1.169324  0  -0.315868  -0.54794  0  2.33034  0
O  O90  1  0.70004757  0.56224221  0.53209626  1  -1.170945  0  -0.312518  -0.543644  0  2.306834  0
O  O91  1  0.43260907  0.69366719  0.45105271  1  -1.169552  0  -0.31827  -0.550731  0  2.338488  0
O  O92  1  0.56281238  0.30244346  0.46535653  1  -1.173467  0  -0.313108  -0.547324  0  2.320175  0
O  O93  1  0.54155730  0.70391319  0.52880525  1  -1.17933  0  -0.318853  -0.552142  0  2.342925  0
O  O94  1  0.46395668  0.30193602  0.55424184  1  -1.170005  0  -0.312622  -0.548997  0  2.322606  0
O  O95  1  0.29495694  0.53395126  0.46280738  1  -1.181921  0  -0.31853  -0.553422  0  2.349541  0
O  O96  1  0.70014065  0.46229318  0.44733691  1  -1.170317  0  -0.310932  -0.545071  0  2.341128  0
