# generated using pymatgen
data_CdH14C16(N2O3)2
_symmetry_space_group_name_H-M   'P 1'
_cell_length_a   9.15915962
_cell_length_b   9.03550712
_cell_length_c   12.84763197
_cell_angle_alpha   78.17174809
_cell_angle_beta   69.11576454
_cell_angle_gamma   59.52375805
_symmetry_Int_Tables_number   1
_chemical_formula_structural   CdH14C16(N2O3)2
_chemical_formula_sum   'Cd2 H28 C32 N8 O12'
_cell_volume   855.75479996
_cell_formula_units_Z   2
loop_
 _symmetry_equiv_pos_site_id
 _symmetry_equiv_pos_as_xyz
  1  'x, y, z'
loop_
 _atom_site_type_symbol
 _atom_site_label
 _atom_site_symmetry_multiplicity
 _atom_site_fract_x
 _atom_site_fract_y
 _atom_site_fract_z
 _atom_site_occupancy
 _atom_site_hle17_bader_spin_density
 _atom_site_hle17_ddec_charge
 _atom_site_hle17_ddec_spin_density
 _atom_site_hle17_ddec_sum_bond_order
 _atom_site_hle17_magmom
 _atom_site_hse06_10hf_bader_spin_density
 _atom_site_hse06_10hf_ddec_charge
 _atom_site_hse06_10hf_ddec_spin_density
 _atom_site_hse06_10hf_ddec_sum_bond_order
 _atom_site_hse06_10hf_magmom
 _atom_site_hse06_bader_spin_density
 _atom_site_hse06_ddec_charge
 _atom_site_hse06_ddec_spin_density
 _atom_site_hse06_ddec_sum_bond_order
 _atom_site_hse06_magmom
 _atom_site_pbe_bader_spin_density
 _atom_site_pbe_cm5_charge
 _atom_site_pbe_ddec_charge
 _atom_site_pbe_ddec_spin_density
 _atom_site_pbe_ddec_sum_bond_order
 _atom_site_pbe_magmom
Cd  Cd0  1  0.50000147  0.00000026  0.99999964  1  0  1.153737  0  1.689887  0  0  0.979579  0  2.132944  0  0  1.031347  0  2.081599  0  0  0.782751  0.942897  0  2.168046  0
Cd  Cd1  1  0.49999806  0.50000113  0.50000081  1  0  1.154179  0  1.69207  0  0  0.980255  0  2.135021  0  0  1.031876  0  2.083813  0  0  0.783381  0.943671  0  2.170052  0
H  H2  1  0.30155980  0.55588583  0.07086319  1  0  0.110694  0  0.965457  0  0  0.122138  0  1.021462  0  0  0.125944  0  1.018593  0  0  0.105106  0.119323  0  1.023756  0
H  H3  1  0.92817256  0.94350839  0.42949460  1  0  0.111448  0  0.964745  0  0  0.122475  0  1.021215  0  0  0.126357  0  1.018268  0  0  0.10543  0.119622  0  1.02353  0
H  H4  1  0.69843729  0.44411258  0.92913828  1  0  0.11073  0  0.965462  0  0  0.122179  0  1.021453  0  0  0.125982  0  1.018587  0  0  0.105127  0.119365  0  1.023744  0
H  H5  1  0.07182792  0.05649119  0.57050398  1  0  0.111483  0  0.96473  0  0  0.122508  0  1.021201  0  0  0.12639  0  1.018252  0  0  0.105448  0.119656  0  1.023519  0
H  H6  1  0.18942695  0.37588471  0.21427180  1  0  0.098163  0  0.969375  0  0  0.105285  0  1.038958  0  0  0.108295  0  1.037128  0  0  0.10227  0.103028  0  1.040411  0
H  H7  1  0.77966352  0.12370755  0.28590460  1  0  0.097253  0  0.96779  0  0  0.10437  0  1.037545  0  0  0.107497  0  1.035522  0  0  0.101916  0.102104  0  1.039005  0
H  H8  1  0.81056828  0.62411755  0.78572953  1  0  0.09815  0  0.96938  0  0  0.105271  0  1.03896  0  0  0.108283  0  1.037129  0  0  0.102272  0.103012  0  1.040418  0
H  H9  1  0.22033467  0.87629725  0.71409593  1  0  0.097256  0  0.967781  0  0  0.104382  0  1.03753  0  0  0.10751  0  1.035507  0  0  0.101916  0.102111  0  1.038993  0
H  H10  1  0.90042878  0.99580100  0.84595262  1  0  0.09898  0  0.905245  0  0  0.115199  0  0.956315  0  0  0.117054  0  0.953712  0  0  0.146575  0.113771  0  0.95822  0
H  H11  1  0.74189648  0.50387704  0.65410119  1  0  0.099547  0  0.905305  0  0  0.115654  0  0.956429  0  0  0.117532  0  0.95381  0  0  0.146488  0.114181  0  0.958372  0
H  H12  1  0.09957911  0.00419847  0.15404320  1  0  0.09899  0  0.905131  0  0  0.115196  0  0.956233  0  0  0.117052  0  0.953626  0  0  0.146558  0.113772  0  0.958133  0
H  H13  1  0.25810068  0.49612258  0.34589838  1  0  0.099557  0  0.905294  0  0  0.115689  0  0.956389  0  0  0.117571  0  0.953763  0  0  0.146498  0.114184  0  0.95838  0
H  H14  1  0.67391726  0.66348830  0.16343683  1  0  0.119687  0  0.951503  0  0  0.131818  0  1.010093  0  0  0.135367  0  1.006705  0  0  0.111975  0.129209  0  1.012652  0
H  H15  1  0.50065374  0.83665796  0.33645269  1  0  0.119213  0  0.951504  0  0  0.131327  0  1.01001  0  0  0.134857  0  1.006607  0  0  0.1121  0.128758  0  1.012507  0
H  H16  1  0.32608182  0.33651259  0.83656248  1  0  0.119657  0  0.951576  0  0  0.13181  0  1.010133  0  0  0.135358  0  1.006745  0  0  0.11195  0.129198  0  1.012692  0
H  H17  1  0.49934927  0.16334161  0.66354568  1  0  0.119229  0  0.95147  0  0  0.131322  0  1.010003  0  0  0.134853  0  1.006599  0  0  0.112089  0.128754  0  1.012504  0
H  H18  1  0.19522878  0.81374253  0.89450725  1  0  0.322906  0  0.936054  0  0  0.298788  0  1.002841  0  0  0.308736  0  0.994555  0  0  0.305523  0.291785  0  1.008693  0
H  H19  1  0.90336201  0.68578913  0.60553112  1  0  0.322373  0  0.936589  0  0  0.298839  0  1.002889  0  0  0.308819  0  0.994502  0  0  0.30525  0.291833  0  1.008756  0
H  H20  1  0.80477707  0.18625324  0.10549261  1  0  0.32297  0  0.935884  0  0  0.298784  0  1.002788  0  0  0.308732  0  0.994503  0  0  0.305517  0.291784  0  1.008632  0
H  H21  1  0.09663839  0.31420924  0.39446935  1  0  0.322383  0  0.936547  0  0  0.298835  0  1.002857  0  0  0.308815  0  0.994469  0  0  0.305241  0.291828  0  1.008723  0
H  H22  1  0.56031429  0.24152858  0.03367281  1  0  0.403093  0  0.917593  0  0  0.367463  0  0.990029  0  0  0.379735  0  0.972454  0  0  0.275093  0.358839  0  1.002339  0
H  H23  1  0.83571781  0.25843844  0.46630709  1  0  0.403372  0  0.917298  0  0  0.367396  0  0.990369  0  0  0.379707  0  0.972733  0  0  0.27487  0.358732  0  1.002716  0
H  H24  1  0.43968009  0.75847250  0.96633119  1  0  0.403094  0  0.917587  0  0  0.367458  0  0.990035  0  0  0.379729  0  0.972459  0  0  0.275081  0.358834  0  1.002344  0
H  H25  1  0.16428025  0.74156394  0.53369723  1  0  0.403343  0  0.917341  0  0  0.367388  0  0.990374  0  0  0.379698  0  0.97274  0  0  0.274863  0.358726  0  1.002722  0
H  H26  1  0.42261901  0.35336757  0.96561334  1  0  0.396267  0  0.879587  0  0  0.371944  0  0.953117  0  0  0.38009  0  0.942584  0  0  0.293399  0.366206  0  0.959491  0
H  H27  1  0.74185679  0.14654938  0.53431819  1  0  0.396861  0  0.878082  0  0  0.372639  0  0.951228  0  0  0.380778  0  0.941289  0  0  0.293747  0.366907  0  0.9576  0
H  H28  1  0.57737746  0.64663212  0.03438808  1  0  0.396273  0  0.879602  0  0  0.371944  0  0.953126  0  0  0.380091  0  0.942583  0  0  0.293413  0.366208  0  0.9595  0
H  H29  1  0.25814379  0.85345024  0.46568146  1  0  0.396869  0  0.878074  0  0  0.372647  0  0.951225  0  0  0.380787  0  0.94128  0  0  0.293738  0.366919  0  0.957585  0
C  C30  1  0.87888869  0.72634179  0.05092410  1  0  0.130077  0  3.84084  0  0  0.13112  0  4.085393  0  0  0.132174  0  4.111186  0  0  0.082978  0.13018  0  4.068022  0
C  C31  1  0.65611971  0.77330446  0.44902845  1  0  0.130806  0  3.839696  0  0  0.132089  0  4.084675  0  0  0.133119  0  4.110467  0  0  0.082643  0.131168  0  4.06731  0
C  C32  1  0.12111023  0.27365786  0.94907604  1  0  0.130127  0  3.840765  0  0  0.131124  0  4.08538  0  0  0.132176  0  4.111174  0  0  0.082973  0.130189  0  4.068004  0
C  C33  1  0.34388277  0.22669644  0.55097095  1  0  0.130799  0  3.839617  0  0  0.132079  0  4.0846  0  0  0.133108  0  4.110392  0  0  0.082626  0.131166  0  4.067232  0
C  C34  1  0.84884392  0.42012898  0.29389283  1  0  0.649508  0  3.900109  0  0  0.593441  0  4.203964  0  0  0.627986  0  4.196915  0  0  0.202318  0.570033  0  4.207963  0
C  C35  1  0.56289226  0.07963522  0.20612381  1  0  0.649017  0  3.90246  0  0  0.5935  0  4.205464  0  0  0.628058  0  4.198451  0  0  0.202802  0.570089  0  4.209444  0
C  C36  1  0.15115554  0.57986817  0.70610925  1  0  0.649515  0  3.900082  0  0  0.593426  0  4.203975  0  0  0.627971  0  4.196925  0  0  0.202262  0.570011  0  4.207983  0
C  C37  1  0.43710490  0.92036439  0.79387575  1  0  0.648984  0  3.90258  0  0  0.593449  0  4.205609  0  0  0.628007  0  4.198596  0  0  0.20277  0.570031  0  4.209589  0
C  C38  1  0.92505088  0.51068845  0.19694161  1  0  -0.078199  0  3.764439  0  0  -0.057192  0  4.008106  0  0  -0.067262  0  4.033488  0  0  -0.028581  -0.050739  0  3.991065  0
C  C39  1  0.63272613  0.98905032  0.30307879  1  0  -0.079924  0  3.763223  0  0  -0.059847  0  4.008079  0  0  -0.070012  0  4.033604  0  0  -0.029423  -0.053361  0  3.991006  0
C  C40  1  0.07494794  0.48931115  0.80305747  1  0  -0.078258  0  3.764484  0  0  -0.057254  0  4.008165  0  0  -0.067326  0  4.033548  0  0  -0.028614  -0.050807  0  3.99113  0
C  C41  1  0.36727470  0.01095059  0.69692110  1  0  -0.079893  0  3.763321  0  0  -0.0598  0  4.008155  0  0  -0.069967  0  4.033681  0  0  -0.029408  -0.053292  0  3.991052  0
C  C42  1  0.05614679  0.69474683  0.02496850  1  0  0.171906  0  3.778542  0  0  0.160774  0  4.021589  0  0  0.166687  0  4.043953  0  0  0.098647  0.15696  0  4.006401  0
C  C43  1  0.77581673  0.80476255  0.47506131  1  0  0.172747  0  3.775436  0  0  0.160459  0  4.020523  0  0  0.166342  0  4.042967  0  0  0.098185  0.156645  0  4.005317  0
C  C44  1  0.94385187  0.30525152  0.97503140  1  0  0.17187  0  3.778525  0  0  0.160754  0  4.021564  0  0  0.166667  0  4.043928  0  0  0.098667  0.156929  0  4.006388  0
C  C45  1  0.22418332  0.19523839  0.52493936  1  0  0.172811  0  3.775374  0  0  0.160518  0  4.020433  0  0  0.166401  0  4.042877  0  0  0.098205  0.156703  0  4.005225  0
C  C46  1  0.16926325  0.57264601  0.08565064  1  0  -0.183832  0  3.775955  0  0  -0.192966  0  4.022052  0  0  -0.198534  0  4.041727  0  0  -0.10163  -0.189316  0  4.008774  0
C  C47  1  0.82754024  0.92684363  0.41448720  1  0  -0.185493  0  3.772924  0  0  -0.194131  0  4.019446  0  0  -0.199769  0  4.039123  0  0  -0.101489  -0.190425  0  4.00618  0
C  C48  1  0.83073531  0.42735229  0.91434819  1  0  -0.183891  0  3.775951  0  0  -0.193037  0  4.022056  0  0  -0.198603  0  4.041729  0  0  -0.101647  -0.189382  0  4.008773  0
C  C49  1  0.17245946  0.07315598  0.58551216  1  0  -0.185538  0  3.772888  0  0  -0.194184  0  4.019423  0  0  -0.199818  0  4.039091  0  0  -0.101503  -0.190481  0  4.006159  0
C  C50  1  0.10232209  0.47876837  0.16956407  1  0  -0.065648  0  3.744247  0  0  -0.098313  0  4.006039  0  0  -0.096812  0  4.027096  0  0  -0.092258  -0.098981  0  3.991713  0
C  C51  1  0.75070032  0.02084523  0.33053779  1  0  -0.06242  0  3.740711  0  0  -0.094534  0  4.001967  0  0  -0.093063  0  4.023028  0  0  -0.091112  -0.095216  0  3.98762  0
C  C52  1  0.89767585  0.52123121  0.83043472  1  0  -0.065582  0  3.744199  0  0  -0.098242  0  4.005993  0  0  -0.096741  0  4.027047  0  0  -0.09225  -0.098907  0  3.991666  0
C  C53  1  0.24930051  0.97915568  0.66946210  1  0  -0.062464  0  3.740791  0  0  -0.094594  0  4.002054  0  0  -0.093122  0  4.023115  0  0  -0.091152  -0.095277  0  3.987696  0
C  C54  1  0.92112630  0.89775857  0.91210343  1  0  0.282371  0  3.643127  0  0  0.215297  0  3.923341  0  0  0.233969  0  3.93247  0  0  0.166995  0.203124  0  3.916612  0
C  C55  1  0.73083848  0.60185874  0.58790077  1  0  0.279782  0  3.644219  0  0  0.213132  0  3.92434  0  0  0.231797  0  3.933485  0  0  0.165831  0.200993  0  3.917596  0
C  C56  1  0.07888210  0.10224349  0.08789287  1  0  0.282356  0  3.643123  0  0  0.21529  0  3.923328  0  0  0.233959  0  3.932459  0  0  0.167005  0.203108  0  3.916605  0
C  C57  1  0.26916225  0.39814214  0.41209805  1  0  0.279757  0  3.644135  0  0  0.213067  0  3.924238  0  0  0.231729  0  3.933383  0  0  0.165814  0.200952  0  3.917513  0
C  C58  1  0.81174702  0.63619356  0.13799330  1  0  -0.131232  0  3.71885  0  0  -0.16359  0  3.969176  0  0  -0.162763  0  3.988468  0  0  -0.082192  -0.163858  0  3.956149  0
C  C59  1  0.58588546  0.86362470  0.36196225  1  0  -0.13056  0  3.716852  0  0  -0.162611  0  3.967337  0  0  -0.161683  0  3.986593  0  0  -0.082059  -0.162939  0  3.954338  0
C  C60  1  0.18825336  0.36380598  0.86200421  1  0  -0.131196  0  3.718858  0  0  -0.16354  0  3.969152  0  0  -0.16271  0  3.988442  0  0  -0.082161  -0.1638  0  3.956116  0
C  C61  1  0.41411615  0.13637619  0.63803685  1  0  -0.130607  0  3.716888  0  0  -0.162643  0  3.967367  0  0  -0.161714  0  3.986624  0  0  -0.082058  -0.162986  0  3.95437  0
N  N62  1  0.79815783  0.85527708  0.97883477  1  0  -0.448404  0  3.190361  0  0  -0.377552  0  3.469624  0  0  -0.401017  0  3.486394  0  0  -0.355877  -0.361475  0  3.45778  0
N  N63  1  0.63218653  0.64443611  0.52109509  1  0  -0.447836  0  3.192698  0  0  -0.376904  0  3.472066  0  0  -0.400346  0  3.488816  0  0  -0.354868  -0.360828  0  3.460193  0
N  N64  1  0.20184482  0.14472507  0.02116380  1  0  -0.448465  0  3.190337  0  0  -0.377618  0  3.469645  0  0  -0.401081  0  3.486413  0  0  -0.355914  -0.361539  0  3.457803  0
N  N65  1  0.36781561  0.35556345  0.47890299  1  0  -0.447824  0  3.192627  0  0  -0.376907  0  3.472032  0  0  -0.400349  0  3.488782  0  0  -0.354875  -0.360837  0  3.46016  0
N  N66  1  0.07767615  0.80544997  0.93639725  1  0  -0.347485  0  3.362182  0  0  -0.285229  0  3.605356  0  0  -0.304161  0  3.616448  0  0  -0.372314  -0.272531  0  3.597595  0
N  N67  1  0.81945168  0.69401597  0.56363178  1  0  -0.346349  0  3.363948  0  0  -0.284577  0  3.60749  0  0  -0.30351  0  3.618646  0  0  -0.371966  -0.271891  0  3.599699  0
N  N68  1  0.92232986  0.19454705  0.06360178  1  0  -0.347446  0  3.362177  0  0  -0.28513  0  3.605324  0  0  -0.30406  0  3.616419  0  0  -0.372268  -0.272429  0  3.597564  0
N  N69  1  0.18054951  0.30598236  0.43636791  1  0  -0.346344  0  3.363841  0  0  -0.284526  0  3.607361  0  0  -0.303457  0  3.618514  0  0  -0.371926  -0.271835  0  3.599556  0
O  O70  1  0.68715546  0.45977167  0.31474443  1  0  -0.644647  0  1.982539  0  0  -0.58526  0  2.232443  0  0  -0.611784  0  2.220713  0  0  -0.335633  -0.566735  0  2.239881  0
O  O71  1  0.46195970  0.03974018  0.18519287  1  0  -0.643156  0  1.983534  0  0  -0.58382  0  2.233014  0  0  -0.610399  0  2.221303  0  0  -0.334985  -0.565254  0  2.240422  0
O  O72  1  0.31284420  0.54022556  0.68525979  1  0  -0.644676  0  1.982473  0  0  -0.585281  0  2.232392  0  0  -0.611805  0  2.220661  0  0  -0.335616  -0.566747  0  2.239824  0
O  O73  1  0.53803686  0.96025955  0.81480962  1  0  -0.64315  0  1.983543  0  0  -0.583814  0  2.23304  0  0  -0.610394  0  2.221327  0  0  -0.334982  -0.565249  0  2.240455  0
O  O74  1  0.94918286  0.30933904  0.35222611  1  0  -0.642831  0  2.002873  0  0  -0.579274  0  2.221157  0  0  -0.605236  0  2.210677  0  0  -0.323545  -0.561152  0  2.227775  0
O  O75  1  0.61042189  0.19064880  0.14790551  1  0  -0.643552  0  2.006946  0  0  -0.579805  0  2.224677  0  0  -0.605747  0  2.21419  0  0  -0.324307  -0.561695  0  2.231329  0
O  O76  1  0.05081894  0.69066193  0.64777513  1  0  -0.642797  0  2.002801  0  0  -0.579248  0  2.22109  0  0  -0.605209  0  2.210611  0  0  -0.3235  -0.561123  0  2.227711  0
O  O77  1  0.38957413  0.80935343  0.85209503  1  0  -0.643496  0  2.007058  0  0  -0.579762  0  2.224792  0  0  -0.605705  0  2.214305  0  0  -0.324271  -0.561652  0  2.231447  0
O  O78  1  0.53962631  0.25397427  0.95863366  1  0  -0.818587  0  1.838454  0  0  -0.764261  0  2.02774  0  0  -0.784717  0  1.997165  0  0  -0.590338  -0.749717  0  2.047792  0
O  O79  1  0.75236015  0.24597036  0.54131161  1  0  -0.81992  0  1.836863  0  0  -0.765216  0  2.026187  0  0  -0.785713  0  1.996222  0  0  -0.590637  -0.750675  0  2.046344  0
O  O80  1  0.46037217  0.74602674  0.04136858  1  0  -0.818575  0  1.838468  0  0  -0.764226  0  2.027766  0  0  -0.784682  0  1.997181  0  0  -0.59032  -0.749684  0  2.047823  0
O  O81  1  0.24763651  0.75402942  0.45869194  1  0  -0.819913  0  1.836922  0  0  -0.765218  0  2.026233  0  0  -0.785716  0  1.996264  0  0  -0.590623  -0.750684  0  2.046377  0
