# generated using pymatgen
data_AgH12C20(NO)3
_symmetry_space_group_name_H-M   'P 1'
_cell_length_a   9.18404628
_cell_length_b   9.53398741
_cell_length_c   10.76878639
_cell_angle_alpha   110.88317810
_cell_angle_beta   96.25559183
_cell_angle_gamma   103.35284386
_symmetry_Int_Tables_number   1
_chemical_formula_structural   AgH12C20(NO)3
_chemical_formula_sum   'Ag2 H24 C40 N6 O6'
_cell_volume   837.97165515
_cell_formula_units_Z   2
loop_
 _symmetry_equiv_pos_site_id
 _symmetry_equiv_pos_as_xyz
  1  'x, y, z'
loop_
 _atom_site_type_symbol
 _atom_site_label
 _atom_site_symmetry_multiplicity
 _atom_site_fract_x
 _atom_site_fract_y
 _atom_site_fract_z
 _atom_site_occupancy
 _atom_site_pbe_bader_spin_density
 _atom_site_pbe_cm5_charge
 _atom_site_pbe_ddec_charge
 _atom_site_pbe_ddec_spin_density
 _atom_site_pbe_ddec_sum_bond_order
 _atom_site_pbe_magmom
Ag  Ag0  1  0.08864942  0.00690193  0.19987193  1  0  0.477672  0.369681  0  1.891389  0
Ag  Ag1  1  0.91134817  0.99309464  0.80012181  1  0  0.477678  0.369699  0  1.891306  0
H  H2  1  0.36176155  0.30760479  0.29498019  1  0  0.118179  0.099444  0  1.015223  0
H  H3  1  0.63823716  0.69239503  0.70502310  1  0  0.118175  0.099484  0  1.015184  0
H  H4  1  0.19655806  0.76769530  0.11589432  1  0  0.099199  0.106094  0  1.049076  0
H  H5  1  0.80344319  0.23230558  0.88411140  1  0  0.099179  0.106015  0  1.049057  0
H  H6  1  0.31138484  0.55561034  0.01765072  1  0  0.101762  0.103966  0  1.034165  0
H  H7  1  0.68861673  0.44439190  0.98234991  1  0  0.101758  0.10399  0  1.034126  0
H  H8  1  0.58534839  0.61897236  0.98999201  1  0  0.102174  0.100046  0  1.027573  0
H  H9  1  0.41465137  0.38102761  0.01000585  1  0  0.102173  0.100052  0  1.027602  0
H  H10  1  0.74196391  0.89522640  0.07066495  1  0  0.103574  0.110046  0  1.015526  0
H  H11  1  0.25803731  0.10477464  0.92933617  1  0  0.103595  0.110067  0  1.015514  0
H  H12  1  0.76440929  0.18026753  0.17745400  1  0  0.111619  0.127941  0  1.006516  0
H  H13  1  0.23558793  0.81973822  0.82255118  1  0  0.111623  0.127953  0  1.006505  0
H  H14  1  0.91010140  0.70723998  0.21541484  1  0  0.123087  0.107084  0  0.994508  0
H  H15  1  0.08988861  0.29275314  0.78457897  1  0  0.123104  0.10712  0  0.994484  0
H  H16  1  0.01730117  0.24538314  0.37988977  1  0  0.096655  0.100083  0  1.063522  0
H  H17  1  0.98270729  0.75461669  0.62010782  1  0  0.096623  0.100025  0  1.063373  0
H  H18  1  0.92626493  0.44488932  0.55066962  1  0  0.103771  0.105122  0  1.013981  0
H  H19  1  0.07374714  0.55511509  0.44933167  1  0  0.103782  0.105176  0  1.013996  0
H  H20  1  0.72380624  0.36392781  0.66378460  1  0  0.103168  0.11192  0  1.016801  0
H  H21  1  0.27620075  0.63607785  0.33621764  1  0  0.10316  0.111872  0  1.016833  0
H  H22  1  0.60610924  0.07965437  0.60993750  1  0  0.0989  0.1014  0  1.039857  0
H  H23  1  0.39388578  0.92034809  0.39005988  1  0  0.098924  0.101422  0  1.039874  0
H  H24  1  0.60027367  0.80093951  0.48844831  1  0  0.108999  0.114319  0  1.006686  0
H  H25  1  0.39971876  0.19906206  0.51154113  1  0  0.108992  0.114252  0  1.006717  0
C  C26  1  0.42026540  0.21888419  0.25495991  1  0  0.058713  0.047889  0  3.902626  0
C  C27  1  0.57973007  0.78111215  0.74504195  1  0  0.058646  0.047741  0  3.902641  0
C  C28  1  0.40401555  0.95373215  0.15442845  1  0  0.102314  0.173833  0  3.997927  0
C  C29  1  0.59598393  0.04626633  0.84557909  1  0  0.102353  0.173749  0  3.997952  0
C  C30  1  0.31656713  0.79523040  0.10806618  1  0  -0.087869  -0.156658  0  3.96331  0
C  C31  1  0.68343119  0.20477182  0.89193696  1  0  -0.087884  -0.156545  0  3.963164  0
C  C32  1  0.38190570  0.67680293  0.05224192  1  0  -0.081558  -0.054675  0  3.966603  0
C  C33  1  0.61809076  0.32320069  0.94775597  1  0  -0.081576  -0.054719  0  3.966657  0
C  C34  1  0.53598049  0.71285470  0.03843139  1  0  -0.087441  -0.08177  0  4.002307  0
C  C35  1  0.46401963  0.28714642  0.96156781  1  0  -0.08742  -0.081802  0  4.002342  0
C  C36  1  0.62369480  0.86657289  0.08236227  1  0  -0.085226  -0.110296  0  3.948234  0
C  C37  1  0.37630792  0.13342903  0.91764764  1  0  -0.085232  -0.110238  0  3.94814  0
C  C38  1  0.56103946  0.99113850  0.14334365  1  0  -0.007461  0.035029  0  4.005173  0
C  C39  1  0.43896218  0.00886344  0.85666618  1  0  -0.007538  0.034945  0  4.005194  0
C  C40  1  0.64652620  0.15030562  0.19011999  1  0  -0.053297  -0.105041  0  3.847616  0
C  C41  1  0.35346889  0.84969306  0.80988355  1  0  -0.053241  -0.104937  0  3.84759  0
C  C42  1  0.57723415  0.26626006  0.24786058  1  0  -0.001764  0.083155  0  4.127826  0
C  C43  1  0.42275769  0.73373524  0.75213877  1  0  -0.001699  0.083147  0  4.127847  0
C  C44  1  0.64942525  0.42843451  0.29021548  1  0  -0.031982  -0.078092  0  4.085172  0
C  C45  1  0.35056188  0.57156310  0.70978891  1  0  -0.032083  -0.078093  0  4.085218  0
C  C46  1  0.69696549  0.56958371  0.32098650  1  0  -0.03349  -0.083943  0  4.070129  0
C  C47  1  0.30302953  0.43041190  0.67900114  1  0  -0.033416  -0.083868  0  4.070042  0
C  C48  1  0.74939293  0.73197376  0.35142772  1  0  0.001477  0.094647  0  4.118039  0
C  C49  1  0.25060143  0.26801931  0.64856550  1  0  0.001481  0.094581  0  4.117803  0
C  C50  1  0.86476797  0.78931928  0.28846786  1  0  0.065058  0.060556  0  3.883055  0
C  C51  1  0.13522637  0.21067729  0.71152748  1  0  0.065062  0.060479  0  3.883126  0
C  C52  1  0.86538246  0.04890903  0.40156949  1  0  0.104013  0.184318  0  3.980919  0
C  C53  1  0.13462308  0.95109551  0.59843132  1  0  0.104059  0.184315  0  3.980838  0
C  C54  1  0.92806292  0.21019907  0.43142211  1  0  -0.090414  -0.172871  0  3.976088  0
C  C55  1  0.07194736  0.78979960  0.56857338  1  0  -0.090451  -0.172894  0  3.976233  0
C  C56  1  0.87653796  0.32009112  0.52455867  1  0  -0.079278  -0.048145  0  3.964046  0
C  C57  1  0.12346939  0.67991230  0.47543911  1  0  -0.079228  -0.04817  0  3.964458  0
C  C58  1  0.75923289  0.27360713  0.58896661  1  0  -0.085617  -0.074956  0  3.981323  0
C  C59  1  0.24077480  0.72639749  0.41103068  1  0  -0.085651  -0.074908  0  3.981317  0
C  C60  1  0.69506063  0.11685077  0.55973217  1  0  -0.089568  -0.13111  0  3.989874  0
C  C61  1  0.30494275  0.88315031  0.44026635  1  0  -0.089547  -0.131106  0  3.989876  0
C  C62  1  0.74718880  0.00082620  0.46690627  1  0  -0.007702  0.032715  0  4.033612  0
C  C63  1  0.25281129  0.99917504  0.53308926  1  0  -0.007756  0.032676  0  4.033531  0
C  C64  1  0.68990815  0.83991273  0.43946462  1  0  -0.057913  -0.120528  0  3.869463  0
C  C65  1  0.31008541  0.16008527  0.56052370  1  0  -0.057974  -0.120481  0  3.869421  0
N  N66  1  0.33685695  0.07054119  0.20883252  1  0  -0.342834  -0.244293  0  3.612252  0
N  N67  1  0.66314181  0.92945494  0.79117417  1  0  -0.342778  -0.244207  0  3.612292  0
N  N68  1  0.91889124  0.93944577  0.31107522  1  0  -0.340896  -0.245259  0  3.621804  0
N  N69  1  0.08110960  0.06055763  0.68892667  1  0  -0.340866  -0.245133  0  3.62179  0
N  N70  1  0.07235081  0.28979668  0.10314792  1  0  0.093015  0.709785  0  4.429618  0
N  N71  1  0.92765079  0.71020199  0.89685243  1  0  0.093031  0.709817  0  4.42953  0
O  O72  1  0.97777957  0.15156070  0.06540035  1  0  -0.219554  -0.472036  0  2.101197  0
O  O73  1  0.02222204  0.84843793  0.93460092  1  0  -0.21954  -0.472009  0  2.101191  0
O  O74  1  0.14253764  0.36122462  0.22589655  1  0  -0.196762  -0.456145  0  1.958085  0
O  O75  1  0.85746066  0.63877772  0.77410292  1  0  -0.196813  -0.456198  0  1.958036  0
O  O76  1  0.09303472  0.34945491  0.01696993  1  0  -0.19272  -0.443253  0  1.933347  0
O  O77  1  0.90696908  0.65054023  0.98302755  1  0  -0.192707  -0.44327  0  1.933353  0
