# generated using pymatgen
data_KH5C6(NO)6
_symmetry_space_group_name_H-M   'P 1'
_cell_length_a   4.56951082
_cell_length_b   10.06460202
_cell_length_c   12.30712745
_cell_angle_alpha   106.42843993
_cell_angle_beta   90.00003014
_cell_angle_gamma   90.00004321
_symmetry_Int_Tables_number   1
_chemical_formula_structural   KH5C6(NO)6
_chemical_formula_sum   'K2 H10 C12 N12 O12'
_cell_volume   542.90054969
_cell_formula_units_Z   2
loop_
 _symmetry_equiv_pos_site_id
 _symmetry_equiv_pos_as_xyz
  1  'x, y, z'
loop_
 _atom_site_type_symbol
 _atom_site_label
 _atom_site_symmetry_multiplicity
 _atom_site_fract_x
 _atom_site_fract_y
 _atom_site_fract_z
 _atom_site_occupancy
 _atom_site_hle17_bader_spin_density
 _atom_site_hle17_ddec_charge
 _atom_site_hle17_ddec_spin_density
 _atom_site_hle17_ddec_sum_bond_order
 _atom_site_hle17_magmom
 _atom_site_hse06_10hf_bader_spin_density
 _atom_site_hse06_10hf_ddec_charge
 _atom_site_hse06_10hf_ddec_spin_density
 _atom_site_hse06_10hf_ddec_sum_bond_order
 _atom_site_hse06_10hf_magmom
 _atom_site_hse06_bader_spin_density
 _atom_site_hse06_ddec_charge
 _atom_site_hse06_ddec_spin_density
 _atom_site_hse06_ddec_sum_bond_order
 _atom_site_hse06_magmom
 _atom_site_pbe_bader_spin_density
 _atom_site_pbe_cm5_charge
 _atom_site_pbe_ddec_charge
 _atom_site_pbe_ddec_spin_density
 _atom_site_pbe_ddec_sum_bond_order
 _atom_site_pbe_magmom
K  K0  1  0.82109759  0.49999961  0.74999980  1  0  0.939698  0  0.405596  0  0  0.887861  0  0.587881  0  0  0.902727  0  0.566166  0  0  0.727954  0.876827  0  0.603339  0
K  K1  1  0.17890158  0.50000148  0.25000110  1  0  0.939698  0  0.405597  0  0  0.887854  0  0.587876  0  0  0.902725  0  0.566158  0  0  0.727961  0.876814  0  0.603346  0
H  H2  1  0.99999840  0.50000015  0.50000000  1  0  0.389448  0  0.920866  0  0  0.357546  0  0.999942  0  0  0.371784  0  0.986539  0  0  0.29254  0.347648  0  1.009114  0
H  H3  1  0.00000112  0.49999997  0.99999975  1  0  0.389451  0  0.920863  0  0  0.357553  0  0.999933  0  0  0.371791  0  0.986528  0  0  0.292541  0.347655  0  1.009105  0
H  H4  1  0.15973586  0.92149438  0.38344277  1  0  0.33468  0  0.913762  0  0  0.306886  0  0.995985  0  0  0.31557  0  0.987786  0  0  0.299999  0.300732  0  1.001824  0
H  H5  1  0.15973497  0.07850549  0.11655706  1  0  0.334679  0  0.913756  0  0  0.306881  0  0.995984  0  0  0.315567  0  0.987781  0  0  0.299988  0.300726  0  1.001823  0
H  H6  1  0.84026550  0.07850569  0.61655707  1  0  0.334681  0  0.913774  0  0  0.306892  0  0.995989  0  0  0.315577  0  0.987788  0  0  0.299991  0.300738  0  1.001827  0
H  H7  1  0.84026639  0.92149354  0.88344253  1  0  0.3346  0  0.913878  0  0  0.306857  0  0.996038  0  0  0.315542  0  0.987838  0  0  0.299972  0.300701  0  1.001878  0
H  H8  1  0.44613619  0.79853246  0.34944055  1  0  0.331775  0  0.915675  0  0  0.303365  0  1.001173  0  0  0.310978  0  0.994036  0  0  0.304825  0.297999  0  1.006088  0
H  H9  1  0.44613556  0.20146652  0.15055831  1  0  0.331792  0  0.915664  0  0  0.303385  0  1.001154  0  0  0.310998  0  0.994018  0  0  0.304837  0.29802  0  1.006069  0
H  H10  1  0.55386298  0.20146658  0.65055904  1  0  0.331839  0  0.915641  0  0  0.303433  0  1.001124  0  0  0.311048  0  0.993986  0  0  0.304851  0.298068  0  1.006039  0
H  H11  1  0.55386361  0.79853253  0.84944047  1  0  0.331808  0  0.915653  0  0  0.303408  0  1.001137  0  0  0.311021  0  0.994001  0  0  0.304844  0.298042  0  1.006052  0
C  C12  1  0.67306199  0.64317022  0.49270329  1  0  0.669132  0  3.896741  0  0  0.616034  0  4.20178  0  0  0.649987  0  4.191349  0  0  0.221738  0.59285  0  4.208643  0
C  C13  1  0.67306141  0.35683092  0.00729694  1  0  0.669244  0  3.896653  0  0  0.616169  0  4.201671  0  0  0.650117  0  4.191252  0  0  0.221763  0.592987  0  4.208533  0
C  C14  1  0.32693718  0.35682985  0.50729655  1  0  0.669215  0  3.896702  0  0  0.616108  0  4.201734  0  0  0.650065  0  4.191297  0  0  0.221741  0.592924  0  4.208598  0
C  C15  1  0.32693776  0.64316916  0.99270290  1  0  0.669221  0  3.896665  0  0  0.616109  0  4.201727  0  0  0.650067  0  4.191291  0  0  0.221728  0.592925  0  4.208589  0
C  C16  1  0.27151151  0.83232883  0.50676978  1  0  0.403101  0  3.861876  0  0  0.369705  0  4.137744  0  0  0.386179  0  4.151032  0  0  0.226613  0.358748  0  4.128495  0
C  C17  1  0.27151130  0.16767119  0.99322990  1  0  0.403165  0  3.86188  0  0  0.369737  0  4.137805  0  0  0.386214  0  4.151091  0  0  0.226644  0.358781  0  4.128552  0
C  C18  1  0.72848984  0.16767125  0.49323006  1  0  0.403232  0  3.86178  0  0  0.369768  0  4.137718  0  0  0.386244  0  4.151003  0  0  0.226651  0.35881  0  4.128471  0
C  C19  1  0.72848786  0.83232888  0.00676995  1  0  0.403101  0  3.861971  0  0  0.369681  0  4.137884  0  0  0.386156  0  4.151172  0  0  0.226592  0.358724  0  4.128633  0
C  C20  1  0.44920883  0.74322001  0.55349861  1  0  -0.078449  0  3.718039  0  0  -0.079915  0  3.986624  0  0  -0.083097  0  3.995263  0  0  0.106225  -0.078027  0  3.981064  0
C  C21  1  0.44921089  0.25677802  0.94650063  1  0  -0.078446  0  3.718034  0  0  -0.079946  0  3.98667  0  0  -0.083127  0  3.995311  0  0  0.106225  -0.078058  0  3.981109  0
C  C22  1  0.55079253  0.25678007  0.44650042  1  0  -0.078531  0  3.717985  0  0  -0.07994  0  3.986535  0  0  -0.083123  0  3.995171  0  0  0.10621  -0.078052  0  3.980979  0
C  C23  1  0.55079047  0.74321998  0.05349872  1  0  -0.078468  0  3.717943  0  0  -0.079925  0  3.986534  0  0  -0.083108  0  3.995172  0  0  0.106222  -0.078037  0  3.980978  0
N  N24  1  0.37433001  0.76044315  0.65980481  1  0  -0.101823  0  2.801961  0  0  -0.104388  0  3.084584  0  0  -0.094453  0  3.085223  0  0  -0.171648  -0.1106  0  3.084158  0
N  N25  1  0.37433189  0.23955692  0.84019491  1  0  -0.101832  0  2.801998  0  0  -0.104398  0  3.084617  0  0  -0.094459  0  3.085257  0  0  -0.171663  -0.110615  0  3.084193  0
N  N26  1  0.62566916  0.23955796  0.34019528  1  0  -0.101744  0  2.801918  0  0  -0.104351  0  3.084524  0  0  -0.094411  0  3.085161  0  0  -0.171637  -0.110574  0  3.084098  0
N  N27  1  0.62566947  0.76044212  0.15980469  1  0  -0.101752  0  2.801895  0  0  -0.104346  0  3.084514  0  0  -0.094405  0  3.085152  0  0  -0.171628  -0.110571  0  3.084087  0
N  N28  1  0.27602834  0.84261898  0.40019419  1  0  -0.664868  0  3.139866  0  0  -0.632386  0  3.388697  0  0  -0.653162  0  3.385652  0  0  -0.584244  -0.617536  0  3.390335  0
N  N29  1  0.27602756  0.15738095  0.09980568  1  0  -0.664912  0  3.139839  0  0  -0.632415  0  3.388682  0  0  -0.653191  0  3.385634  0  0  -0.584251  -0.617566  0  3.390318  0
N  N30  1  0.72397302  0.15738006  0.59980541  1  0  -0.665  0  3.139896  0  0  -0.632507  0  3.388747  0  0  -0.653283  0  3.385697  0  0  -0.584278  -0.617657  0  3.390386  0
N  N31  1  0.72396942  0.84261911  0.90019497  1  0  -0.66481  0  3.140015  0  0  -0.63237  0  3.388749  0  0  -0.653147  0  3.385705  0  0  -0.584216  -0.617518  0  3.390384  0
N  N32  1  0.08909166  0.90181012  0.58730059  1  0  -0.288428  0  2.664925  0  0  -0.275693  0  2.944727  0  0  -0.283415  0  2.951357  0  0  -0.221923  -0.27076  0  2.940629  0
N  N33  1  0.08909122  0.09819085  0.91270009  1  0  -0.288416  0  2.664966  0  0  -0.275674  0  2.944754  0  0  -0.283394  0  2.951389  0  0  -0.22191  -0.270745  0  2.940656  0
N  N34  1  0.91090969  0.09818996  0.41269925  1  0  -0.28842  0  2.664911  0  0  -0.275674  0  2.944708  0  0  -0.283393  0  2.951342  0  0  -0.221906  -0.27075  0  2.940609  0
N  N35  1  0.91090794  0.90180920  0.08730137  1  0  -0.288395  0  2.665  0  0  -0.275643  0  2.944756  0  0  -0.283362  0  2.95139  0  0  -0.221894  -0.270722  0  2.940654  0
O  O36  1  0.81635521  0.57862791  0.55366874  1  0  -0.625711  0  2.110763  0  0  -0.578413  0  2.353435  0  0  -0.60421  0  2.343801  0  0  -0.377882  -0.560612  0  2.359847  0
O  O37  1  0.81635317  0.42137132  0.94633085  1  0  -0.625752  0  2.110749  0  0  -0.578464  0  2.353429  0  0  -0.60426  0  2.343793  0  0  -0.377891  -0.560664  0  2.359841  0
O  O38  1  0.18364395  0.42137216  0.44633110  1  0  -0.625741  0  2.110772  0  0  -0.578426  0  2.35341  0  0  -0.604225  0  2.343772  0  0  -0.377885  -0.560627  0  2.359823  0
O  O39  1  0.18364381  0.57862772  0.05366874  1  0  -0.625703  0  2.110752  0  0  -0.578387  0  2.353409  0  0  -0.604186  0  2.343771  0  0  -0.377843  -0.560586  0  2.359821  0
O  O40  1  0.15479894  0.85592393  0.68246757  1  0  -0.004585  0  2.315259  0  0  0.050949  0  2.57471  0  0  0.037513  0  2.57946  0  0  0.060238  0.059778  0  2.571381  0
O  O41  1  0.15479845  0.14407604  0.81753208  1  0  -0.004637  0  2.315294  0  0  0.05093  0  2.574706  0  0  0.037486  0  2.57946  0  0  0.060223  0.05977  0  2.571374  0
O  O42  1  0.84520460  0.14407719  0.31753171  1  0  -0.004696  0  2.315281  0  0  0.050883  0  2.5747  0  0  0.037435  0  2.579454  0  0  0.060205  0.059735  0  2.571363  0
O  O43  1  0.84520291  0.85592299  0.18246833  1  0  -0.004701  0  2.315332  0  0  0.050876  0  2.574747  0  0  0.037429  0  2.579502  0  0  0.060207  0.059732  0  2.571406  0
O  O44  1  0.70639151  0.62647820  0.38883311  1  0  -0.639385  0  1.92227  0  0  -0.598847  0  2.157966  0  0  -0.619149  0  2.147864  0  0  -0.374191  -0.584806  0  2.164587  0
O  O45  1  0.70638891  0.37352294  0.11116794  1  0  -0.639465  0  1.922226  0  0  -0.598935  0  2.157913  0  0  -0.619234  0  2.147814  0  0  -0.374222  -0.584895  0  2.16454  0
O  O46  1  0.29361204  0.37352291  0.61116698  1  0  -0.63942  0  1.922236  0  0  -0.59889  0  2.157936  0  0  -0.61919  0  2.147833  0  0  -0.374191  -0.584851  0  2.164565  0
O  O47  1  0.29361244  0.62647713  0.88883190  1  0  -0.63947  0  1.92221  0  0  -0.598939  0  2.157917  0  0  -0.61924  0  2.147813  0  0  -0.374226  -0.584904  0  2.16455  0
