# generated using pymatgen
data_Zn2H19C30N3O7
_symmetry_space_group_name_H-M   'P 1'
_cell_length_a   10.02589973
_cell_length_b   11.71438022
_cell_length_c   12.19881173
_cell_angle_alpha   74.70233110
_cell_angle_beta   88.18494550
_cell_angle_gamma   72.63694698
_symmetry_Int_Tables_number   1
_chemical_formula_structural   Zn2H19C30N3O7
_chemical_formula_sum   'Zn4 H38 C60 N6 O14'
_cell_volume   1317.25653300
_cell_formula_units_Z   2
loop_
 _symmetry_equiv_pos_site_id
 _symmetry_equiv_pos_as_xyz
  1  'x, y, z'
loop_
 _atom_site_type_symbol
 _atom_site_label
 _atom_site_symmetry_multiplicity
 _atom_site_fract_x
 _atom_site_fract_y
 _atom_site_fract_z
 _atom_site_occupancy
 _atom_site_hle17_bader_spin_density
 _atom_site_hle17_ddec_charge
 _atom_site_hle17_ddec_spin_density
 _atom_site_hle17_ddec_sum_bond_order
 _atom_site_hle17_magmom
 _atom_site_hse06_10hf_bader_spin_density
 _atom_site_hse06_10hf_ddec_charge
 _atom_site_hse06_10hf_ddec_spin_density
 _atom_site_hse06_10hf_ddec_sum_bond_order
 _atom_site_hse06_10hf_magmom
 _atom_site_hse06_bader_spin_density
 _atom_site_hse06_ddec_charge
 _atom_site_hse06_ddec_spin_density
 _atom_site_hse06_ddec_sum_bond_order
 _atom_site_hse06_magmom
 _atom_site_pbe_bader_spin_density
 _atom_site_pbe_cm5_charge
 _atom_site_pbe_ddec_charge
 _atom_site_pbe_ddec_spin_density
 _atom_site_pbe_ddec_sum_bond_order
 _atom_site_pbe_magmom
Zn  Zn0  1  0.68334431  0.38177682  0.21069667  1  0  1.065735  0  1.854218  0  0  0.888874  0  2.32873  0  0  0.93646  0  2.270368  0  0  0.680526  0.855386  0  2.369154  0
Zn  Zn1  1  0.31665442  0.61822288  0.78930148  1  0  1.065741  0  1.854236  0  0  0.888881  0  2.328742  0  0  0.936469  0  2.270381  0  0  0.680529  0.855378  0  2.369152  0
Zn  Zn2  1  0.43388837  0.58627830  0.07998600  1  0  1.175522  0  1.725329  0  0  1.025706  0  2.164444  0  0  1.075929  0  2.101276  0  0  0.651032  0.987036  0  2.211082  0
Zn  Zn3  1  0.56611235  0.41372142  0.92001373  1  0  1.175535  0  1.725322  0  0  1.025729  0  2.164417  0  0  1.07595  0  2.101246  0  0  0.651035  0.987068  0  2.211061  0
H  H4  1  0.96021393  0.32816501  0.11452088  1  0  0.092524  0  0.934673  0  0  0.101806  0  0.996021  0  0  0.104246  0  0.994004  0  0  0.123713  0.099962  0  0.997512  0
H  H5  1  0.03978448  0.67183562  0.88547786  1  0  0.09253  0  0.934689  0  0  0.101816  0  0.996028  0  0  0.104258  0  0.99401  0  0  0.123714  0.09997  0  0.997517  0
H  H6  1  0.16992962  0.14078942  0.12830620  1  0  0.109  0  0.95757  0  0  0.118975  0  1.014868  0  0  0.120595  0  1.017371  0  0  0.110533  0.117885  0  1.013248  0
H  H7  1  0.83006979  0.85921122  0.87169251  1  0  0.108989  0  0.957553  0  0  0.11899  0  1.014826  0  0  0.120612  0  1.017326  0  0  0.110534  0.117878  0  1.013223  0
H  H8  1  0.17182271  0.94101847  0.26336765  1  0  0.104649  0  0.931268  0  0  0.119511  0  0.983361  0  0  0.12226  0  0.981109  0  0  0.117072  0.117392  0  0.985126  0
H  H9  1  0.82817601  0.05898123  0.73663132  1  0  0.10466  0  0.93134  0  0  0.11953  0  0.983419  0  0  0.122276  0  0.98117  0  0  0.117086  0.11741  0  0.985184  0
H  H10  1  0.76430787  0.12701929  0.36252952  1  0  0.092665  0  0.950132  0  0  0.095511  0  1.023761  0  0  0.099316  0  1.01961  0  0  0.120381  0.092112  0  1.028368  0
H  H11  1  0.23569153  0.87298135  0.63746919  1  0  0.092682  0  0.950105  0  0  0.095527  0  1.023739  0  0  0.099332  0  1.019588  0  0  0.120383  0.092126  0  1.028346  0
H  H12  1  0.15560501  0.78605307  0.37106975  1  0  0.107691  0  0.970453  0  0  0.121005  0  1.026166  0  0  0.124159  0  1.024683  0  0  0.109495  0.118755  0  1.027308  0
H  H13  1  0.84439444  0.21395036  0.62892905  1  0  0.107707  0  0.970409  0  0  0.121012  0  1.026135  0  0  0.124166  0  1.02465  0  0  0.109484  0.118763  0  1.027276  0
H  H14  1  0.92166574  0.61325025  0.62873802  1  0  0.105149  0  0.964023  0  0  0.116664  0  1.025247  0  0  0.119598  0  1.024534  0  0  0.106799  0.114525  0  1.025981  0
H  H15  1  0.07833566  0.38675041  0.37126226  1  0  0.105123  0  0.964063  0  0  0.11664  0  1.025284  0  0  0.119574  0  1.024572  0  0  0.106816  0.114508  0  1.026016  0
H  H16  1  0.76087827  0.64225002  0.73606636  1  0  0.084649  0  0.935914  0  0  0.09304  0  1.000641  0  0  0.096015  0  0.99799  0  0  0.116436  0.090983  0  1.002472  0
H  H17  1  0.23912277  0.35774878  0.26393442  1  0  0.084616  0  0.935892  0  0  0.093028  0  1.000606  0  0  0.096003  0  0.997955  0  0  0.116418  0.090973  0  1.002436  0
H  H18  1  0.63911083  0.02746048  0.54428891  1  0  0.101198  0  0.950353  0  0  0.108659  0  1.016567  0  0  0.112608  0  1.012842  0  0  0.107858  0.105933  0  1.019107  0
H  H19  1  0.36088391  0.97253921  0.45571018  1  0  0.101176  0  0.950339  0  0  0.108637  0  1.016563  0  0  0.112584  0  1.012843  0  0  0.107835  0.105911  0  1.019095  0
H  H20  1  0.44360875  0.06632994  0.67832159  1  0  0.103998  0  0.952451  0  0  0.116206  0  1.008491  0  0  0.118855  0  1.008665  0  0  0.108285  0.11426  0  1.008524  0
H  H21  1  0.55638763  0.93366791  0.32167957  1  0  0.103969  0  0.952496  0  0  0.116177  0  1.008538  0  0  0.118826  0  1.008711  0  0  0.108275  0.114233  0  1.008566  0
H  H22  1  0.42429999  0.88615903  0.83782631  1  0  0.077615  0  0.936336  0  0  0.087994  0  0.997048  0  0  0.090255  0  0.995343  0  0  0.117019  0.085954  0  0.999294  0
H  H23  1  0.57569938  0.11383884  0.16217558  1  0  0.07757  0  0.936413  0  0  0.088009  0  0.997062  0  0  0.090271  0  0.995356  0  0  0.117045  0.085975  0  0.999307  0
H  H24  1  0.10306870  0.46114336  0.67088856  1  0  0.089787  0  0.970675  0  0  0.099575  0  1.035849  0  0  0.102192  0  1.034375  0  0  0.09997  0.097782  0  1.036724  0
H  H25  1  0.89693206  0.53885915  0.32911126  1  0  0.089773  0  0.970681  0  0  0.099557  0  1.035863  0  0  0.102171  0  1.034393  0  0  0.099966  0.097764  0  1.036742  0
H  H26  1  0.29618547  0.27060468  0.68746012  1  0  0.082976  0  0.969079  0  0  0.093895  0  1.02978  0  0  0.096011  0  1.030112  0  0  0.096933  0.092364  0  1.029594  0
H  H27  1  0.70381662  0.72939692  0.31254072  1  0  0.082983  0  0.969052  0  0  0.093897  0  1.029757  0  0  0.09601  0  1.030093  0  0  0.096928  0.092366  0  1.029571  0
H  H28  1  0.47945528  0.26026827  0.54192201  1  0  0.096027  0  0.943483  0  0  0.108223  0  1.0027  0  0  0.111514  0  1.00035  0  0  0.103492  0.105981  0  1.004014  0
H  H29  1  0.52054612  0.73973239  0.45807827  1  0  0.09603  0  0.943498  0  0  0.108233  0  1.002708  0  0  0.111525  0  1.000356  0  0  0.103499  0.105992  0  1.004018  0
H  H30  1  0.25926116  0.62781589  0.35280152  1  0  0.105485  0  0.967554  0  0  0.115499  0  1.028436  0  0  0.1191  0  1.025552  0  0  0.106134  0.112918  0  1.030465  0
H  H31  1  0.74073892  0.37218569  0.64719856  1  0  0.105504  0  0.967509  0  0  0.115499  0  1.028423  0  0  0.119096  0  1.025544  0  0  0.106131  0.112935  0  1.030432  0
H  H32  1  0.61185366  0.87949883  0.07946810  1  0  0.103477  0  0.938068  0  0  0.114454  0  0.995602  0  0  0.118037  0  0.992923  0  0  0.107132  0.112081  0  0.996951  0
H  H33  1  0.38814870  0.12049905  0.92053370  1  0  0.1035  0  0.938036  0  0  0.114452  0  0.995605  0  0  0.118038  0  0.992921  0  0  0.107121  0.112078  0  0.996956  0
H  H34  1  0.75797652  0.02361858  0.07060348  1  0  0.104058  0  0.956635  0  0  0.113845  0  1.01628  0  0  0.117351  0  1.014382  0  0  0.101089  0.111359  0  1.017685  0
H  H35  1  0.24202584  0.97637930  0.92939832  1  0  0.104088  0  0.95657  0  0  0.113915  0  1.016173  0  0  0.117406  0  1.014294  0  0  0.101127  0.11147  0  1.017534  0
H  H36  1  0.01779755  0.93708889  0.08710640  1  0  0.089891  0  0.978131  0  0  0.09846  0  1.046167  0  0  0.101152  0  1.044786  0  0  0.098641  0.096445  0  1.047115  0
H  H37  1  0.98220481  0.06290898  0.91289458  1  0  0.089912  0  0.978195  0  0  0.098486  0  1.046218  0  0  0.101177  0  1.044838  0  0  0.098664  0.096471  0  1.047163  0
H  H38  1  0.98811261  0.57305839  0.11525530  1  0  0.110567  0  0.941478  0  0  0.118659  0  1.005238  0  0  0.1233  0  1.000763  0  0  0.105931  0.115282  0  1.008725  0
H  H39  1  0.01188842  0.42694038  0.88474220  1  0  0.110574  0  0.941521  0  0  0.118654  0  1.005281  0  0  0.123318  0  1.000781  0  0  0.105963  0.115285  0  1.008763  0
H  H40  1  0.51817155  0.65315303  0.87295023  1  0  0.378298  0  0.954728  0  0  0.335237  0  1.039046  0  0  0.346891  0  1.022944  0  0  0.268136  0.326925  0  1.05047  0
H  H41  1  0.48182618  0.34684668  0.12704958  1  0  0.378335  0  0.95468  0  0  0.335268  0  1.039004  0  0  0.346923  0  1.022902  0  0  0.268162  0.326959  0  1.050421  0
C  C42  1  0.96690864  0.23832956  0.17310070  1  0  0.130824  0  3.676373  0  0  0.095843  0  3.927657  0  0  0.102848  0  3.946181  0  0  0.051104  0.091528  0  3.915282  0
C  C43  1  0.03309009  0.76167015  0.82689827  1  0  0.130787  0  3.676387  0  0  0.095813  0  3.927658  0  0  0.102815  0  3.946187  0  0  0.051076  0.091496  0  3.915268  0
C  C44  1  0.08201475  0.13432014  0.18168904  1  0  -0.109847  0  3.748297  0  0  -0.121233  0  4.001076  0  0  -0.128965  0  4.025431  0  0  -0.076768  -0.116816  0  3.98543  0
C  C45  1  0.91798498  0.86567957  0.81831072  1  0  -0.109823  0  3.74826  0  0  -0.121236  0  4.001031  0  0  -0.128969  0  4.025385  0  0  -0.076784  -0.116804  0  3.985384  0
C  C46  1  0.08217455  0.02272705  0.25822709  1  0  -0.02682  0  3.664068  0  0  -0.055338  0  3.914124  0  0  -0.051454  0  3.930434  0  0  -0.054478  -0.05749  0  3.903132  0
C  C47  1  0.91782318  0.97727266  0.74177191  1  0  -0.026887  0  3.664144  0  0  -0.055411  0  3.91423  0  0  -0.051528  0  3.930537  0  0  -0.0545  -0.057568  0  3.90324  0
C  C48  1  0.96791740  0.01690674  0.32671118  1  0  -0.013703  0  3.734135  0  0  0.004608  0  3.968026  0  0  -0.000704  0  3.990922  0  0  0.004695  0.007917  0  3.952608  0
C  C49  1  0.03208101  0.98309390  0.67328919  1  0  -0.013591  0  3.734132  0  0  0.004705  0  3.968034  0  0  -0.000605  0  3.99093  0  0  0.004738  0.008004  0  3.952626  0
C  C50  1  0.85604376  0.12589753  0.31214805  1  0  0.104478  0  3.648347  0  0  0.06397  0  3.896298  0  0  0.070957  0  3.91319  0  0  0.055232  0.058594  0  3.887545  0
C  C51  1  0.14395464  0.87410310  0.68784987  1  0  0.104464  0  3.648251  0  0  0.063954  0  3.896212  0  0  0.070941  0  3.913105  0  0  0.055245  0.05858  0  3.887452  0
C  C52  1  0.96034630  0.90235027  0.41131039  1  0  0.215917  0  3.822488  0  0  0.21284  0  4.072431  0  0  0.221  0  4.092981  0  0  0.115404  0.207659  0  4.058011  0
C  C53  1  0.03965311  0.09765039  0.58869078  1  0  0.2159  0  3.82243  0  0  0.212846  0  4.072347  0  0  0.221006  0  4.092896  0  0  0.115413  0.207673  0  4.057924  0
C  C54  1  0.06494737  0.78978160  0.42265984  1  0  -0.187001  0  3.664018  0  0  -0.213097  0  3.906604  0  0  -0.221871  0  3.928083  0  0  -0.081035  -0.207308  0  3.89199  0
C  C55  1  0.93505304  0.21021905  0.57734048  1  0  -0.187025  0  3.663914  0  0  -0.213101  0  3.906511  0  0  -0.221875  0  3.927988  0  0  -0.081025  -0.207315  0  3.891897  0
C  C56  1  0.05386483  0.68161922  0.50085544  1  0  0.119542  0  3.761966  0  0  0.131116  0  3.994977  0  0  0.136259  0  4.017617  0  0  0.013496  0.127897  0  3.97994  0
C  C57  1  0.94613526  0.31838237  0.49914546  1  0  0.119595  0  3.761765  0  0  0.131125  0  3.994852  0  0  0.136268  0  4.01749  0  0  0.013526  0.127913  0  3.979821  0
C  C58  1  0.93667972  0.69430591  0.56770585  1  0  -0.187504  0  3.659672  0  0  -0.214228  0  3.908739  0  0  -0.223044  0  3.931095  0  0  -0.078339  -0.20873  0  3.894201  0
C  C59  1  0.06332136  0.30569568  0.43229420  1  0  -0.187498  0  3.659728  0  0  -0.214194  0  3.908817  0  0  -0.223011  0  3.931176  0  0  -0.078377  -0.208706  0  3.89429  0
C  C60  1  0.83833423  0.81157070  0.55493098  1  0  0.217286  0  3.802699  0  0  0.214551  0  4.052664  0  0  0.222778  0  4.073585  0  0  0.117524  0.208928  0  4.038582  0
C  C61  1  0.16166454  0.18843180  0.44506890  1  0  0.217216  0  3.802706  0  0  0.214467  0  4.052746  0  0  0.222692  0  4.073669  0  0  0.117489  0.208845  0  4.038667  0
C  C62  1  0.69489041  0.73855532  0.71901789  1  0  0.090525  0  3.671031  0  0  0.053683  0  3.925601  0  0  0.058941  0  3.942731  0  0  0.055485  0.050859  0  3.91361  0
C  C63  1  0.30510832  0.26144440  0.28098271  1  0  0.090515  0  3.671033  0  0  0.053668  0  3.92563  0  0  0.058925  0  3.942761  0  0  0.055506  0.050846  0  3.913641  0
C  C64  1  0.71786102  0.83281754  0.62894540  1  0  -0.035458  0  3.758015  0  0  -0.016221  0  3.991579  0  0  -0.021798  0  4.016386  0  0  -0.00373  -0.012211  0  3.97482  0
C  C65  1  0.28213639  0.16718310  0.37105419  1  0  -0.035375  0  3.757964  0  0  -0.016201  0  3.991643  0  0  -0.021777  0  4.016451  0  0  -0.003724  -0.012189  0  3.974885  0
C  C66  1  0.62443106  0.95271678  0.61392721  1  0  -0.041591  0  3.707203  0  0  -0.068925  0  3.956437  0  0  -0.066757  0  3.975273  0  0  -0.066962  -0.070607  0  3.943334  0
C  C67  1  0.37556568  0.04728292  0.38607264  1  0  -0.041588  0  3.707071  0  0  -0.068905  0  3.956337  0  0  -0.066736  0  3.975174  0  0  -0.066948  -0.070583  0  3.943221  0
C  C68  1  0.51733171  0.97417806  0.68823944  1  0  -0.125811  0  3.764347  0  0  -0.135164  0  4.011712  0  0  -0.14245  0  4.035053  0  0  -0.084743  -0.130094  0  3.996011  0
C  C69  1  0.48266534  0.02582072  0.31176146  1  0  -0.125747  0  3.764312  0  0  -0.135102  0  4.011683  0  0  -0.142387  0  4.035021  0  0  -0.084709  -0.130024  0  3.995971  0
C  C70  1  0.50547665  0.87470339  0.77635671  1  0  0.116718  0  3.720815  0  0  0.086592  0  3.974032  0  0  0.092146  0  3.992346  0  0  0.048214  0.083047  0  3.962398  0
C  C71  1  0.49452108  0.12529632  0.22364393  1  0  0.116768  0  3.720892  0  0  0.086596  0  3.974106  0  0  0.092151  0  3.99242  0  0  0.048203  0.083049  0  3.962481  0
C  C72  1  0.16438768  0.56227760  0.51123415  1  0  0.028611  0  3.772811  0  0  0.047311  0  4.00526  0  0  0.044677  0  4.02849  0  0  -0.011406  0.048395  0  3.990691  0
C  C73  1  0.83561145  0.43772677  0.48876524  1  0  0.028582  0  3.772746  0  0  0.047277  0  4.005245  0  0  0.044651  0  4.028462  0  0  -0.011442  0.048357  0  3.99069  0
C  C74  1  0.17744942  0.45787003  0.60398666  1  0  -0.077276  0  3.695497  0  0  -0.102377  0  3.946763  0  0  -0.101988  0  3.966362  0  0  -0.080007  -0.101821  0  3.933406  0
C  C75  1  0.82255266  0.54213157  0.39601418  1  0  -0.077258  0  3.695449  0  0  -0.102349  0  3.946713  0  0  -0.101961  0  3.96631  0  0  -0.079983  -0.101797  0  3.933365  0
C  C76  1  0.28852966  0.34958331  0.61415573  1  0  -0.062265  0  3.755753  0  0  -0.073827  0  4.009666  0  0  -0.077806  0  4.031983  0  0  -0.089395  -0.071229  0  3.993906  0
C  C77  1  0.71146844  0.65041827  0.38584441  1  0  -0.062276  0  3.755768  0  0  -0.073827  0  4.009668  0  0  -0.077802  0  4.031983  0  0  -0.089389  -0.071219  0  3.993902  0
C  C78  1  0.39028934  0.34310596  0.53360928  1  0  -0.053581  0  3.713806  0  0  -0.082693  0  3.965911  0  0  -0.08105  0  3.985204  0  0  -0.078608  -0.0827  0  3.951552  0
C  C79  1  0.60971175  0.65689564  0.46639241  1  0  -0.053526  0  3.713949  0  0  -0.082669  0  3.966029  0  0  -0.081014  0  3.985331  0  0  -0.078597  -0.082686  0  3.951668  0
C  C80  1  0.37776703  0.44557776  0.43987302  1  0  -0.06876  0  3.77926  0  0  -0.043772  0  4.015014  0  0  -0.053507  0  4.040032  0  0  -0.020149  -0.037324  0  3.99814  0
C  C81  1  0.62223206  0.55442381  0.56012546  1  0  -0.068891  0  3.779334  0  0  -0.043844  0  4.014984  0  0  -0.053617  0  4.040049  0  0  -0.020166  -0.037386  0  3.998101  0
C  C82  1  0.26458468  0.55245781  0.42869433  1  0  -0.092685  0  3.682182  0  0  -0.124963  0  3.925041  0  0  -0.124254  0  3.944203  0  0  -0.077247  -0.125632  0  3.912469  0
C  C83  1  0.73541640  0.44754377  0.57130572  1  0  -0.092642  0  3.682051  0  0  -0.124926  0  3.924903  0  0  -0.124206  0  3.944074  0  0  -0.077248  -0.125607  0  3.912321  0
C  C84  1  0.48170879  0.44666303  0.34932972  1  0  0.652017  0  3.897329  0  0  0.601556  0  4.185858  0  0  0.636369  0  4.179669  0  0  0.205833  0.577452  0  4.190013  0
C  C85  1  0.51829094  0.55333669  0.65067086  1  0  0.652011  0  3.89735  0  0  0.601591  0  4.185784  0  0  0.636415  0  4.179594  0  0  0.205835  0.577488  0  4.189931  0
C  C86  1  0.70505873  0.63121580  0.10982940  1  0  0.673653  0  3.866113  0  0  0.620918  0  4.154438  0  0  0.65667  0  4.146866  0  0  0.221396  0.596341  0  4.159167  0
C  C87  1  0.29494362  0.36878205  0.89016831  1  0  0.673576  0  3.866069  0  0  0.6208  0  4.154458  0  0  0.656554  0  4.146885  0  0  0.221299  0.59622  0  4.159187  0
C  C88  1  0.79121333  0.71768626  0.10068971  1  0  -0.075628  0  3.7644  0  0  -0.050241  0  3.998675  0  0  -0.059504  0  4.021679  0  0  -0.019118  -0.044598  0  3.984143  0
C  C89  1  0.20878871  0.28231253  0.89931022  1  0  -0.075572  0  3.764419  0  0  -0.050179  0  3.99868  0  0  -0.059444  0  4.02169  0  0  -0.019109  -0.044528  0  3.98414  0
C  C90  1  0.72589780  0.84500162  0.08710089  1  0  -0.069579  0  3.72826  0  0  -0.09662  0  3.979038  0  0  -0.09402  0  3.996431  0  0  -0.080437  -0.097104  0  3.96624  0
C  C91  1  0.27410556  0.15499626  0.91290087  1  0  -0.069551  0  3.728227  0  0  -0.096577  0  3.97899  0  0  -0.093974  0  3.996376  0  0  -0.08042  -0.097063  0  3.966205  0
C  C92  1  0.80686067  0.92410643  0.08406330  1  0  -0.08629  0  3.760451  0  0  -0.097867  0  4.016248  0  0  -0.102121  0  4.036201  0  0  -0.093493  -0.095215  0  4.002074  0
C  C93  1  0.19314268  0.07589144  0.91593602  1  0  -0.086387  0  3.760328  0  0  -0.097995  0  4.016135  0  0  -0.102237  0  4.036091  0  0  -0.093537  -0.095379  0  4.001945  0
C  C94  1  0.95259920  0.87670348  0.09177401  1  0  -0.057354  0  3.725485  0  0  -0.085649  0  3.975924  0  0  -0.08349  0  3.995848  0  0  -0.081426  -0.085868  0  3.961605  0
C  C95  1  0.04740248  0.12329346  0.90822806  1  0  -0.057388  0  3.725375  0  0  -0.08568  0  3.975836  0  0  -0.083519  0  3.995752  0  0  -0.081448  -0.085898  0  3.961536  0
C  C96  1  0.01874899  0.75081344  0.10100464  1  0  -0.071888  0  3.781408  0  0  -0.045143  0  4.012451  0  0  -0.054738  0  4.036957  0  0  -0.021615  -0.039106  0  3.996425  0
C  C97  1  0.98125305  0.24918535  0.89899529  1  0  -0.07185  0  3.781342  0  0  -0.045132  0  4.01242  0  0  -0.054728  0  4.036931  0  0  -0.021632  -0.039102  0  3.99641  0
C  C98  1  0.93729195  0.67117657  0.10763427  1  0  -0.077412  0  3.707644  0  0  -0.111134  0  3.951712  0  0  -0.108429  0  3.969509  0  0  -0.07915  -0.113596  0  3.941307  0
C  C99  1  0.06271008  0.32882221  0.89236403  1  0  -0.077457  0  3.707754  0  0  -0.111147  0  3.951817  0  0  -0.108464  0  3.969605  0  0  -0.079157  -0.113619  0  3.941417  0
C  C100  1  0.17468394  0.70477671  0.09452201  1  0  0.611557  0  3.965085  0  0  0.566488  0  4.256616  0  0  0.599617  0  4.252058  0  0  0.186171  0.543903  0  4.258784  0
C  C101  1  0.82531873  0.29522021  0.90547593  1  0  0.611718  0  3.964888  0  0  0.56665  0  4.25642  0  0  0.599779  0  4.251859  0  0  0.18629  0.544066  0  4.258597  0
N  N102  1  0.85554659  0.23282988  0.23677076  1  0  -0.329698  0  3.334914  0  0  -0.242719  0  3.616461  0  0  -0.262076  0  3.630522  0  0  -0.333337  -0.229821  0  3.60737  0
N  N103  1  0.14445181  0.76717075  0.76322798  1  0  -0.329705  0  3.334821  0  0  -0.242727  0  3.616368  0  0  -0.262085  0  3.630431  0  0  -0.333338  -0.229823  0  3.60726  0
N  N104  1  0.84921191  0.91314738  0.47670423  1  0  -0.392585  0  3.068616  0  0  -0.359934  0  3.330458  0  0  -0.373791  0  3.346174  0  0  -0.311064  -0.35007  0  3.319572  0
N  N105  1  0.15078649  0.08685326  0.52329450  1  0  -0.392595  0  3.06851  0  0  -0.359933  0  3.330347  0  0  -0.373789  0  3.346064  0  0  -0.311054  -0.350062  0  3.31945  0
N  N106  1  0.59180912  0.75907423  0.79054985  1  0  -0.284292  0  3.176099  0  0  -0.224113  0  3.428201  0  0  -0.237059  0  3.444032  0  0  -0.306097  -0.215326  0  3.417096  0
N  N107  1  0.40819061  0.24092549  0.20945072  1  0  -0.284321  0  3.176067  0  0  -0.224131  0  3.428185  0  0  -0.237077  0  3.444018  0  0  -0.306092  -0.215343  0  3.417087  0
O  O108  1  0.58791094  0.34907268  0.35845046  1  0  -0.643906  0  1.991328  0  0  -0.576552  0  2.25364  0  0  -0.605122  0  2.241055  0  0  -0.330664  -0.556319  0  2.262057  0
O  O109  1  0.41208914  0.65092890  0.64154881  1  0  -0.643886  0  1.991291  0  0  -0.576567  0  2.253594  0  0  -0.605135  0  2.240997  0  0  -0.330666  -0.556338  0  2.262009  0
O  O110  1  0.46079881  0.54346639  0.26771648  1  0  -0.652823  0  2.06604  0  0  -0.589434  0  2.315719  0  0  -0.617106  0  2.304778  0  0  -0.314018  -0.570338  0  2.32353  0
O  O111  1  0.53920160  0.45653425  0.73228220  1  0  -0.652802  0  2.066116  0  0  -0.589425  0  2.315741  0  0  -0.617092  0  2.30479  0  0  -0.314011  -0.570337  0  2.323563  0
O  O112  1  0.76937052  0.51567523  0.15283225  1  0  -0.651587  0  2.090726  0  0  -0.579287  0  2.370035  0  0  -0.607993  0  2.353762  0  0  -0.321828  -0.558756  0  2.380311  0
O  O113  1  0.23063051  0.48432354  0.84716525  1  0  -0.65159  0  2.090631  0  0  -0.57927  0  2.369951  0  0  -0.607974  0  2.353671  0  0  -0.32181  -0.558741  0  2.380232  0
O  O114  1  0.57750564  0.67843179  0.07651283  1  0  -0.611433  0  2.071874  0  0  -0.545764  0  2.328637  0  0  -0.57349  0  2.314129  0  0  -0.300428  -0.525862  0  2.338928  0
O  O115  1  0.42249377  0.32156886  0.92348751  1  0  -0.611393  0  2.071896  0  0  -0.545695  0  2.328645  0  0  -0.573422  0  2.314137  0  0  -0.30038  -0.525796  0  2.338943  0
O  O116  1  0.22944345  0.58902443  0.09727009  1  0  -0.649313  0  1.962728  0  0  -0.587644  0  2.212657  0  0  -0.616996  0  2.20059  0  0  -0.336831  -0.565935  0  2.219804  0
O  O117  1  0.77055628  0.41097528  0.90272885  1  0  -0.649477  0  1.962708  0  0  -0.587807  0  2.212637  0  0  -0.617158  0  2.200571  0  0  -0.336926  -0.56609  0  2.219781  0
O  O118  1  0.24648422  0.77881252  0.08286997  1  0  -0.617851  0  1.880952  0  0  -0.569721  0  2.100048  0  0  -0.59305  0  2.08976  0  0  -0.328396  -0.552198  0  2.106977  0
O  O119  1  0.75351846  0.22118444  0.91713207  1  0  -0.617878  0  1.880888  0  0  -0.569757  0  2.099988  0  0  -0.593086  0  2.0897  0  0  -0.328423  -0.552233  0  2.106915  0
O  O120  1  0.45569738  0.60065262  0.90666697  1  0  -0.988152  0  2.005249  0  0  -0.877635  0  2.319565  0  0  -0.913501  0  2.278326  0  0  -0.57042  -0.851794  0  2.348047  0
O  O121  1  0.54430235  0.39934710  0.09333361  1  0  -0.988149  0  2.005138  0  0  -0.877621  0  2.319473  0  0  -0.913487  0  2.27823  0  0  -0.570413  -0.851783  0  2.347969  0
