# generated using pymatgen
data_CuH2C4(SN)2
_symmetry_space_group_name_H-M   'P 1'
_cell_length_a   6.76656946
_cell_length_b   7.24701897
_cell_length_c   15.28468570
_cell_angle_alpha   95.54973856
_cell_angle_beta   90.00050345
_cell_angle_gamma   89.99777504
_symmetry_Int_Tables_number   1
_chemical_formula_structural   CuH2C4(SN)2
_chemical_formula_sum   'Cu4 H8 C16 S8 N8'
_cell_volume   746.00882529
_cell_formula_units_Z   4
loop_
 _symmetry_equiv_pos_site_id
 _symmetry_equiv_pos_as_xyz
  1  'x, y, z'
loop_
 _atom_site_type_symbol
 _atom_site_label
 _atom_site_symmetry_multiplicity
 _atom_site_fract_x
 _atom_site_fract_y
 _atom_site_fract_z
 _atom_site_occupancy
 _atom_site_pbe_bader_charge
 _atom_site_pbe_bader_spin_density
 _atom_site_pbe_cm5_charge
 _atom_site_pbe_ddec_charge
 _atom_site_pbe_ddec_spin_density
 _atom_site_pbe_ddec_sum_bond_order
 _atom_site_pbe_magmom
Cu  Cu0  1  0.50000206  0.99979026  0.00004667  1  0.569082  0  0.436894  0.373278  0  2.982088  0
Cu  Cu1  1  0.99999954  0.50032772  0.49995594  1  0.579657  0  0.474022  0.339855  0  3.145216  0
Cu  Cu2  1  0.50000168  0.48918187  0.77268051  1  0.797202  0  0.607305  0.491781  0  2.271448  0
Cu  Cu3  1  0.49999439  0.51078228  0.22731945  1  0.797446  0  0.606939  0.491346  0  2.271122  0
H  H4  1  0.50000874  0.83203832  0.58097656  1  0.103139  0  0.102828  0.086276  0  1.018387  0
H  H5  1  0.50000792  0.18539130  0.59941601  1  0.10001  0  0.098368  0.080169  0  1.060876  0
H  H6  1  0.50000505  0.16839790  0.41904444  1  0.098894  0  0.103196  0.086674  0  1.017531  0
H  H7  1  0.49998666  0.81507071  0.40079233  1  0.097297  0  0.098475  0.080677  0  1.060395  0
H  H8  1  0.18711081  0.51140530  0.91003438  1  0.122799  0  0.106951  0.093425  0  1.032128  0
H  H9  1  0.81289468  0.51140103  0.91003373  1  0.122815  0  0.106962  0.093423  0  1.032091  0
H  H10  1  0.81289121  0.48765671  0.08984529  1  0.124489  0  0.106902  0.093549  0  1.031967  0
H  H11  1  0.18709995  0.48766499  0.08984529  1  0.12437  0  0.106908  0.093529  0  1.032051  0
C  C12  1  0.49999967  0.90378885  0.79564437  1  0.439656  0  0.105599  0.175198  0  4.02076  0
C  C13  1  0.50000371  0.10130657  0.80673617  1  0.476777  0  0.105451  0.176312  0  4.00825  0
C  C14  1  0.50000527  0.09620716  0.20440358  1  0.438987  0  0.105893  0.175688  0  4.02024  0
C  C15  1  0.49999828  0.89869281  0.19339592  1  0.476233  0  0.105016  0.175486  0  4.008293  0
C  C16  1  0.10568023  0.50132184  0.69762780  1  0.319374  0  0.112526  0.169114  0  3.991567  0
C  C17  1  0.89431915  0.50131757  0.69762714  1  0.486746  0  0.112566  0.169061  0  3.991727  0
C  C18  1  0.89431583  0.49889328  0.30228342  1  0.488564  0  0.113131  0.169845  0  3.990325  0
C  C19  1  0.10567396  0.49890032  0.30228408  1  0.321162  0  0.113078  0.16976  0  3.990523  0
C  C20  1  0.50000675  0.91068672  0.64554682  1  0.501281  0  0.025707  0.03368  0  4.006147  0
C  C21  1  0.50000803  0.10278215  0.65518724  1  0.423684  0  0.021622  0.021738  0  3.982347  0
C  C22  1  0.50000557  0.08961115  0.35451296  1  0.499318  0  0.025794  0.033978  0  4.004446  0
C  C23  1  0.49999690  0.89750457  0.34495997  1  0.435005  0  0.021115  0.019924  0  3.982233  0
C  C24  1  0.10175778  0.50810164  0.84962108  1  0.536606  0  0.024912  0.025081  0  3.969198  0
C  C25  1  0.89824854  0.50809888  0.84962108  1  0.354033  0  0.024956  0.025213  0  3.969052  0
C  C26  1  0.89824126  0.49147441  0.15027568  1  0.53499  0  0.024932  0.025111  0  3.96828  0
C  C27  1  0.10175051  0.49147303  0.15027568  1  0.352411  0  0.024942  0.025126  0  3.968367  0
S  S28  1  0.49999644  0.77576717  0.88595439  1  -0.20434  0  -0.180809  -0.315177  0  2.870551  0
S  S29  1  0.50000815  0.22168313  0.91017505  1  -0.210535  0  -0.194509  -0.318402  0  2.711105  0
S  S30  1  0.50000850  0.22399685  0.11403177  1  -0.203588  0  -0.18072  -0.314879  0  2.871084  0
S  S31  1  0.49998203  0.77806574  0.09001422  1  -0.20908  0  -0.194392  -0.318014  0  2.711253  0
S  S32  1  0.23397250  0.49541889  0.60006939  1  -0.112112  0  -0.144723  -0.232607  0  2.747394  0
S  S33  1  0.76602941  0.49539890  0.60006611  1  -0.103259  0  -0.144706  -0.232616  0  2.747446  0
S  S34  1  0.76601468  0.50515951  0.39985038  1  -0.111068  0  -0.144843  -0.232771  0  2.74773  0
S  S35  1  0.23397699  0.50517330  0.39985038  1  -0.102005  0  -0.144858  -0.232798  0  2.747788  0
N  N36  1  0.49999895  0.81201311  0.71563340  1  -1.205766  0  -0.316703  -0.257426  0  3.44908  0
N  N37  1  0.50000571  0.19711740  0.73587393  1  -1.206305  0  -0.337422  -0.232808  0  3.543179  0
N  N38  1  0.50000747  0.18813960  0.28437773  1  -1.205313  0  -0.317056  -0.257542  0  3.448638  0
N  N39  1  0.49999036  0.80301030  0.26430548  1  -1.207992  0  -0.336741  -0.231699  0  3.540753  0
N  N40  1  0.20582835  0.50481333  0.77368952  1  -1.159169  0  -0.346233  -0.204184  0  3.609164  0
N  N41  1  0.79417523  0.50480905  0.77368886  1  -1.159222  0  -0.346308  -0.204204  0  3.609235  0
N  N42  1  0.79416033  0.49508584  0.22621513  1  -1.161262  0  -0.346535  -0.204666  0  3.608849  0
N  N43  1  0.20582971  0.49509163  0.22621645  1  -1.16101  0  -0.346429  -0.204504  0  3.608804  0
