# generated using pymatgen
data_MnH25C32N3O4
_symmetry_space_group_name_H-M   'P 1'
_cell_length_a   9.23777449
_cell_length_b   11.88539119
_cell_length_c   13.15800000
_cell_angle_alpha   70.69205651
_cell_angle_beta   85.35129936
_cell_angle_gamma   80.35620918
_symmetry_Int_Tables_number   1
_chemical_formula_structural   MnH25C32N3O4
_chemical_formula_sum   'Mn2 H50 C64 N6 O8'
_cell_volume   1343.64260739
_cell_formula_units_Z   2
loop_
 _symmetry_equiv_pos_site_id
 _symmetry_equiv_pos_as_xyz
  1  'x, y, z'
loop_
 _atom_site_type_symbol
 _atom_site_label
 _atom_site_symmetry_multiplicity
 _atom_site_fract_x
 _atom_site_fract_y
 _atom_site_fract_z
 _atom_site_occupancy
 _atom_site_pbe_bader_charge
 _atom_site_pbe_bader_spin_density
 _atom_site_pbe_cm5_charge
 _atom_site_pbe_ddec_charge
 _atom_site_pbe_ddec_spin_density
 _atom_site_pbe_ddec_sum_bond_order
 _atom_site_pbe_magmom
Mn  Mn0  1  0.33302202  0.93469874  0.10358467  1  1.498183  -4.497742  0.61137  0.879162  -4.638081  2.422672  -4.418
Mn  Mn1  1  0.66697721  0.06530267  0.89641465  1  1.49834  4.498455  0.611535  0.879435  4.638809  2.422619  4.419
H  H2  1  0.22640237  0.81293417  0.47914865  1  0.080608  -0.000421  0.097494  0.09191  -0.000153  1.048779  0.0
H  H3  1  0.77360235  0.18706093  0.52085148  1  0.08075  0.00042  0.097481  0.091903  0.000152  1.048798  0.0
H  H4  1  0.08943338  0.71150111  0.64702092  1  0.059017  4e-06  0.093229  0.085144  5e-06  1.040689  0.0
H  H5  1  0.91057059  0.28849219  0.35297751  1  0.05886  -3e-06  0.09322  0.085129  -5e-06  1.040614  0.0
H  H6  1  0.87736440  0.61015101  0.63459712  1  0.05957  -1.7e-05  0.091114  0.082758  -4e-06  1.05147  0.0
H  H7  1  0.12263843  0.38984860  0.36540102  1  0.059562  1.8e-05  0.091133  0.08277  5e-06  1.051406  0.0
H  H8  1  0.80497160  0.61176498  0.45716489  1  0.059024  -3.6e-05  0.094248  0.090368  -3e-06  1.020444  0.0
H  H9  1  0.19502464  0.38824095  0.54283325  1  0.059034  3.5e-05  0.094264  0.090395  2e-06  1.020452  0.0
H  H10  1  0.94536785  0.71560186  0.28927647  1  0.099456  -0.000424  0.099827  0.097535  -0.000161  1.026709  0.0
H  H11  1  0.05462855  0.28440316  0.71072193  1  0.099546  0.000423  0.09984  0.097523  0.000161  1.026783  0.0
H  H12  1  0.28062030  0.13808010  0.20245780  1  0.082508  -0.00122  0.120042  0.091389  -0.000549  0.998272  -0.001
H  H13  1  0.71938078  0.86192312  0.79754391  1  0.082547  0.001223  0.120051  0.091409  0.000551  0.998324  0.001
H  H14  1  0.10180739  0.31848137  0.20182055  1  0.059431  -0.000602  0.103232  0.10656  -0.00031  1.035013  0.0
H  H15  1  0.89819168  0.68152094  0.79818230  1  0.059525  0.000605  0.10324  0.106591  0.000312  1.035036  0.0
H  H16  1  0.88883042  0.26958980  0.94010550  1  0.114009  -0.000495  0.107579  0.118218  -0.000538  1.038428  0.0
H  H17  1  0.11117066  0.73041342  0.05989773  1  0.1142  0.000499  0.107618  0.118242  0.000541  1.038475  0.0
H  H18  1  0.07950873  0.09555063  0.94997670  1  0.1178  -0.000647  0.123245  0.100824  -0.000183  1.006951  0.0
H  H19  1  0.92048925  0.90445168  0.05002470  1  0.117745  0.00065  0.123232  0.100788  0.000185  1.006972  0.0
H  H20  1  0.78540657  0.43603700  0.99974753  1  0.063545  -0.000147  0.106263  0.105348  -5.2e-05  1.017259  0.0
H  H21  1  0.21459500  0.56396351  0.00025497  1  0.063459  0.000152  0.106277  0.105332  5.5e-05  1.017261  0.0
H  H22  1  0.91168730  0.45329746  0.20288436  1  0.02211  -0.000223  0.102278  0.099639  -9.8e-05  1.020657  0.0
H  H23  1  0.08830907  0.54669584  0.79712439  1  0.022093  0.000225  0.102303  0.099658  0.0001  1.020605  0.0
H  H24  1  0.77835254  0.60096220  0.27595214  1  0.064344  -0.000584  0.106206  0.112527  -0.000309  1.017414  0.0
H  H25  1  0.22165029  0.39903741  0.72404523  1  0.064216  0.000584  0.106208  0.112602  0.000309  1.017324  0.0
H  H26  1  0.57952759  0.77573712  0.26113139  1  0.088629  -0.000986  0.118757  0.087098  -0.000543  1.011021  0.0
H  H27  1  0.42048033  0.22426429  0.73886971  1  0.08825  0.000987  0.118706  0.08704  0.000543  1.011045  0.0
H  H28  1  0.42537788  0.74732133  0.98531284  1  0.105227  -0.000828  0.118585  0.087265  -0.000304  1.006515  0.0
H  H29  1  0.57462244  0.25268008  0.01468794  1  0.105229  0.000834  0.1186  0.087272  0.000308  1.006501  0.0
H  H30  1  0.62090189  0.57989583  0.98203579  1  0.127528  -0.00044  0.101045  0.10246  -0.000219  1.073415  0.0
H  H31  1  0.37909691  0.42010198  0.01796539  1  0.127553  0.000445  0.101058  0.102468  0.000222  1.073431  0.0
H  H32  1  0.89208501  0.07774286  0.18034282  1  0.098046  9.8e-05  0.097835  0.098037  -5.8e-05  1.055162  0.0
H  H33  1  0.10791804  0.92224953  0.81965669  1  0.098013  -9.6e-05  0.097843  0.09804  6e-05  1.0552  0.0
H  H34  1  0.49607188  0.94354041  0.32856798  1  0.127038  6.7e-05  0.10312  0.115377  0.000475  1.037146  0.0
H  H35  1  0.50393127  0.05645739  0.67143523  1  0.127081  -6.8e-05  0.10315  0.115387  -0.000475  1.037165  0.0
H  H36  1  0.59246622  0.90890588  0.51031212  1  0.046599  0.000104  0.094175  0.088255  7.1e-05  1.034571  0.0
H  H37  1  0.40753269  0.09109734  0.48968820  1  0.04675  -0.000105  0.094177  0.088247  -7.2e-05  1.034549  0.0
H  H38  1  0.83344055  0.96649305  0.52623833  1  0.059239  8.7e-05  0.099012  0.094549  2.7e-05  1.012837  0.0
H  H39  1  0.16655651  0.03350836  0.47376263  1  0.059266  -8.9e-05  0.099019  0.094542  -2.8e-05  1.012803  0.0
H  H40  1  0.98381640  0.05270469  0.36071356  1  0.058067  -0.000139  0.096551  0.091096  -2.5e-05  1.02468  0.0
H  H41  1  0.01618615  0.94729041  0.63928669  1  0.058108  0.000138  0.096559  0.091133  2.5e-05  1.024595  0.0
H  H42  1  0.48848338  0.24757038  0.24057040  1  0.076581  -6.7e-05  0.109369  0.077135  -5.8e-05  1.001747  0.0
H  H43  1  0.51151450  0.75242652  0.75942806  1  0.076572  7e-05  0.10936  0.077094  6e-05  1.001825  0.0
H  H44  1  0.58106937  0.26093387  0.40746854  1  0.08992  7e-06  0.106345  0.115059  -2e-06  1.01328  0.0
H  H45  1  0.41893371  0.73907025  0.59252671  1  0.089858  -9e-06  0.106376  0.115053  1e-06  1.01327  0.0
H  H46  1  0.31479485  0.61219777  0.33861250  1  0.061294  -5.6e-05  0.10494  0.108828  0.00018  1.048955  0.0
H  H47  1  0.68520330  0.38780364  0.66138080  1  0.060993  5.7e-05  0.104907  0.10871  -0.000179  1.049017  0.0
H  H48  1  0.23460345  0.58491266  0.17643850  1  0.051536  8e-06  0.107567  0.071496  0.000139  1.025361  0.0
H  H49  1  0.76538466  0.41508424  0.82356051  1  0.051443  -3e-06  0.107589  0.07151  -0.000136  1.025274  0.0
H  H50  1  0.58060473  0.36898421  0.53496181  1  0.083693  7.7e-05  0.103987  0.104811  -1e-06  1.024429  0.0
H  H51  1  0.41939694  0.63102171  0.46503070  1  0.083596  -7.7e-05  0.104013  0.104879  1e-06  1.024319  0.0
C  C52  1  0.17998351  0.82852115  0.27639358  1  1.51239  -0.008117  0.193383  0.538272  -0.009815  4.242837  -0.006
C  C53  1  0.82001839  0.17147755  0.72360412  1  1.512222  0.008117  0.193392  0.538339  0.009813  4.242732  0.006
C  C54  1  0.09515580  0.76767899  0.37548536  1  0.015321  0.000824  -0.021587  -0.0377  0.001156  3.994787  0.001
C  C55  1  0.90484610  0.23231972  0.62451689  1  0.015429  -0.000823  -0.021562  -0.037644  -0.001154  3.994674  -0.001
C  C56  1  0.13531847  0.76667004  0.47615612  1  -0.060904  -0.0026  -0.089701  -0.105844  -0.00192  3.998674  -0.002
C  C57  1  0.86468317  0.23332417  0.52384825  1  -0.061128  0.002598  -0.089698  -0.105856  0.001919  3.998661  0.002
C  C58  1  0.05768781  0.71027576  0.56932772  1  -0.077181  0.000291  -0.099075  -0.098528  0.000236  4.031647  0.0
C  C59  1  0.94231007  0.28972115  0.43067302  1  -0.077037  -0.000293  -0.099047  -0.098486  -0.000238  4.03137  0.0
C  C60  1  0.93902302  0.65437108  0.56223269  1  -0.038702  -0.00187  -0.093664  -0.079801  -0.001485  4.003128  -0.001
C  C61  1  0.06097779  0.34562763  0.43776735  1  -0.038701  0.00187  -0.09361  -0.079707  0.001485  4.002915  0.001
C  C62  1  0.89799713  0.65542061  0.46184745  1  -0.103564  0.000363  -0.092102  -0.080081  0.000305  4.0055  0.0
C  C63  1  0.10200292  0.34457629  0.53815545  1  -0.103409  -0.000365  -0.092138  -0.080181  -0.000307  4.005577  0.0
C  C64  1  0.97568942  0.71202498  0.36874335  1  -0.043036  -0.002616  -0.083669  -0.089707  -0.001914  3.958651  -0.002
C  C65  1  0.02430715  0.28797914  0.63125759  1  -0.043176  0.002615  -0.08369  -0.089703  0.001913  3.958754  0.002
C  C66  1  0.19110032  0.17127558  0.14596891  1  0.478456  -0.009223  0.049399  0.094427  -0.007235  3.948963  -0.006
C  C67  1  0.80889658  0.82872673  0.85403484  1  0.477606  0.009225  0.049498  0.094545  0.007236  3.948848  0.006
C  C68  1  0.08933013  0.27116139  0.14573922  1  0.006121  -0.00019  -0.083916  -0.175762  7.1e-05  3.93795  0.0
C  C69  1  0.91066877  0.72884182  0.85426337  1  0.007292  0.000182  -0.083961  -0.175943  -7.7e-05  3.937839  0.0
C  C70  1  0.97517675  0.31086055  0.07139946  1  0.017529  -0.011028  0.003449  0.134698  -0.008496  4.03918  -0.007
C  C71  1  0.02482248  0.68914087  0.92860290  1  0.017564  0.011005  0.003468  0.134885  0.008476  4.038985  0.007
C  C72  1  0.97369113  0.24607182  0.99952016  1  -0.066477  -0.000228  -0.079197  -0.171558  -0.0003  3.920584  0.0
C  C73  1  0.02630919  0.75392959  0.00048366  1  -0.067126  0.000223  -0.079209  -0.171599  0.000294  3.920581  0.0
C  C74  1  0.08008285  0.14702816  0.00476628  1  0.477662  -0.01175  0.055545  0.104915  -0.009556  3.918334  -0.007
C  C75  1  0.91991840  0.85297415  0.99523493  1  0.478041  0.011731  0.055621  0.105017  0.009542  3.918288  0.007
C  C76  1  0.86018537  0.41193385  0.06640172  1  -0.008379  -0.005249  -0.076548  -0.104529  -0.004243  3.944419  -0.002
C  C77  1  0.13981620  0.58806667  0.93359849  1  -0.008588  0.005219  -0.076545  -0.104598  0.004218  3.944352  0.002
C  C78  1  0.83791617  0.47574517  0.13588902  1  -0.035379  -0.009215  -0.083609  -0.125432  -0.007416  3.960747  -0.005
C  C79  1  0.16208464  0.52425354  0.86411254  1  -0.035312  0.009177  -0.083603  -0.125353  0.007384  3.960695  0.005
C  C80  1  0.71922558  0.57460760  0.12997913  1  -0.010987  -0.00775  0.007453  0.153136  -0.00596  4.015062  -0.004
C  C81  1  0.28077474  0.42539381  0.87002165  1  -0.010869  0.007738  0.007342  0.153008  0.00595  4.01529  0.004
C  C82  1  0.70351055  0.63215780  0.20894949  1  -0.029157  -0.001415  -0.083646  -0.183028  -0.000956  3.932617  -0.001
C  C83  1  0.29648651  0.36784361  0.79105299  1  -0.029203  0.001407  -0.083642  -0.183068  0.000948  3.932665  0.001
C  C84  1  0.59233484  0.72864706  0.20173621  1  0.517414  -0.008949  0.050243  0.097284  -0.007069  3.953139  -0.006
C  C85  1  0.40766916  0.27135796  0.79826328  1  0.517916  0.008947  0.050264  0.097311  0.007068  3.953272  0.006
C  C86  1  0.50701788  0.71278147  0.04775194  1  0.447827  -0.007833  0.04913  0.097346  -0.006529  3.955728  -0.005
C  C87  1  0.49298108  0.28721544  0.95224950  1  0.447824  0.007841  0.049148  0.097357  0.006536  3.955668  0.005
C  C88  1  0.61570796  0.61730297  0.04782879  1  -0.016529  -0.00137  -0.081464  -0.164731  -0.000894  3.911595  -0.001
C  C89  1  0.38429361  0.38269754  0.95216990  1  -0.016511  0.001361  -0.081385  -0.164589  0.000887  3.911573  0.001
C  C90  1  0.68872769  0.01326431  0.24341028  1  0.003865  0.000608  -0.02627  -0.055526  0.000246  4.000643  0.001
C  C91  1  0.31126911  0.98673260  0.75659280  1  0.003758  -0.000601  -0.026287  -0.055586  -0.000241  4.000775  -0.001
C  C92  1  0.63294689  0.03150848  0.13439185  1  1.555159  -0.007736  0.218417  0.570793  -0.006299  4.203909  -0.007
C  C93  1  0.36705393  0.96849023  0.86560742  1  1.555082  0.00772  0.218448  0.570984  0.006285  4.203709  0.007
C  C94  1  0.82630861  0.04321472  0.25308079  1  -0.125175  -0.002489  -0.088053  -0.09127  -0.0021  3.961034  -0.002
C  C95  1  0.17369102  0.95677858  0.74691941  1  -0.124707  0.002485  -0.088054  -0.09124  0.002097  3.961105  0.002
C  C96  1  0.60336999  0.96627756  0.33654594  1  -0.125316  -0.001155  -0.091225  -0.113915  -0.000768  3.969532  -0.001
C  C97  1  0.39662849  0.03372206  0.66345548  1  -0.12567  0.001149  -0.091209  -0.113927  0.000763  3.969529  0.001
C  C98  1  0.65693626  0.94800363  0.43782724  1  -0.008078  0.000546  -0.096862  -0.090254  0.000406  4.026182  0.0
C  C99  1  0.34306298  0.05199779  0.56217435  1  -0.008084  -0.000547  -0.09685  -0.090191  -0.000407  4.026048  0.0
C  C100  1  0.79296736  0.98003958  0.44687641  1  -0.064849  -0.002137  -0.088056  -0.069249  -0.0017  3.993078  -0.001
C  C101  1  0.20703003  0.01996003  0.55312583  1  -0.064774  0.002128  -0.088023  -0.069169  0.001693  3.992906  0.001
C  C102  1  0.87714462  0.02832472  0.35426298  1  0.000275  0.000445  -0.094733  -0.087107  0.000412  4.013915  0.0
C  C103  1  0.12285860  0.97166677  0.64574136  1  0.000186  -0.000444  -0.094728  -0.087175  -0.000411  4.013885  0.0
C  C104  1  0.45224546  0.32787396  0.26451553  1  0.540194  -8.7e-05  0.038519  0.088301  -8e-05  3.99844  0.0
C  C105  1  0.54775085  0.67212565  0.73548145  1  0.54013  9.1e-05  0.038557  0.088371  8.3e-05  3.998455  0.0
C  C106  1  0.50422651  0.33528740  0.35833365  1  -0.093606  -4.3e-05  -0.082752  -0.175911  -3.9e-05  3.920832  0.0
C  C107  1  0.49577424  0.66471762  0.64166146  1  -0.093536  4.2e-05  -0.082781  -0.175889  3.8e-05  3.920915  0.0
C  C108  1  0.45795610  0.43922076  0.38825003  1  0.006432  -9.3e-05  0.003071  0.13876  -8.4e-05  4.031794  0.0
C  C109  1  0.54204323  0.56078607  0.61174235  1  0.006463  9.2e-05  0.003094  0.138782  8.2e-05  4.031788  0.0
C  C110  1  0.35807826  0.53002866  0.32029258  1  -0.055302  -6e-06  -0.082125  -0.165143  0.000177  3.920315  0.0
C  C111  1  0.64191847  0.46997455  0.67970178  1  -0.055166  8e-06  -0.082028  -0.165008  -0.000176  3.920375  0.0
C  C112  1  0.31241487  0.51411799  0.22874174  1  0.514102  -0.000159  0.034587  0.075782  2e-06  4.030176  0.0
C  C113  1  0.68758018  0.48588253  0.77125504  1  0.514795  0.000163  0.034498  0.075724  1e-06  4.030136  0.0
C  C114  1  0.51283965  0.44984952  0.48500258  1  -0.017209  0.000105  -0.080482  -0.120372  7.3e-05  3.946933  0.0
C  C115  1  0.48716327  0.55015550  0.51498861  1  -0.118616  -0.000109  -0.080444  -0.120331  -7.6e-05  3.946777  0.0
N  N116  1  0.18779812  0.10917200  0.07692269  1  -1.24125  -0.051397  -0.321272  -0.24152  -0.033855  3.487228  -0.016
N  N117  1  0.81220095  0.89083032  0.92308016  1  -1.241241  0.051394  -0.321396  -0.241672  0.033856  3.487346  0.016
N  N118  1  0.49509477  0.76980510  0.12195565  1  -1.280957  -0.048353  -0.321857  -0.25111  -0.031541  3.517218  -0.013
N  N119  1  0.50490973  0.23019721  0.87804158  1  -1.281037  0.048368  -0.321859  -0.251167  0.031551  3.517232  0.013
N  N120  1  0.35764689  0.41531597  0.19937575  1  -1.199386  -1.7e-05  -0.323778  -0.281901  -1.4e-05  3.361031  0.0
N  N121  1  0.64234665  0.58468094  0.80062524  1  -1.199778  2.1e-05  -0.323776  -0.281921  1.6e-05  3.360941  0.0
O  O122  1  0.28756662  0.87909702  0.28613279  1  -1.187713  -0.049278  -0.322205  -0.565852  -0.034957  2.206603  -0.027
O  O123  1  0.71243636  0.12090168  0.71386560  1  -1.187732  0.049302  -0.32225  -0.565938  0.034975  2.206621  0.027
O  O124  1  0.14553112  0.82741662  0.18467330  1  -1.180725  -0.052243  -0.313633  -0.549996  -0.037549  2.19404  -0.028
O  O125  1  0.85446976  0.17257578  0.81532633  1  -1.180552  0.052255  -0.31363  -0.55001  0.037563  2.193965  0.028
O  O126  1  0.49874789  0.02363159  0.12738683  1  -1.21964  -0.055171  -0.313544  -0.578004  -0.039975  2.435798  -0.022
O  O127  1  0.50125243  0.97636983  0.87261319  1  -1.219626  0.055189  -0.313574  -0.578145  0.039989  2.435694  0.022
O  O128  1  0.72215491  0.05738159  0.05344215  1  -1.205834  0.050685  -0.305858  -0.543053  0.035243  2.329616  0.017
O  O129  1  0.27785009  0.94261802  0.94655738  1  -1.205737  -0.050645  -0.305836  -0.543051  -0.03522  2.3296  -0.017
