# generated using pymatgen
data_CuH14C13N3O2
_symmetry_space_group_name_H-M   'P 1'
_cell_length_a   8.38901915
_cell_length_b   9.27608162
_cell_length_c   16.62302257
_cell_angle_alpha   89.99987271
_cell_angle_beta   91.03394743
_cell_angle_gamma   90.00009582
_symmetry_Int_Tables_number   1
_chemical_formula_structural   CuH14C13N3O2
_chemical_formula_sum   'Cu4 H56 C52 N12 O8'
_cell_volume   1293.34689193
_cell_formula_units_Z   4
loop_
 _symmetry_equiv_pos_site_id
 _symmetry_equiv_pos_as_xyz
  1  'x, y, z'
loop_
 _atom_site_type_symbol
 _atom_site_label
 _atom_site_symmetry_multiplicity
 _atom_site_fract_x
 _atom_site_fract_y
 _atom_site_fract_z
 _atom_site_occupancy
 _atom_site_pbe_bader_spin_density
 _atom_site_pbe_cm5_charge
 _atom_site_pbe_ddec_charge
 _atom_site_pbe_ddec_spin_density
 _atom_site_pbe_ddec_sum_bond_order
 _atom_site_pbe_magmom
Cu  Cu0  1  0.91936797  0.23097266  0.28052556  1  0  0.491022  0.265801  0  2.886386  0
Cu  Cu1  1  0.08063150  0.73097638  0.21946884  1  0  0.490992  0.265675  0  2.886452  0
Cu  Cu2  1  0.08063477  0.76904427  0.71947312  1  0  0.490914  0.265628  0  2.886333  0
Cu  Cu3  1  0.91935930  0.26904056  0.78053090  1  0  0.490869  0.265556  0  2.886366  0
H  H4  1  0.73084561  0.38449666  0.14789293  1  0  0.112966  0.095911  0  1.018947  0
H  H5  1  0.26915054  0.88449582  0.35210305  1  0  0.112932  0.095799  0  1.019025  0
H  H6  1  0.26915716  0.61549656  0.85210154  1  0  0.112949  0.095849  0  1.019034  0
H  H7  1  0.73084622  0.11550063  0.64789737  1  0  0.112948  0.095836  0  1.01896  0
H  H8  1  0.23266254  0.26775299  0.16598334  1  0  0.108018  0.119128  0  1.037537  0
H  H9  1  0.76733580  0.76775297  0.33401040  1  0  0.108026  0.119072  0  1.037578  0
H  H10  1  0.76733899  0.73224562  0.83401593  1  0  0.108031  0.119108  0  1.037548  0
H  H11  1  0.23266698  0.23224025  0.66598407  1  0  0.108044  0.119162  0  1.037464  0
H  H12  1  0.30727623  0.12064113  0.28440843  1  0  0.102819  0.10415  0  1.032467  0
H  H13  1  0.69271349  0.62063715  0.21558660  1  0  0.1028  0.104082  0  1.032475  0
H  H14  1  0.69272171  0.87936179  0.71559260  1  0  0.102822  0.104118  0  1.032472  0
H  H15  1  0.30727256  0.37935499  0.78441128  1  0  0.102806  0.104141  0  1.032466  0
H  H16  1  0.59371486  0.11259475  0.33169344  1  0  0.107203  0.074721  0  1.060536  0
H  H17  1  0.40627365  0.61259053  0.16830158  1  0  0.107138  0.074669  0  1.060527  0
H  H18  1  0.40628549  0.88741033  0.66830521  1  0  0.107181  0.074723  0  1.060518  0
H  H19  1  0.59371357  0.38740053  0.83169872  1  0  0.107212  0.074758  0  1.06049  0
H  H20  1  0.24979186  0.33101274  0.02934493  1  0  0.096257  0.094789  0  1.056396  0
H  H21  1  0.75020536  0.83100785  0.47065293  1  0  0.096233  0.094735  0  1.056422  0
H  H22  1  0.75020968  0.66898371  0.97065374  1  0  0.096237  0.094763  0  1.056446  0
H  H23  1  0.24979619  0.16898429  0.52934453  1  0  0.096223  0.094733  0  1.056347  0
H  H24  1  0.30637932  0.50976416  0.99850592  1  0  0.102625  0.113465  0  1.018842  0
H  H25  1  0.69361437  0.00975796  0.50148940  1  0  0.102612  0.113435  0  1.018657  0
H  H26  1  0.69361750  0.49023230  0.00148848  1  0  0.102626  0.113491  0  1.018733  0
H  H27  1  0.30638600  0.99023310  0.49850745  1  0  0.102662  0.113495  0  1.018741  0
H  H28  1  0.22114134  0.48156538  0.09581321  1  0  0.095833  0.096764  0  1.03441  0
H  H29  1  0.77885616  0.98155972  0.40418447  1  0  0.095846  0.096779  0  1.034418  0
H  H30  1  0.77885784  0.51843323  0.90418302  1  0  0.095812  0.096761  0  1.034419  0
H  H31  1  0.22114539  0.01843243  0.59581360  1  0  0.095835  0.096771  0  1.034404  0
H  H32  1  0.74023083  0.46675295  0.36546073  1  0  0.11604  0.101776  0  1.007143  0
H  H33  1  0.25977140  0.96675188  0.13453822  1  0  0.116023  0.101718  0  1.007118  0
H  H34  1  0.25976590  0.53325644  0.63454209  1  0  0.116081  0.101798  0  1.007059  0
H  H35  1  0.74023487  0.03325212  0.86546411  1  0  0.116002  0.101653  0  1.00717  0
H  H36  1  0.83183116  0.42684881  0.62195065  1  0  0.108017  0.123032  0  1.032605  0
H  H37  1  0.16816919  0.92685096  0.87804964  1  0  0.10801  0.123011  0  1.032662  0
H  H38  1  0.16816199  0.57314548  0.37805213  1  0  0.108012  0.123027  0  1.03257  0
H  H39  1  0.83184065  0.07313687  0.12195394  1  0  0.107975  0.122987  0  1.032566  0
H  H40  1  0.99299002  0.21120298  0.59272088  1  0  0.103074  0.105151  0  1.039273  0
H  H41  1  0.00701235  0.71120477  0.90727729  1  0  0.103056  0.105083  0  1.039325  0
H  H42  1  0.00700796  0.78879563  0.40727654  1  0  0.103042  0.105088  0  1.039358  0
H  H43  1  0.99299269  0.28879276  0.09272863  1  0  0.103111  0.105181  0  1.039268  0
H  H44  1  0.02345751  0.13046586  0.44836530  1  0  0.107601  0.077546  0  1.017494  0
H  H45  1  0.97654293  0.63046296  0.05163225  1  0  0.107591  0.077542  0  1.017448  0
H  H46  1  0.97654049  0.86954029  0.55162972  1  0  0.107613  0.077516  0  1.017463  0
H  H47  1  0.02345853  0.36953565  0.94837423  1  0  0.107641  0.077613  0  1.017361  0
H  H48  1  0.57866907  0.54121266  0.61564844  1  0  0.099407  0.106046  0  0.998868  0
H  H49  1  0.42133180  0.04121426  0.88434993  1  0  0.099399  0.10606  0  0.998802  0
H  H50  1  0.42133237  0.45878811  0.38436045  1  0  0.099389  0.106041  0  0.998867  0
H  H51  1  0.57867570  0.95877788  0.11564881  1  0  0.099408  0.106008  0  0.998876  0
H  H52  1  0.55616578  0.71801044  0.57344116  1  0  0.105238  0.115298  0  0.998083  0
H  H53  1  0.44383659  0.21801190  0.92655821  1  0  0.105247  0.115313  0  0.998028  0
H  H54  1  0.44384283  0.28199249  0.42656661  1  0  0.105252  0.115321  0  0.997996  0
H  H55  1  0.55616972  0.78198240  0.07344051  1  0  0.105288  0.115368  0  0.998041  0
H  H56  1  0.74630881  0.66197067  0.61407024  1  0  0.097431  0.09754  0  1.02279  0
H  H57  1  0.25369228  0.16197094  0.88592798  1  0  0.097437  0.097567  0  1.022741  0
H  H58  1  0.25369746  0.33803009  0.38593209  1  0  0.097431  0.097541  0  1.022776  0
H  H59  1  0.74631519  0.83801797  0.11407497  1  0  0.097474  0.097638  0  1.022689  0
C  C60  1  0.98443687  0.04055289  0.27007351  1  0  -0.082679  -0.174372  0  3.945829  0
C  C61  1  0.01556463  0.54053706  0.22992176  1  0  -0.082527  -0.174225  0  3.946477  0
C  C62  1  0.01558737  0.95948022  0.72992121  1  0  -0.082599  -0.174451  0  3.946095  0
C  C63  1  0.98441300  0.45948203  0.77008445  1  0  -0.082527  -0.174331  0  3.946297  0
C  C64  1  0.63496712  0.32508890  0.17645068  1  0  0.029999  -0.036558  0  3.949766  0
C  C65  1  0.36502536  0.82508293  0.32354413  1  0  0.030018  -0.036313  0  3.949403  0
C  C66  1  0.36503206  0.67491294  0.82354616  1  0  0.029958  -0.036592  0  3.949949  0
C  C67  1  0.63496784  0.17490921  0.67645444  1  0  0.03007  -0.036359  0  3.949648  0
C  C68  1  0.47862498  0.33395681  0.14562995  1  0  0.085175  0.208316  0  4.065473  0
C  C69  1  0.52137345  0.83395635  0.35436672  1  0  0.084979  0.20789  0  4.065548  0
C  C70  1  0.52137656  0.66604395  0.85436872  1  0  0.085135  0.208233  0  4.065478  0
C  C71  1  0.47862690  0.16604118  0.64563193  1  0  0.085102  0.208156  0  4.065436  0
C  C72  1  0.35711379  0.26076842  0.18506336  1  0  -0.088305  -0.168876  0  3.956829  0
C  C73  1  0.64287980  0.76076829  0.31492793  1  0  -0.088277  -0.168809  0  3.956924  0
C  C74  1  0.64288775  0.73923558  0.81493531  1  0  -0.088308  -0.168835  0  3.956833  0
C  C75  1  0.35711705  0.23923140  0.68506346  1  0  -0.088284  -0.168815  0  3.956712  0
C  C76  1  0.39941382  0.17925868  0.25262609  1  0  -0.087356  -0.102439  0  4.012114  0
C  C77  1  0.60057362  0.67925229  0.24736945  1  0  -0.087244  -0.102184  0  4.012167  0
C  C78  1  0.60058295  0.82074640  0.74737313  1  0  -0.087359  -0.10236  0  4.01219  0
C  C79  1  0.39941362  0.32074201  0.75262845  1  0  -0.087347  -0.102447  0  4.012138  0
C  C80  1  0.55764862  0.17446254  0.27891540  1  0  0.019419  0.032505  0  3.98235  0
C  C81  1  0.44234358  0.67445925  0.22107959  1  0  0.019381  0.032416  0  3.982474  0
C  C82  1  0.44235173  0.82553930  0.72108325  1  0  0.019396  0.032395  0  3.982476  0
C  C83  1  0.55764722  0.32552966  0.77892015  1  0  0.019347  0.032426  0  3.982469  0
C  C84  1  0.29774120  0.43544045  0.04923813  1  0  -0.148018  -0.194254  0  3.875468  0
C  C85  1  0.70225384  0.93543557  0.45075897  1  0  -0.147979  -0.194204  0  3.875282  0
C  C86  1  0.70225678  0.56455708  0.95075869  1  0  -0.14799  -0.194261  0  3.875409  0
C  C87  1  0.29774891  0.06455658  0.54923850  1  0  -0.148024  -0.194284  0  3.875455  0
C  C88  1  0.79394267  0.41079715  0.41690295  1  0  0.034599  -0.022372  0  3.905761  0
C  C89  1  0.20606065  0.91079189  0.08309549  1  0  0.034635  -0.022272  0  3.905555  0
C  C90  1  0.20605167  0.58921332  0.58309985  1  0  0.03461  -0.022329  0  3.905656  0
C  C91  1  0.79394561  0.08920672  0.91690805  1  0  0.034705  -0.022189  0  3.905604  0
C  C92  1  0.76921822  0.46186272  0.49528910  1  0  0.088195  0.217095  0  4.049512  0
C  C93  1  0.23078640  0.96185888  0.00470808  1  0  0.088244  0.21717  0  4.049392  0
C  C94  1  0.23077374  0.53814020  0.50471367  1  0  0.088166  0.217027  0  4.049337  0
C  C95  1  0.76922703  0.03813110  0.99529433  1  0  0.088201  0.217202  0  4.049327  0
C  C96  1  0.84329262  0.39069359  0.55999737  1  0  -0.090871  -0.172722  0  3.954307  0
C  C97  1  0.15670887  0.89069440  0.94000177  1  0  -0.090913  -0.172741  0  3.954364  0
C  C98  1  0.15670292  0.60930502  0.44000484  1  0  -0.090876  -0.172682  0  3.954241  0
C  C99  1  0.84330098  0.10929666  0.06000120  1  0  -0.090851  -0.172722  0  3.954389  0
C  C100  1  0.93615002  0.26996384  0.54316260  1  0  -0.089762  -0.109508  0  4.022042  0
C  C101  1  0.06384770  0.76996444  0.95683484  1  0  -0.089682  -0.109341  0  4.022067  0
C  C102  1  0.06384319  0.73003693  0.45683476  1  0  -0.089725  -0.1095  0  4.022119  0
C  C103  1  0.93616214  0.23002662  0.04316933  1  0  -0.089739  -0.109464  0  4.022161  0
C  C104  1  0.95320997  0.22497195  0.46405642  1  0  0.017691  0.026049  0  4.007654  0
C  C105  1  0.04678825  0.72497310  0.03594219  1  0  0.017608  0.025893  0  4.007838  0
C  C106  1  0.04678323  0.77503529  0.53594155  1  0  0.017764  0.026256  0  4.007363  0
C  C107  1  0.95321442  0.27502659  0.96406311  1  0  0.017638  0.025939  0  4.007656  0
C  C108  1  0.63768300  0.62696126  0.58145846  1  0  -0.141044  -0.179729  0  3.88963  0
C  C109  1  0.36231801  0.12696264  0.91854100  1  0  -0.141127  -0.179809  0  3.889621  0
C  C110  1  0.36231964  0.37304166  0.41854924  1  0  -0.141014  -0.179669  0  3.889357  0
C  C111  1  0.63768948  0.87302735  0.08145954  1  0  -0.141179  -0.179907  0  3.889629  0
N  N112  1  0.01205408  0.91669475  0.26056450  1  0  -0.445549  -0.334691  0  3.666847  0
N  N113  1  0.98794693  0.41670100  0.23942849  1  0  -0.445586  -0.334671  0  3.667666  0
N  N114  1  0.98795819  0.08332326  0.73943490  1  0  -0.445457  -0.334405  0  3.667129  0
N  N115  1  0.01204272  0.58332240  0.76056763  1  0  -0.445507  -0.334497  0  3.667408  0
N  N116  1  0.67405720  0.24749785  0.24160049  1  0  -0.340889  -0.179584  0  3.616425  0
N  N117  1  0.32593634  0.74749747  0.25839262  1  0  -0.34083  -0.179551  0  3.616537  0
N  N118  1  0.32594437  0.75250291  0.75839457  1  0  -0.340802  -0.179424  0  3.616632  0
N  N119  1  0.67405445  0.25249144  0.74160832  1  0  -0.340894  -0.179608  0  3.61659  0
N  N120  1  0.88361108  0.29514173  0.40158986  1  0  -0.343382  -0.180732  0  3.63666  0
N  N121  1  0.11639204  0.79513843  0.09840752  1  0  -0.343384  -0.180651  0  3.636604  0
N  N122  1  0.11638449  0.70486981  0.59840994  1  0  -0.343439  -0.180766  0  3.636498  0
N  N123  1  0.88360587  0.20486557  0.90159592  1  0  -0.343395  -0.180683  0  3.636618  0
O  O124  1  0.45832025  0.41827055  0.07915754  1  0  -0.185561  -0.155879  0  2.584209  0
O  O125  1  0.54167237  0.91826554  0.42083956  1  0  -0.185492  -0.155702  0  2.584192  0
O  O126  1  0.54167772  0.58172914  0.92084048  1  0  -0.185525  -0.155828  0  2.584204  0
O  O127  1  0.45832561  0.08172768  0.57915787  1  0  -0.185555  -0.155826  0  2.584201  0
O  O128  1  0.67319348  0.57910934  0.50161415  1  0  -0.185196  -0.163358  0  2.597388  0
O  O129  1  0.32680746  0.07910927  0.99838478  1  0  -0.185256  -0.163519  0  2.597329  0
O  O130  1  0.32680321  0.42089250  0.49839348  1  0  -0.185278  -0.163518  0  2.597052  0
O  O131  1  0.67320242  0.92088071  0.00161519  1  0  -0.185232  -0.163481  0  2.597306  0
