# generated using pymatgen
data_NiH16C18(NO)6
_symmetry_space_group_name_H-M   'P 1'
_cell_length_a   10.38279151
_cell_length_b   10.09595645
_cell_length_c   12.30062514
_cell_angle_alpha   115.58326479
_cell_angle_beta   90.00101170
_cell_angle_gamma   89.99717432
_symmetry_Int_Tables_number   1
_chemical_formula_structural   NiH16C18(NO)6
_chemical_formula_sum   'Ni2 H32 C36 N12 O12'
_cell_volume   1162.98853697
_cell_formula_units_Z   2
loop_
 _symmetry_equiv_pos_site_id
 _symmetry_equiv_pos_as_xyz
  1  'x, y, z'
loop_
 _atom_site_type_symbol
 _atom_site_label
 _atom_site_symmetry_multiplicity
 _atom_site_fract_x
 _atom_site_fract_y
 _atom_site_fract_z
 _atom_site_occupancy
 _atom_site_pbe_bader_charge
 _atom_site_pbe_bader_spin_density
 _atom_site_pbe_cm5_charge
 _atom_site_pbe_ddec_charge
 _atom_site_pbe_ddec_spin_density
 _atom_site_pbe_ddec_sum_bond_order
 _atom_site_pbe_magmom
Ni  Ni0  1  0.00000130  0.00000311  0.49999784  1  0.961913  0  0.592627  0.520521  0  2.723076  0
Ni  Ni1  1  0.50000242  0.99999698  0.99999616  1  0.961991  0  0.592575  0.520487  0  2.723132  0
H  H2  1  0.85638125  0.90089173  0.65162952  1  0.157093  0  0.128377  0.111576  0  1.016365  0
H  H3  1  0.35635758  0.09910288  0.84837318  1  0.157094  0  0.12837  0.111522  0  1.016366  0
H  H4  1  0.14363699  0.09912202  0.34836481  1  0.156836  0  0.128374  0.111515  0  1.016543  0
H  H5  1  0.64364332  0.90091147  0.15164982  1  0.156306  0  0.128326  0.111476  0  1.016523  0
H  H6  1  0.48908784  0.11852772  0.71205478  1  0.117303  0  0.120987  0.133752  0  1.001963  0
H  H7  1  0.98907575  0.88148072  0.78795496  1  0.117285  0  0.120972  0.133605  0  1.002001  0
H  H8  1  0.51091787  0.88146934  0.28793010  1  0.117203  0  0.120952  0.133597  0  1.001998  0
H  H9  1  0.01091552  0.11853878  0.21206401  1  0.117474  0  0.120983  0.133689  0  1.001934  0
H  H10  1  0.78004737  0.17319483  0.48391908  1  0.16179  0  0.129723  0.1136  0  1.022488  0
H  H11  1  0.28004204  0.82680307  0.01608917  1  0.16163  0  0.129746  0.11373  0  1.022469  0
H  H12  1  0.21994390  0.82679984  0.51606178  1  0.162423  0  0.129691  0.113593  0  1.022493  0
H  H13  1  0.71994826  0.17319520  0.98391645  1  0.161762  0  0.129762  0.113737  0  1.022438  0
H  H14  1  0.36809922  0.25741287  0.66189639  1  0.16489  0  0.124305  0.133836  0  1.034442  0
H  H15  1  0.86809379  0.74259581  0.83809960  1  0.165008  0  0.124297  0.13384  0  1.034396  0
H  H16  1  0.63191805  0.74262538  0.33813024  1  0.16525  0  0.124331  0.133771  0  1.034435  0
H  H17  1  0.13191673  0.25737955  0.16188237  1  0.165439  0  0.124297  0.133743  0  1.034519  0
H  H18  1  0.27294969  0.39451052  0.53090823  1  0.131313  0  0.114117  0.153819  0  0.996122  0
H  H19  1  0.77295539  0.60549701  0.96907392  1  0.131482  0  0.114114  0.153911  0  0.996142  0
H  H20  1  0.72705988  0.60550569  0.46910968  1  0.131472  0  0.11419  0.153941  0  0.996039  0
H  H21  1  0.22703684  0.39449266  0.03091347  1  0.131585  0  0.114122  0.15394  0  0.99604  0
H  H22  1  0.47122470  0.37454143  0.37370795  1  0.103667  0  0.11761  0.10084  0  1.000127  0
H  H23  1  0.97123009  0.62545291  0.12628381  1  0.103768  0  0.117609  0.100821  0  1.00016  0
H  H24  1  0.52872997  0.62544529  0.62628418  1  0.103624  0  0.117565  0.100756  0  1.000024  0
H  H25  1  0.02874288  0.37454750  0.87372169  1  0.103768  0  0.117578  0.100753  0  1.00014  0
H  H26  1  0.00486471  0.63846346  0.34059551  1  0.571416  0  0.298012  0.375803  0  0.925531  0
H  H27  1  0.50487560  0.36151176  0.15941966  1  0.571203  0  0.29799  0.375791  0  0.925525  0
H  H28  1  0.99515931  0.36153046  0.65939080  1  0.571681  0  0.298069  0.375855  0  0.925474  0
H  H29  1  0.49514071  0.63848933  0.84059745  1  0.571384  0  0.298062  0.375866  0  0.925445  0
H  H30  1  0.88297129  0.73248696  0.34767099  1  0.627476  0  0.273208  0.360026  0  0.992658  0
H  H31  1  0.38296545  0.26752749  0.15234560  1  0.627228  0  0.273166  0.360013  0  0.992654  0
H  H32  1  0.11704598  0.26749961  0.65231866  1  0.627473  0  0.273188  0.359982  0  0.992672  0
H  H33  1  0.61704219  0.73248508  0.84766544  1  0.627438  0  0.273226  0.360075  0  0.992563  0
C  C34  1  0.78957458  0.97508070  0.63828954  1  0.460172  0  0.055549  0.061667  0  3.867125  0
C  C35  1  0.28955374  0.02491914  0.86172371  1  0.460581  0  0.055455  0.061535  0  3.867294  0
C  C36  1  0.21042343  0.02492318  0.36170161  1  0.460235  0  0.055686  0.061902  0  3.867141  0
C  C37  1  0.71043367  0.97508409  0.13829327  1  0.461076  0  0.055526  0.061663  0  3.867412  0
C  C38  1  0.67029976  0.00747605  0.69564522  1  0.053535  0  -0.00257  -0.042308  0  3.973756  0
C  C39  1  0.17027711  0.99253024  0.80437014  1  0.053268  0  -0.00251  -0.042126  0  3.973831  0
C  C40  1  0.32970403  0.99251786  0.30434109  1  0.054099  0  -0.002662  -0.042549  0  3.973546  0
C  C41  1  0.82970838  0.00747938  0.19564564  1  0.053728  0  -0.002566  -0.042199  0  3.973551  0
C  C42  1  0.58365886  0.09556288  0.66999864  1  -0.008463  0  -0.05997  -0.132726  0  3.884989  0
C  C43  1  0.08364765  0.90444091  0.83000581  1  -0.008328  0  -0.059912  -0.132409  0  3.884721  0
C  C44  1  0.41634300  0.90444315  0.32999239  1  -0.008646  0  -0.059922  -0.132432  0  3.884821  0
C  C45  1  0.91633976  0.09556522  0.17000560  1  -0.008723  0  -0.059928  -0.132608  0  3.884749  0
C  C46  1  0.62092703  0.15037025  0.58800798  1  0.371056  0  0.112768  0.120362  0  4.020214  0
C  C47  1  0.12092205  0.84962383  0.91199303  1  0.371267  0  0.112788  0.120228  0  4.020393  0
C  C48  1  0.37908061  0.84963412  0.41199146  1  0.371709  0  0.112807  0.120309  0  4.020361  0
C  C49  1  0.87906729  0.15038221  0.08801672  1  0.371889  0  0.112747  0.120357  0  4.020159  0
C  C50  1  0.74630868  0.12430353  0.54188567  1  0.511957  0  0.050813  -0.004812  0  3.871048  0
C  C51  1  0.24630341  0.87568840  0.95811876  1  0.512063  0  0.050845  -0.004944  0  3.870984  0
C  C52  1  0.25370185  0.87569243  0.45809886  1  0.510689  0  0.050818  -0.004766  0  3.871021  0
C  C53  1  0.75368786  0.12430791  0.04189030  1  0.511389  0  0.05072  -0.00509  0  3.871107  0
C  C54  1  0.41397102  0.27833259  0.59167296  1  0.274536  0  0.011378  -0.078403  0  3.907253  0
C  C55  1  0.91396803  0.72169596  0.90833655  1  0.274577  0  0.011343  -0.078551  0  3.907365  0
C  C56  1  0.58603854  0.72167177  0.40832648  1  0.274356  0  0.011437  -0.07806  0  3.907124  0
C  C57  1  0.08603190  0.27830330  0.09166776  1  0.273869  0  0.011425  -0.078276  0  3.907336  0
C  C58  1  0.36776918  0.34647004  0.52364834  1  0.002565  0  -0.108445  -0.199603  0  4.005563  0
C  C59  1  0.86776409  0.65356193  0.97635921  1  0.002917  0  -0.108431  -0.199689  0  4.005793  0
C  C60  1  0.63222497  0.65350174  0.47632759  1  0.001826  0  -0.108599  -0.200011  0  4.005313  0
C  C61  1  0.13222332  0.34644960  0.02365230  1  0.002151  0  -0.108457  -0.199805  0  4.005566  0
C  C62  1  0.46906893  0.33504920  0.44288838  1  0.457746  0  0.022087  0.030198  0  4.041607  0
C  C63  1  0.96906620  0.66494969  0.05710564  1  0.457111  0  0.022088  0.030324  0  4.041359  0
C  C64  1  0.53090404  0.66492144  0.55708638  1  0.45844  0  0.022218  0.030478  0  4.040993  0
C  C65  1  0.03090291  0.33505077  0.94290069  1  0.458495  0  0.022106  0.030356  0  4.041351  0
C  C66  1  0.64096257  0.94812917  0.78593404  1  1.585839  0  0.219777  0.559672  0  4.198161  0
C  C67  1  0.14095185  0.05186180  0.71406867  1  1.58529  0  0.219522  0.559055  0  4.19868  0
C  C68  1  0.35904893  0.05186980  0.21404658  1  1.586111  0  0.219807  0.559619  0  4.198095  0
C  C69  1  0.85905290  0.94813705  0.28594690  1  1.585472  0  0.219628  0.559175  0  4.198426  0
N  N70  1  0.82813197  0.03695411  0.56621372  1  -1.185511  0  -0.325076  -0.140151  0  3.654409  0
N  N71  1  0.32812109  0.96304349  0.93379608  1  -1.185907  0  -0.325099  -0.140101  0  3.653919  0
N  N72  1  0.17187471  0.96304795  0.43376465  1  -1.185573  0  -0.325259  -0.140335  0  3.654024  0
N  N73  1  0.67187692  0.03695884  0.06622387  1  -1.185811  0  -0.325046  -0.140094  0  3.654101  0
N  N74  1  0.53636848  0.23104381  0.55080240  1  -0.860516  0  -0.137169  0.140938  0  3.805527  0
N  N75  1  0.03637098  0.76895992  0.94919489  1  -0.86064  0  -0.137151  0.141195  0  3.805309  0
N  N76  1  0.46364494  0.76896934  0.44919987  1  -0.859341  0  -0.137287  0.140726  0  3.805493  0
N  N77  1  0.96362799  0.23103237  0.05080068  1  -0.86029  0  -0.13719  0.140983  0  3.805407  0
N  N78  1  0.57125040  0.26522389  0.45858376  1  -0.690666  0  -0.244843  -0.276144  0  3.12254  0
N  N79  1  0.07126152  0.73476380  0.04141028  1  -0.690747  0  -0.244859  -0.276298  0  3.1219  0
N  N80  1  0.42873413  0.73477007  0.54140339  1  -0.69188  0  -0.244801  -0.276097  0  3.122462  0
N  N81  1  0.92873071  0.26523127  0.95859594  1  -0.691555  0  -0.244811  -0.276156  0  3.122512  0
O  O82  1  0.55327764  0.02433077  0.86285354  1  -1.084764  0  -0.293323  -0.480122  0  2.482851  0
O  O83  1  0.05328316  0.97564134  0.63713380  1  -1.084569  0  -0.293175  -0.479835  0  2.482852  0
O  O84  1  0.44673385  0.97565685  0.13713564  1  -1.084731  0  -0.293174  -0.479945  0  2.483044  0
O  O85  1  0.94672062  0.02436880  0.36287239  1  -1.084574  0  -0.293128  -0.47984  0  2.4829  0
O  O86  1  0.70113679  0.84028789  0.78445843  1  -1.180493  0  -0.296626  -0.532857  0  2.209445  0
O  O87  1  0.20111810  0.15970345  0.71555009  1  -1.180103  0  -0.296492  -0.532525  0  2.209569  0
O  O88  1  0.29887182  0.15969901  0.21551830  1  -1.180965  0  -0.296586  -0.53267  0  2.209621  0
O  O89  1  0.79890591  0.84029296  0.28446063  1  -1.180247  0  -0.296488  -0.532427  0  2.209724  0
O  O90  1  0.92484042  0.67363117  0.38459381  1  -1.222957  0  -0.607076  -0.769402  0  1.888986  0
O  O91  1  0.42483681  0.32639284  0.11544025  1  -1.222508  0  -0.607025  -0.76935  0  1.888996  0
O  O92  1  0.07517685  0.32634857  0.61538957  1  -1.223263  0  -0.60709  -0.769366  0  1.889081  0
O  O93  1  0.57516313  0.67364583  0.88459384  1  -1.222913  0  -0.607116  -0.769443  0  1.88895  0
