# generated using pymatgen
data_LaH20C25N5Cl3
_symmetry_space_group_name_H-M   'P 1'
_cell_length_a   13.31303141
_cell_length_b   13.34990701
_cell_length_c   13.72169017
_cell_angle_alpha   78.89454771
_cell_angle_beta   65.70443050
_cell_angle_gamma   65.14512260
_symmetry_Int_Tables_number   1
_chemical_formula_structural   LaH20C25N5Cl3
_chemical_formula_sum   'La2 H40 C50 N10 Cl6'
_cell_volume   2016.28795370
_cell_formula_units_Z   2
loop_
 _symmetry_equiv_pos_site_id
 _symmetry_equiv_pos_as_xyz
  1  'x, y, z'
loop_
 _atom_site_type_symbol
 _atom_site_label
 _atom_site_symmetry_multiplicity
 _atom_site_fract_x
 _atom_site_fract_y
 _atom_site_fract_z
 _atom_site_occupancy
 _atom_site_pbe_bader_charge
 _atom_site_pbe_bader_spin_density
 _atom_site_pbe_cm5_charge
 _atom_site_pbe_ddec_charge
 _atom_site_pbe_ddec_spin_density
 _atom_site_pbe_ddec_sum_bond_order
 _atom_site_pbe_magmom
La  La0  1  0.47997317  0.08127530  0.33890978  1  2.071522  0  1.01729  1.468731  0  2.735751  0
La  La1  1  0.52003516  0.91871427  0.66109585  1  2.071491  0  1.017255  1.468652  0  2.735978  0
H  H2  1  0.13995508  0.47227601  0.57866320  1  0.079798  0  0.109106  0.1136  0  1.005606  0
H  H3  1  0.33013573  0.31635699  0.50012541  1  0.141151  0  0.110242  0.08593  0  1.017841  0
H  H4  1  0.64592485  0.17590198  0.09680596  1  0.141948  0  0.114725  0.08245  0  1.031557  0
H  H5  1  0.84345825  0.16595167  0.97378711  1  0.089383  0  0.106993  0.111194  0  1.02628  0
H  H6  1  0.59514690  0.65815621  0.96386175  1  0.115649  0  0.095153  0.113759  0  1.051964  0
H  H7  1  0.56960495  0.95123736  0.09939128  1  0.113451  0  0.108552  0.081269  0  1.024799  0
H  H8  1  0.98903887  0.84939106  0.12335346  1  0.063275  0  0.109781  0.117617  0  1.002698  0
H  H9  1  0.27983160  0.97391838  0.56243761  1  0.136928  0  0.103518  0.077255  0  1.073238  0
H  H10  1  0.51220054  0.63816796  0.33615979  1  0.085021  0  0.107702  0.114613  0  1.0032  0
H  H11  1  0.78247750  0.87595874  0.24343982  1  0.103758  0  0.107295  0.08774  0  1.024845  0
H  H12  1  0.48061761  0.81059727  0.40434117  1  0.086017  0  0.107199  0.080247  0  1.03758  0
H  H13  1  0.59797822  0.48410971  0.26518876  1  0.046198  0  0.102346  0.106817  0  1.016239  0
H  H14  1  0.61097105  0.78277622  0.01662858  1  0.12531  0  0.092896  0.116534  0  1.058498  0
H  H15  1  0.08833833  0.95314578  0.63098979  1  0.085517  0  0.110041  0.114718  0  1.005146  0
H  H16  1  0.65000359  0.31497573  0.18033225  1  0.118948  0  0.094541  0.070019  0  1.059139  0
H  H17  1  0.01867690  0.40692228  0.35782554  1  0.058905  0  0.108213  0.111308  0  1.005848  0
H  H18  1  0.65174078  0.47935794  0.89068412  1  0.072595  0  0.109396  0.078326  0  0.973836  0
H  H19  1  0.21533540  0.25609676  0.28807878  1  0.109643  0  0.106824  0.07518  0  1.045419  0
H  H20  1  0.26903292  0.06594607  0.25983326  1  0.11609  0  0.111356  0.079398  0  1.026391  0
H  H21  1  0.07489800  0.04969214  0.31488142  1  0.069597  0  0.109144  0.114049  0  1.00507  0
H  H22  1  0.86007711  0.52773349  0.42132984  1  0.080044  0  0.109075  0.113519  0  1.005418  0
H  H23  1  0.66990766  0.68365744  0.49986802  1  0.14152  0  0.110154  0.085771  0  1.018033  0
H  H24  1  0.35407382  0.82409675  0.90319319  1  0.137642  0  0.114721  0.082441  0  1.031399  0
H  H25  1  0.15654109  0.83405535  0.02620881  1  0.089322  0  0.107009  0.111215  0  1.026177  0
H  H26  1  0.40483009  0.34185668  0.03612907  1  0.116126  0  0.095092  0.11366  0  1.052181  0
H  H27  1  0.43040694  0.04876138  0.90060686  1  0.113491  0  0.108547  0.081249  0  1.024847  0
H  H28  1  0.01096550  0.15061359  0.87663355  1  0.063195  0  0.109802  0.117705  0  1.002615  0
H  H29  1  0.72015224  0.02609431  0.43756868  1  0.136944  0  0.103552  0.07734  0  1.073324  0
H  H30  1  0.48779255  0.36183645  0.66384861  1  0.085815  0  0.107689  0.114565  0  1.003304  0
H  H31  1  0.21752986  0.12404087  0.75655418  1  0.10364  0  0.107292  0.087684  0  1.024864  0
H  H32  1  0.51940112  0.18940481  0.59565213  1  0.140184  0  0.107243  0.080316  0  1.037574  0
H  H33  1  0.40198300  0.51590146  0.73480878  1  0.045914  0  0.102331  0.106812  0  1.016362  0
H  H34  1  0.38901768  0.21722660  0.98337459  1  0.125282  0  0.092915  0.116562  0  1.058539  0
H  H35  1  0.91164103  0.04687590  0.36902471  1  0.085784  0  0.110033  0.114733  0  1.005212  0
H  H36  1  0.34995656  0.68503795  0.81966235  1  0.118555  0  0.094478  0.069901  0  1.059223  0
H  H37  1  0.98135817  0.59307643  0.64217265  1  0.058368  0  0.10819  0.111304  0  1.005826  0
H  H38  1  0.34824003  0.52065575  0.10930791  1  0.072638  0  0.109453  0.078389  0  0.97375  0
H  H39  1  0.78469854  0.74389689  0.71192809  1  0.113461  0  0.106936  0.075363  0  1.045099  0
H  H40  1  0.73095316  0.93403121  0.74016687  1  0.116458  0  0.11134  0.079388  0  1.026639  0
H  H41  1  0.92509895  0.95026696  0.68511978  1  0.070146  0  0.109134  0.114006  0  1.00501  0
C  C42  1  0.15046213  0.42679801  0.51497433  1  -0.021474  0  -0.083214  -0.173286  0  3.934761  0
C  C43  1  0.56738739  0.69218423  0.16848646  1  7.6e-05  0  0.012177  0.111749  0  3.967671  0
C  C44  1  0.93854312  0.00555801  0.03608389  1  -0.058501  0  0.008426  0.098998  0  3.981279  0
C  C45  1  0.05841045  0.45432960  0.47730856  1  -0.01741  0  0.011526  0.102941  0  3.986513  0
C  C46  1  0.25802680  0.33912667  0.47143563  1  0.465315  0  0.051106  0.113951  0  3.960824  0
C  C47  1  0.72423481  0.10472293  0.10131867  1  0.47658  0  0.053943  0.107471  0  3.954308  0
C  C48  1  0.59395671  0.58842257  0.12198552  1  -0.063341  0  0.002472  0.090836  0  3.985263  0
C  C49  1  0.83761874  0.09751430  0.03073809  1  -0.026735  0  -0.080432  -0.165597  0  3.913587  0
C  C50  1  0.60876323  0.58415508  0.01513254  1  -0.062437  0  -0.087408  -0.171003  0  3.923365  0
C  C51  1  0.56015612  0.87884616  0.14891517  1  0.470138  0  0.044665  0.099294  0  3.970862  0
C  C52  1  0.91656953  0.92402569  0.11390543  1  0.001137  0  -0.085547  -0.176597  0  3.94601  0
C  C53  1  0.23088479  0.99210668  0.51010848  1  0.439586  0  0.052034  0.111579  0  3.950105  0
C  C54  1  0.52839346  0.70408202  0.27925330  1  -0.06302  0  -0.087477  -0.178791  0  3.941807  0
C  C55  1  0.80034521  0.93781329  0.18150821  1  0.478284  0  0.045858  0.098324  0  3.970425  0
C  C56  1  0.05916459  0.00359263  0.48063908  1  -0.060111  0  0.010347  0.101335  0  3.983613  0
C  C57  1  0.50906311  0.80182862  0.31847442  1  0.504825  0  0.041775  0.099521  0  3.974961  0
C  C58  1  0.60848163  0.48873581  0.18156359  1  -0.031373  0  -0.090433  -0.179805  0  3.954135  0
C  C59  1  0.58265431  0.78361440  0.10317273  1  -0.069684  0  -0.086301  -0.168776  0  3.916226  0
C  C60  1  0.12215291  0.98028715  0.54811736  1  0.012917  0  -0.079446  -0.164953  0  3.925472  0
C  C61  1  0.63951866  0.39192046  0.13290693  1  0.4999  0  0.032402  0.087686  0  4.002114  0
C  C62  1  0.08352900  0.39077051  0.39362171  1  -0.050458  0  -0.085233  -0.172883  0  3.943628  0
C  C63  1  0.64020761  0.48306371  0.97375126  1  0.525649  0  0.034336  0.084743  0  4.029394  0
C  C64  1  0.19360178  0.30480103  0.35438872  1  0.521455  0  0.0476  0.10058  0  3.982488  0
C  C65  1  0.22432710  0.04271091  0.34222835  1  0.455104  0  0.047364  0.094378  0  3.977268  0
C  C66  1  0.11515263  0.03319719  0.37404973  1  0.000525  0  -0.084206  -0.175013  0  3.943233  0
C  C67  1  0.84956594  0.57320565  0.48502509  1  -0.02084  0  -0.083224  -0.173308  0  3.934673  0
C  C68  1  0.43259949  0.30782107  0.83151629  1  -0.000161  0  0.012139  0.111707  0  3.967504  0
C  C69  1  0.06146154  0.99444817  0.96391293  1  -0.015367  0  0.008351  0.098979  0  3.981539  0
C  C70  1  0.94162412  0.54565661  0.52270012  1  -0.039166  0  0.011445  0.102974  0  3.986472  0
C  C71  1  0.74200736  0.66087618  0.52856073  1  0.4646  0  0.051289  0.11428  0  3.960808  0
C  C72  1  0.27576194  0.89528241  0.89868006  1  0.481021  0  0.054006  0.107567  0  3.954248  0
C  C73  1  0.40601634  0.41159193  0.87800880  1  -0.063655  0  0.002567  0.090706  0  3.985499  0
C  C74  1  0.16237810  0.90249273  0.96925738  1  -0.02688  0  -0.0805  -0.165673  0  3.913843  0
C  C75  1  0.39121376  0.41586187  0.98486264  1  -0.062142  0  -0.087287  -0.170603  0  3.923575  0
C  C76  1  0.43984846  0.12115424  0.85108200  1  0.470195  0  0.04464  0.099197  0  3.970909  0
C  C77  1  0.08343544  0.07597969  0.88608922  1  0.00098  0  -0.085548  -0.176703  0  3.946104  0
C  C78  1  0.76910067  0.00789612  0.48989676  1  0.439889  0  0.051965  0.111428  0  3.950268  0
C  C79  1  0.47160280  0.29591666  0.72075048  1  -0.063412  0  -0.087486  -0.17876  0  3.94176  0
C  C80  1  0.19965802  0.06219038  0.81849109  1  0.478348  0  0.045893  0.09846  0  3.970505  0
C  C81  1  0.94082948  0.99638949  0.51936932  1  -0.018901  0  0.010243  0.101368  0  3.983369  0
C  C82  1  0.49094946  0.19816848  0.68152229  1  0.450624  0  0.041757  0.099466  0  3.974923  0
C  C83  1  0.39148137  0.51127702  0.81843292  1  -0.031185  0  -0.090495  -0.17985  0  3.954303  0
C  C84  1  0.41733525  0.21638843  0.89683011  1  -0.069696  0  -0.08628  -0.168736  0  3.916123  0
C  C85  1  0.87782908  0.01971809  0.45189103  1  0.012437  0  -0.079359  -0.164928  0  3.925246  0
C  C86  1  0.36044447  0.60809404  0.86708777  1  0.499831  0  0.032685  0.088158  0  4.001976  0
C  C87  1  0.91649993  0.60921150  0.60639295  1  -0.058626  0  -0.085152  -0.172809  0  3.94344  0
C  C88  1  0.35977107  0.51694915  0.02624106  1  0.524057  0  0.034202  0.084594  0  4.029482  0
C  C89  1  0.80642344  0.69518593  0.64562655  1  0.517209  0  0.047402  0.100351  0  3.981996  0
C  C90  1  0.77566514  0.95726552  0.65777308  1  0.453954  0  0.047319  0.094229  0  3.97733  0
C  C91  1  0.88484448  0.96677347  0.62595077  1  -0.000263  0  -0.084183  -0.174909  0  3.942993  0
N  N92  1  0.70431939  0.02709374  0.17713196  1  -1.258695  0  -0.35708  -0.286186  0  3.456451  0
N  N93  1  0.52465139  0.88896062  0.25490528  1  -1.245709  0  -0.370543  -0.302079  0  3.4864  0
N  N94  1  0.27997397  0.27707843  0.39300032  1  -1.244859  0  -0.354929  -0.280525  0  3.447432  0
N  N95  1  0.28105372  0.02571421  0.40932578  1  -1.252443  0  -0.354966  -0.282344  0  3.435888  0
N  N96  1  0.65719022  0.38701814  0.02987573  1  -1.216764  0  -0.331854  -0.290247  0  3.324348  0
N  N97  1  0.29568301  0.97290994  0.82286696  1  -1.258802  0  -0.357073  -0.286205  0  3.456426  0
N  N98  1  0.47536317  0.11103565  0.74509150  1  -1.245768  0  -0.370519  -0.301959  0  3.486403  0
N  N99  1  0.72005504  0.72291928  0.60701292  1  -1.244396  0  -0.354903  -0.280618  0  3.447097  0
N  N100  1  0.71893411  0.97427876  0.59067372  1  -1.251568  0  -0.354974  -0.282245  0  3.435819  0
N  N101  1  0.34278558  0.61299559  0.97011323  1  -1.215267  0  -0.332062  -0.290675  0  3.324558  0
Cl  Cl102  1  0.62759509  0.89866404  0.42926821  1  -0.707975  0  -0.29312  -0.56311  0  1.337326  0
Cl  Cl103  1  0.42934546  0.15850992  0.15535572  1  -0.723912  0  -0.33627  -0.571563  0  1.083727  0
Cl  Cl104  1  0.57636794  0.21549428  0.36666332  1  -0.734226  0  -0.389791  -0.601394  0  0.966441  0
Cl  Cl105  1  0.37242414  0.10131901  0.57072979  1  -0.708171  0  -0.293132  -0.563115  0  1.337386  0
Cl  Cl106  1  0.57065563  0.84147718  0.84465038  1  -0.723763  0  -0.336259  -0.571561  0  1.083843  0
Cl  Cl107  1  0.42365193  0.78449123  0.63333543  1  -0.734207  0  -0.389798  -0.601371  0  0.96642  0
