# generated using pymatgen
data_DyH19C30N5O7
_symmetry_space_group_name_H-M   'P 1'
_cell_length_a   10.44387566
_cell_length_b   11.17968685
_cell_length_c   13.48800000
_cell_angle_alpha   110.10838947
_cell_angle_beta   101.39742739
_cell_angle_gamma   107.76928656
_symmetry_Int_Tables_number   1
_chemical_formula_structural   DyH19C30N5O7
_chemical_formula_sum   'Dy2 H38 C60 N10 O14'
_cell_volume   1325.25831583
_cell_formula_units_Z   2
loop_
 _symmetry_equiv_pos_site_id
 _symmetry_equiv_pos_as_xyz
  1  'x, y, z'
loop_
 _atom_site_type_symbol
 _atom_site_label
 _atom_site_symmetry_multiplicity
 _atom_site_fract_x
 _atom_site_fract_y
 _atom_site_fract_z
 _atom_site_occupancy
 _atom_site_hle17_bader_spin_density
 _atom_site_hle17_ddec_charge
 _atom_site_hle17_ddec_spin_density
 _atom_site_hle17_ddec_sum_bond_order
 _atom_site_hle17_magmom
 _atom_site_hse06_10hf_bader_spin_density
 _atom_site_hse06_10hf_ddec_charge
 _atom_site_hse06_10hf_ddec_spin_density
 _atom_site_hse06_10hf_ddec_sum_bond_order
 _atom_site_hse06_10hf_magmom
 _atom_site_hse06_bader_spin_density
 _atom_site_hse06_ddec_charge
 _atom_site_hse06_ddec_spin_density
 _atom_site_hse06_ddec_sum_bond_order
 _atom_site_hse06_magmom
 _atom_site_pbe_bader_charge
 _atom_site_pbe_bader_spin_density
 _atom_site_pbe_cm5_charge
 _atom_site_pbe_ddec_charge
 _atom_site_pbe_ddec_spin_density
 _atom_site_pbe_ddec_sum_bond_order
 _atom_site_pbe_magmom
Dy  Dy0  1  0.49969927  0.91583266  0.62364605  1  0  2.21422  0  1.708172  0  0  2.047346  0  2.206572  0  0  2.099054  0  2.16207  0  2.167662  0  1.523149  2.008738  0  2.240363  0
Dy  Dy1  1  0.50030085  0.08416792  0.37635369  1  0  2.214225  0  1.708193  0  0  2.047356  0  2.206585  0  0  2.099066  0  2.162079  0  2.167724  0  1.523123  2.008734  0  2.240397  0
H  H2  1  0.41487590  0.56359486  0.99150085  1  0  0.095214  0  0.972284  0  0  0.103683  0  1.035994  0  0  0.106113  0  1.037208  0  0.066531  0  0.10014  0.101909  0  1.035427  0
H  H3  1  0.58512336  0.43640364  0.00849891  1  0  0.095209  0  0.972253  0  0  0.103693  0  1.03595  0  0  0.106125  0  1.037163  0  0.066522  0  0.100148  0.10192  0  1.035383  0
H  H4  1  0.26880083  0.32129937  0.96003284  1  0  0.057135  0  0.954911  0  0  0.064767  0  1.022171  0  0  0.066826  0  1.02114  0  0.078742  0  0.103983  0.063311  0  1.022974  0
H  H5  1  0.73119984  0.67870017  0.03996817  1  0  0.05711  0  0.954894  0  0  0.064742  0  1.022158  0  0  0.0668  0  1.021127  0  0.078723  0  0.103991  0.063286  0  1.022961  0
H  H6  1  0.96166984  0.45158318  0.38593428  1  0  0.068446  0  0.950273  0  0  0.075228  0  1.019418  0  0  0.078129  0  1.016873  0  0.07311  0  0.105854  0.073127  0  1.021366  0
H  H7  1  0.03832942  0.54841531  0.61406547  1  0  0.068459  0  0.950238  0  0  0.075241  0  1.019388  0  0  0.078152  0  1.016833  0  0.07311  0  0.105859  0.073143  0  1.021326  0
H  H8  1  0.03158843  0.30850074  0.47603205  1  0  0.101662  0  0.961811  0  0  0.111295  0  1.023447  0  0  0.113574  0  1.024575  0  0.074355  0  0.103741  0.109336  0  1.023529  0
H  H9  1  0.96840996  0.69149567  0.52396698  1  0  0.101633  0  0.96186  0  0  0.111293  0  1.02345  0  0  0.113572  0  1.024581  0  0.07437  0  0.103735  0.109334  0  1.023531  0
H  H10  1  0.23984537  0.24805138  0.44706564  1  0  0.120971  0  0.936734  0  0  0.127602  0  1.000309  0  0  0.131096  0  0.997685  0  0.131733  0  0.117919  0.125021  0  1.002254  0
H  H11  1  0.76015486  0.75194711  0.55293279  1  0  0.120969  0  0.936744  0  0  0.127584  0  1.00034  0  0  0.131082  0  0.997707  0  0.131739  0  0.117913  0.125002  0  1.002283  0
H  H12  1  0.07165220  0.68743091  0.29300348  1  0  0.107347  0  0.940293  0  0  0.113115  0  1.00641  0  0  0.117228  0  1.003214  0  0.112  0  0.106611  0.109749  0  1.009439  0
H  H13  1  0.92834554  0.31256863  0.70699634  1  0  0.107325  0  0.940335  0  0  0.113095  0  1.006454  0  0  0.117208  0  1.003259  0  0.111973  0  0.106616  0.109729  0  1.009483  0
H  H14  1  0.80496631  0.55939673  0.21326478  1  0  0.097624  0  0.957304  0  0  0.109462  0  1.014255  0  0  0.112802  0  1.013388  0  0.076911  0  0.103315  0.107102  0  1.014899  0
H  H15  1  0.19503425  0.44060490  0.78673828  1  0  0.097603  0  0.957262  0  0  0.109435  0  1.014225  0  0  0.112775  0  1.013358  0  0.076871  0  0.103306  0.107075  0  1.01487  0
H  H16  1  0.65684279  0.67644846  0.29656987  1  0  0.074803  0  0.958917  0  0  0.082854  0  1.022206  0  0  0.085496  0  1.020273  0  0.084484  0  0.10888  0.080816  0  1.023987  0
H  H17  1  0.34315636  0.32355213  0.70343120  1  0  0.074761  0  0.958957  0  0  0.082841  0  1.022215  0  0  0.085483  0  1.02028  0  0.084487  0  0.10886  0.080803  0  1.023996  0
H  H18  1  0.84943616  0.06272191  0.77177954  1  0  0.085318  0  0.949411  0  0  0.090674  0  1.016101  0  0  0.093782  0  1.013061  0  0.142028  0  0.120954  0.088416  0  1.018303  0
H  H19  1  0.15056495  0.93727867  0.22822035  1  0  0.085355  0  0.949378  0  0  0.090702  0  1.016074  0  0  0.093814  0  1.01303  0  0.142036  0  0.120964  0.088441  0  1.018275  0
H  H20  1  0.03365302  0.22015657  0.96580045  1  0  0.100946  0  0.987524  0  0  0.106586  0  1.055345  0  0  0.109701  0  1.05458  0  0.119416  0  0.102612  0.104603  0  1.055474  0
H  H21  1  0.96634721  0.77984193  0.03419946  1  0  0.100939  0  0.98748  0  0  0.106576  0  1.055306  0  0  0.10969  0  1.054542  0  0.119425  0  0.102603  0.104592  0  1.055436  0
H  H22  1  0.95189304  0.31480055  0.12538431  1  0  0.104905  0  0.962102  0  0  0.11171  0  1.028306  0  0  0.114731  0  1.026366  0  0.141391  0  0.106113  0.109482  0  1.029747  0
H  H23  1  0.04810676  0.68519691  0.87461597  1  0  0.104923  0  0.962012  0  0  0.111716  0  1.028229  0  0  0.114736  0  1.02629  0  0.141394  0  0.106105  0.109488  0  1.02967  0
H  H24  1  0.74466632  0.31823595  0.19554219  1  0  0.106252  0  0.941822  0  0  0.11899  0  1.00064  0  0  0.121573  0  0.999861  0  0.112863  0  0.109254  0.117141  0  1.001173  0
H  H25  1  0.25533338  0.68176359  0.80445719  1  0  0.106254  0  0.941797  0  0  0.118993  0  1.000613  0  0  0.121573  0  0.999834  0  0.112856  0  0.109249  0.117143  0  1.001149  0
H  H26  1  0.48546191  0.24894749  0.15504085  1  0  0.117619  0  0.961264  0  0  0.12566  0  1.024227  0  0  0.128962  0  1.023013  0  0.116585  0  0.110854  0.123346  0  1.025075  0
H  H27  1  0.51454017  0.75105310  0.84495771  1  0  0.117603  0  0.961235  0  0  0.12564  0  1.024217  0  0  0.12894  0  1.023006  0  0.116728  0  0.110845  0.123333  0  1.025043  0
H  H28  1  0.23585659  0.11617021  0.01527638  1  0  0.10885  0  0.933119  0  0  0.117784  0  0.995347  0  0  0.121495  0  0.992219  0  0.118916  0  0.112862  0.1151  0  0.997657  0
H  H29  1  0.76414321  0.88382724  0.98472390  1  0  0.108879  0  0.933105  0  0  0.117799  0  0.995345  0  0  0.121511  0  0.992216  0  0.118931  0  0.11287  0.115106  0  0.997667  0
H  H30  1  0.07509181  0.96104933  0.81372513  1  0  0.108142  0  0.936525  0  0  0.122867  0  0.985521  0  0  0.125446  0  0.986313  0  0.094182  0  0.111289  0.121112  0  0.984935  0
H  H31  1  0.92490843  0.03894917  0.18627478  1  0  0.108133  0  0.936501  0  0  0.122864  0  0.985489  0  0  0.125443  0  0.986282  0  0.094176  0  0.111287  0.121109  0  0.984904  0
H  H32  1  0.18716196  0.89173274  0.66737462  1  0  0.08686  0  0.951231  0  0  0.091804  0  1.020271  0  0  0.094723  0  1.01735  0  0.133214  0  0.121255  0.089547  0  1.022656  0
H  H33  1  0.81283828  0.10826576  0.33262528  1  0  0.086871  0  0.951207  0  0  0.091816  0  1.020239  0  0  0.094737  0  1.017316  0  0.133502  0  0.121266  0.08956  0  1.02262  0
H  H34  1  0.49201008  0.75769154  0.18525401  1  0  0.09646  0  0.992552  0  0  0.104772  0  1.056552  0  0  0.107361  0  1.055421  0  0.083418  0  0.110327  0.102965  0  1.057316  0
H  H35  1  0.50798961  0.24230800  0.81474463  1  0  0.09644  0  0.992615  0  0  0.104788  0  1.056574  0  0  0.107355  0  1.055468  0  0.083411  0  0.110327  0.10298  0  1.057339  0
H  H36  1  0.25879786  0.65194424  0.53148626  1  0  0.421007  0  0.847207  0  0  0.398084  0  0.912705  0  0  0.405836  0  0.904484  0  0.587138  0  0.309301  0.39257  0  0.918731  0
H  H37  1  0.74120379  0.34805530  0.46851341  1  0  0.42097  0  0.847267  0  0  0.398045  0  0.912767  0  0  0.405797  0  0.904545  0  0.587072  0  0.309283  0.39253  0  0.918792  0
H  H38  1  0.36391059  0.64725742  0.63051598  1  0  0.419187  0  0.889832  0  0  0.387422  0  0.955741  0  0  0.399523  0  0.938268  0  0.635572  0  0.288527  0.378978  0  0.967844  0
H  H39  1  0.63609051  0.35274316  0.36948465  1  0  0.419078  0  0.88996  0  0  0.387299  0  0.955897  0  0  0.3994  0  0.938422  0  0.635589  0  0.288488  0.378854  0  0.968001  0
C  C40  1  0.42700280  0.74506276  0.36068369  1  0  0.73134  0  3.850601  0  0  0.684055  0  4.138645  0  0  0.720322  0  4.126863  0  1.593426  0  0.233292  0.659369  0  4.146221  0
C  C41  1  0.57299657  0.25493365  0.63931698  1  0  0.731451  0  3.850477  0  0  0.684131  0  4.138584  0  0  0.720397  0  4.126798  0  1.593258  0  0.233365  0.659444  0  4.14616  0
C  C42  1  0.37997288  0.62396294  0.24840423  1  0  -0.127391  0  3.663488  0  0  -0.109256  0  3.895189  0  0  -0.120314  0  3.914185  0  -0.028699  0  -0.004022  -0.102953  0  3.883773  0
C  C43  1  0.62002572  0.37603868  0.75159557  1  0  -0.127222  0  3.663313  0  0  -0.109088  0  3.89506  0  0  -0.120142  0  3.914051  0  -0.028725  0  -0.003984  -0.102782  0  3.883639  0
C  C44  1  0.38328284  0.54390250  0.05853067  1  0  -0.136452  0  3.777681  0  0  -0.145959  0  4.024946  0  0  -0.153385  0  4.046412  0  -0.083671  0  -0.093699  -0.141363  0  4.010546  0
C  C45  1  0.61671685  0.45609704  0.94146871  1  0  -0.136451  0  3.777593  0  0  -0.14597  0  4.024868  0  0  -0.153396  0  4.046329  0  -0.083644  0  -0.093717  -0.141375  0  4.010469  0
C  C46  1  0.30182335  0.40961749  0.04148807  1  0  0.118957  0  3.76881  0  0  0.095551  0  4.025651  0  0  0.10253  0  4.041971  0  0.505075  0  0.038819  0.091266  0  4.014413  0
C  C47  1  0.69817591  0.59038101  0.95851169  1  0  0.119081  0  3.768674  0  0  0.095682  0  4.025514  0  0  0.10266  0  4.041836  0  0.505194  0  0.038876  0.091397  0  4.014278  0
C  C48  1  0.29648156  0.48499632  0.22252731  1  0  0.203907  0  3.710604  0  0  0.193352  0  3.961307  0  0  0.202269  0  3.97728  0  0.554859  0  0.139495  0.187697  0  3.950364  0
C  C49  1  0.70351900  0.51500531  0.77747279  1  0  0.203906  0  3.710577  0  0  0.193354  0  3.961341  0  0  0.202273  0  3.97731  0  0.554778  0  0.139525  0.187699  0  3.950395  0
C  C50  1  0.23395762  0.44258466  0.30196006  1  0  0.182121  0  3.743004  0  0  0.170624  0  3.99845  0  0  0.17908  0  4.013892  0  0.522582  0  0.129677  0.165219  0  3.987621  0
C  C51  1  0.76604098  0.55741697  0.69803975  1  0  0.18218  0  3.742935  0  0  0.170618  0  3.998475  0  0  0.17907  0  4.013917  0  0.522683  0  0.129668  0.165213  0  3.987647  0
C  C52  1  0.05292874  0.42567647  0.37725560  1  0  0.099328  0  3.770834  0  0  0.076308  0  4.031423  0  0  0.082514  0  4.047744  0  0.450634  0  0.033881  0.072395  0  4.020346  0
C  C53  1  0.94707150  0.57432203  0.62274430  1  0  0.099374  0  3.770818  0  0  0.076352  0  4.031394  0  0  0.082549  0  4.047714  0  0.450559  0  0.033886  0.072438  0  4.02032  0
C  C54  1  0.09130705  0.34512421  0.42695762  1  0  -0.137645  0  3.764972  0  0  -0.148979  0  4.015918  0  0  -0.156391  0  4.038247  0  -0.02258  0  -0.090816  -0.144436  0  4.00139  0
C  C55  1  0.90869221  0.65487429  0.57304213  1  0  -0.137669  0  3.765059  0  0  -0.149015  0  4.015982  0  0  -0.156432  0  4.038319  0  -0.022592  0  -0.090823  -0.144472  0  4.001452  0
C  C56  1  0.20646877  0.31232689  0.41166836  1  0  -0.000192  0  3.665063  0  0  -0.027569  0  3.910289  0  0  -0.02224  0  3.926105  0  -0.007298  0  -0.057723  -0.030822  0  3.89992  0
C  C57  1  0.79353190  0.68767265  0.58833117  1  0  -0.000172  0  3.664983  0  0  -0.027536  0  3.910216  0  0  -0.022207  0  3.92603  0  -0.007285  0  -0.057702  -0.030787  0  3.899843  0
C  C58  1  0.28076566  0.36285557  0.34891753  1  0  -0.112142  0  3.666303  0  0  -0.095355  0  3.900221  0  0  -0.10493  0  3.918505  0  -0.008207  0  -0.000868  -0.089633  0  3.888645  0
C  C59  1  0.71923447  0.63714502  0.65108370  1  0  -0.112205  0  3.666337  0  0  -0.095407  0  3.900303  0  0  -0.104978  0  3.918581  0  -0.008234  0  -0.000923  -0.089685  0  3.888729  0
C  C60  1  0.40574496  0.32835252  0.33342927  1  0  0.700437  0  3.875356  0  0  0.649116  0  4.173824  0  0  0.684484  0  4.162843  0  1.592281  0  0.221654  0.624808  0  4.181026  0
C  C61  1  0.59425799  0.67165015  0.66657149  1  0  0.700469  0  3.875226  0  0  0.649141  0  4.173717  0  0  0.684508  0  4.162738  0  1.592238  0  0.22162  0.624832  0  4.180924  0
C  C62  1  0.22595855  0.93854155  0.45713308  1  0  0.747663  0  3.872665  0  0  0.690208  0  4.183463  0  0  0.728313  0  4.167174  0  1.668589  0  0.238236  0.66417  0  4.19376  0
C  C63  1  0.77404309  0.06145799  0.54287030  1  0  0.747678  0  3.872438  0  0  0.690256  0  4.183172  0  0  0.728363  0  4.166881  0  1.668179  0  0.238275  0.664189  0  4.193512  0
C  C64  1  0.06486113  0.87173508  0.41182285  1  0  -0.113283  0  3.671666  0  0  -0.0943  0  3.906972  0  0  -0.102155  0  3.925602  0  -0.020377  0  -0.000479  -0.089494  0  3.894597  0
C  C65  1  0.93513889  0.12826759  0.58817821  1  0  -0.11332  0  3.671703  0  0  -0.094341  0  3.907001  0  0  -0.102197  0  3.925633  0  -0.020344  0  -0.000532  -0.089524  0  3.894628  0
C  C66  1  0.00332173  0.73709058  0.32397437  1  0  -0.04395  0  3.728289  0  0  -0.069445  0  3.977079  0  0  -0.067372  0  3.995047  0  -0.08582  0  -0.072698  -0.07043  0  3.965113  0
C  C67  1  0.99667742  0.26291000  0.67602670  1  0  -0.043853  0  3.728374  0  0  -0.069359  0  3.977161  0  0  -0.067284  0  3.99513  0  -0.085866  0  -0.072658  -0.070342  0  3.965192  0
C  C68  1  0.85543307  0.66509610  0.28024106  1  0  -0.126183  0  3.765757  0  0  -0.136121  0  4.013767  0  0  -0.141488  0  4.033554  0  -0.019946  0  -0.090081  -0.132589  0  4.000126  0
C  C69  1  0.14456607  0.33490448  0.71976149  1  0  -0.12616  0  3.765641  0  0  -0.136088  0  4.013659  0  0  -0.141457  0  4.033447  0  -0.019953  0  -0.090083  -0.132557  0  4.000017  0
C  C70  1  0.77286119  0.73078453  0.32612782  1  0  0.118422  0  3.742002  0  0  0.091401  0  4.002921  0  0  0.098067  0  4.018166  0  0.498572  0  0.042342  0.087013  0  3.992609  0
C  C71  1  0.22713839  0.26921710  0.67387436  1  0  0.118396  0  3.741981  0  0  0.091349  0  4.002906  0  0  0.098017  0  4.018148  0  0.498574  0  0.042348  0.086962  0  3.992593  0
C  C72  1  0.97276857  0.92981914  0.45269937  1  0  0.149369  0  3.752106  0  0  0.140758  0  3.999806  0  0  0.146428  0  4.019614  0  0.506596  0  0.119466  0.136997  0  3.986341  0
C  C73  1  0.02723102  0.07018248  0.54730058  1  0  0.149323  0  3.75212  0  0  0.140701  0  3.999834  0  0  0.146367  0  4.019648  0  0.53429  0  0.119457  0.13694  0  3.986367  0
C  C74  1  0.81862531  0.10567540  0.84450083  1  0  0.15844  0  3.691759  0  0  0.13046  0  3.945276  0  0  0.138438  0  3.96008  0  0.485908  0  0.060743  0.125042  0  3.935191  0
C  C75  1  0.18137536  0.89432414  0.15549944  1  0  0.158448  0  3.691787  0  0  0.130482  0  3.945293  0  0  0.13846  0  3.960098  0  0.485917  0  0.060727  0.12507  0  3.935201  0
C  C76  1  0.92033665  0.19302553  0.95222925  1  0  -0.122698  0  3.738477  0  0  -0.132019  0  3.983241  0  0  -0.139171  0  4.004816  0  -0.04201  0  -0.085877  -0.127391  0  3.968216  0
C  C77  1  0.07966456  0.80697297  0.04777080  1  0  -0.122715  0  3.738551  0  0  -0.132044  0  3.983329  0  0  -0.139199  0  4.004905  0  -0.04198  0  -0.085886  -0.127417  0  3.968303  0
C  C78  1  0.87511528  0.24496921  0.04112663  1  0  -0.04311  0  3.679103  0  0  -0.065759  0  3.920769  0  0  -0.063931  0  3.939534  0  -0.060826  0  -0.06399  -0.066297  0  3.907752  0
C  C79  1  0.12488593  0.75502929  0.95887417  1  0  -0.043165  0  3.679164  0  0  -0.065797  0  3.920837  0  0  -0.06397  0  3.939605  0  -0.060848  0  -0.063994  -0.066334  0  3.907817  0
C  C80  1  0.72739977  0.20667128  0.02216145  1  0  0.018412  0  3.80024  0  0  0.035363  0  4.029546  0  0  0.032544  0  4.055517  0  -0.025798  0  -0.00404  0.036991  0  4.012114  0
C  C81  1  0.27260090  0.79332826  0.97783808  1  0  0.018461  0  3.800246  0  0  0.035406  0  4.029551  0  0  0.032579  0  4.055517  0  -0.025835  0  -0.004037  0.03705  0  4.01213  0
C  C82  1  0.63246714  0.11745289  0.91037901  1  0  0.133096  0  3.767071  0  0  0.129311  0  4.005569  0  0  0.132891  0  4.026592  0  0.496199  0  0.121416  0.126558  0  3.991717  0
C  C83  1  0.36753158  0.88254665  0.08961947  1  0  0.133085  0  3.767009  0  0  0.129317  0  4.005483  0  0  0.132923  0  4.026471  0  0.496153  0  0.121429  0.12651  0  3.991701  0
C  C84  1  0.67081017  0.25269132  0.10973394  1  0  -0.096539  0  3.725529  0  0  -0.119981  0  3.981804  0  0  -0.123247  0  4.004381  0  -0.087759  0  -0.081114  -0.117401  0  3.966212  0
C  C85  1  0.32919093  0.74730927  0.89026521  1  0  -0.096514  0  3.725459  0  0  -0.119953  0  3.981728  0  0  -0.123211  0  4.004295  0  -0.087756  0  -0.081094  -0.117374  0  3.966136  0
C  C86  1  0.52692872  0.21311800  0.08748739  1  0  -0.091465  0  3.702667  0  0  -0.116736  0  3.963077  0  0  -0.118977  0  3.984485  0  -0.004182  0  -0.081677  -0.11519  0  3.948367  0
C  C87  1  0.47307238  0.78688258  0.91251176  1  0  -0.091468  0  3.702645  0  0  -0.116738  0  3.963053  0  0  -0.118977  0  3.984463  0  -0.00439  0  -0.081665  -0.115187  0  3.948346  0
C  C88  1  0.42837424  0.12403820  0.97559432  1  0  0.021095  0  3.772519  0  0  0.035804  0  4.006993  0  0  0.032636  0  4.031819  0  0.009322  0  -0.002479  0.037971  0  3.990106  0
C  C89  1  0.57162643  0.87596134  0.02440521  1  0  0.021115  0  3.772678  0  0  0.035821  0  4.007154  0  0  0.032653  0  4.031982  0  0.009401  0  -0.002478  0.037989  0  3.990262  0
C  C90  1  0.48056933  0.07554346  0.88662494  1  0  0.128104  0  3.776916  0  0  0.126054  0  4.013998  0  0  0.130701  0  4.03457  0  0.417761  0  0.119665  0.123174  0  3.999938  0
C  C91  1  0.51942993  0.92445504  0.11337333  1  0  0.128106  0  3.776978  0  0  0.126052  0  4.014062  0  0  0.130688  0  4.034631  0  0.417767  0  0.119641  0.123188  0  4.00001  0
C  C92  1  0.27882895  0.08107949  0.94842182  1  0  -0.043826  0  3.69083  0  0  -0.068826  0  3.942703  0  0  -0.066088  0  3.960561  0  -0.087933  0  -0.061055  -0.070308  0  3.930306  0
C  C93  1  0.72116976  0.91892005  0.05157815  1  0  -0.043891  0  3.69098  0  0  -0.06888  0  3.942858  0  0  -0.06614  0  3.960714  0  -0.088267  0  -0.061064  -0.070354  0  3.930465  0
C  C94  1  0.19095608  0.99718516  0.83806499  1  0  -0.128646  0  3.732173  0  0  -0.140444  0  3.982761  0  0  -0.148321  0  4.004891  0  -0.042461  0  -0.084085  -0.135625  0  3.9677  0
C  C95  1  0.80904426  0.00281126  0.16193508  1  0  -0.12862  0  3.732112  0  0  -0.140426  0  3.982703  0  0  -0.148304  0  4.004832  0  -0.042263  0  -0.084081  -0.135608  0  3.967641  0
C  C96  1  0.25252672  0.95636460  0.75538014  1  0  0.173911  0  3.683917  0  0  0.142031  0  3.945488  0  0  0.151034  0  3.960418  0  0.521912  0  0.066015  0.136291  0  3.935318  0
C  C97  1  0.74747450  0.04363390  0.24461917  1  0  0.173956  0  3.683791  0  0  0.14208  0  3.945375  0  0  0.151082  0  3.960301  0  0.521635  0  0.065991  0.13634  0  3.935205  0
C  C98  1  0.42409387  0.65116588  0.16433949  1  0  -0.01487  0  3.728733  0  0  -0.044402  0  3.976565  0  0  -0.039411  0  3.993948  0  0.016886  0  -0.067991  -0.047221  0  3.964901  0
C  C99  1  0.57590582  0.34883366  0.83565988  1  0  -0.014987  0  3.728772  0  0  -0.044544  0  3.976623  0  0  -0.039539  0  3.99402  0  0.016887  0  -0.068012  -0.047364  0  3.964959  0
N  N100  1  0.25979234  0.37973250  0.12109661  1  0  -0.352327  0  3.063671  0  0  -0.32104  0  3.334657  0  0  -0.333591  0  3.348461  0  -1.189401  0  -0.316576  -0.312785  0  3.325126  0
N  N101  1  0.74020735  0.62026705  0.87890425  1  0  -0.352446  0  3.063641  0  0  -0.321142  0  3.334607  0  0  -0.333692  0  3.348409  0  -1.189482  0  -0.316665  -0.312887  0  3.325076  0
N  N102  1  0.12169481  0.47340535  0.31529763  1  0  -0.360406  0  3.074861  0  0  -0.328651  0  3.346006  0  0  -0.340415  0  3.358575  0  -1.195908  0  -0.322051  -0.320697  0  3.337316  0
N  N103  1  0.87830488  0.52659419  0.68470249  1  0  -0.360453  0  3.074755  0  0  -0.328671  0  3.345917  0  0  -0.340433  0  3.358489  0  -1.195801  0  -0.322044  -0.320718  0  3.337229  0
N  N104  1  0.82977821  0.85948974  0.40897646  1  0  -0.306142  0  3.094453  0  0  -0.269535  0  3.360119  0  0  -0.281557  0  3.37623  0  -1.199777  0  -0.300499  -0.26118  0  3.348994  0
N  N105  1  0.17022137  0.14051188  0.59102424  1  0  -0.306067  0  3.094425  0  0  -0.269447  0  3.360086  0  0  -0.281466  0  3.376199  0  -1.199722  0  -0.300478  -0.261093  0  3.348963  0
N  N106  1  0.67884593  0.07029606  0.82352695  1  0  -0.409038  0  3.244648  0  0  -0.360478  0  3.511371  0  0  -0.37421  0  3.528032  0  -1.230329  0  -0.370075  -0.350915  0  3.500237  0
N  N107  1  0.32115376  0.92970348  0.17647242  1  0  -0.409082  0  3.244635  0  0  -0.360527  0  3.51134  0  0  -0.374267  0  3.527993  0  -1.230265  0  -0.370071  -0.350945  0  3.50022  0
N  N108  1  0.39290055  0.99368411  0.77834794  1  0  -0.426973  0  3.227314  0  0  -0.377653  0  3.4971  0  0  -0.392726  0  3.513518  0  -1.215489  0  -0.370574  -0.367621  0  3.485684  0
N  N109  1  0.60709968  0.00631439  0.22165122  1  0  -0.42702  0  3.227285  0  0  -0.377703  0  3.497079  0  0  -0.392784  0  3.513518  0  -1.21541  0  -0.37054  -0.36767  0  3.485659  0
O  O110  1  0.45810882  0.86449228  0.36122349  1  0  -0.777367  0  2.148823  0  0  -0.7231  0  2.41547  0  0  -0.749819  0  2.404621  0  -1.203067  0  -0.402946  -0.703794  0  2.421987  0
O  O111  1  0.54189304  0.13551247  0.63877844  1  0  -0.777346  0  2.148914  0  0  -0.723107  0  2.415674  0  0  -0.749839  0  2.404855  0  -1.203172  0  -0.402958  -0.703805  0  2.42219  0
O  O112  1  0.43520733  0.72402729  0.44784206  1  0  -0.696204  0  2.014288  0  0  -0.645148  0  2.258303  0  0  -0.671135  0  2.249767  0  -1.170996  0  -0.373559  -0.626593  0  2.26363  0
O  O113  1  0.56479041  0.27597225  0.55215331  1  0  -0.696341  0  2.014145  0  0  -0.645271  0  2.258163  0  0  -0.671261  0  2.249637  0  -1.170814  0  -0.373622  -0.626712  0  2.26349  0
O  O114  1  0.51742099  0.41868896  0.33815826  1  0  -0.604116  0  1.889812  0  0  -0.554515  0  2.098703  0  0  -0.579366  0  2.090609  0  -1.166507  0  -0.30897  -0.536968  0  2.103836  0
O  O115  1  0.48257718  0.58131163  0.66184266  1  0  -0.604168  0  1.889751  0  0  -0.554568  0  2.09864  0  0  -0.57942  0  2.090547  0  -1.166449  0  -0.308917  -0.537021  0  2.103772  0
O  O116  1  0.38770818  0.20343385  0.31655978  1  0  -0.769541  0  2.090296  0  0  -0.713312  0  2.353969  0  0  -0.740855  0  2.343694  0  -1.199461  0  -0.431503  -0.69343  0  2.360545  0
O  O117  1  0.61229151  0.79656569  0.68343960  1  0  -0.769497  0  2.090223  0  0  -0.713259  0  2.353896  0  0  -0.740802  0  2.34362  0  -1.199441  0  -0.431487  -0.693381  0  2.360472  0
O  O118  1  0.28219764  0.89822531  0.52477037  1  0  -0.732422  0  2.080825  0  0  -0.680224  0  2.348894  0  0  -0.707071  0  2.337325  0  -1.19674  0  -0.397506  -0.660948  0  2.356194  0
O  O119  1  0.71780238  0.10177736  0.47522624  1  0  -0.732484  0  2.080545  0  0  -0.680293  0  2.348567  0  0  -0.707145  0  2.336999  0  -1.196376  0  -0.397554  -0.661003  0  2.355882  0
O  O120  1  0.28935190  0.01277987  0.41444162  1  0  -0.722464  0  2.078704  0  0  -0.677533  0  2.351846  0  0  -0.703086  0  2.338531  0  -1.188861  0  -0.386679  -0.659177  0  2.360022  0
O  O121  1  0.71064930  0.98722801  0.58555962  1  0  -0.722489  0  2.078836  0  0  -0.677561  0  2.351934  0  0  -0.703105  0  2.338603  0  -1.188822  0  -0.386703  -0.659209  0  2.360152  0
O  O122  1  0.31065348  0.70310227  0.61201343  1  0  -0.882138  0  1.867078  0  0  -0.835716  0  2.060881  0  0  -0.854401  0  2.034918  0  -1.220629  0  -0.617967  -0.822019  0  2.079062  0
O  O123  1  0.68934676  0.29689622  0.38798722  1  0  -0.882002  0  1.867205  0  0  -0.835569  0  2.061006  0  0  -0.854253  0  2.035044  0  -1.220534  0  -0.617918  -0.821867  0  2.079187  0
