# generated using pymatgen
data_Zn3P2H12C4(SO6)2
_symmetry_space_group_name_H-M   'P 1'
_cell_length_a   5.43741777
_cell_length_b   6.05989605
_cell_length_c   23.84385829
_cell_angle_alpha   94.56248628
_cell_angle_beta   89.99259584
_cell_angle_gamma   116.66653345
_symmetry_Int_Tables_number   1
_chemical_formula_structural   Zn3P2H12C4(SO6)2
_chemical_formula_sum   'Zn6 P4 H24 C8 S4 O24'
_cell_volume   699.30885938
_cell_formula_units_Z   2
loop_
 _symmetry_equiv_pos_site_id
 _symmetry_equiv_pos_as_xyz
  1  'x, y, z'
loop_
 _atom_site_type_symbol
 _atom_site_label
 _atom_site_symmetry_multiplicity
 _atom_site_fract_x
 _atom_site_fract_y
 _atom_site_fract_z
 _atom_site_occupancy
 _atom_site_hle17_bader_spin_density
 _atom_site_hle17_ddec_charge
 _atom_site_hle17_ddec_spin_density
 _atom_site_hle17_ddec_sum_bond_order
 _atom_site_hle17_magmom
 _atom_site_hse06_10hf_bader_spin_density
 _atom_site_hse06_10hf_ddec_charge
 _atom_site_hse06_10hf_ddec_spin_density
 _atom_site_hse06_10hf_ddec_sum_bond_order
 _atom_site_hse06_10hf_magmom
 _atom_site_hse06_bader_spin_density
 _atom_site_hse06_ddec_charge
 _atom_site_hse06_ddec_spin_density
 _atom_site_hse06_ddec_sum_bond_order
 _atom_site_hse06_magmom
 _atom_site_pbe_bader_spin_density
 _atom_site_pbe_cm5_charge
 _atom_site_pbe_ddec_charge
 _atom_site_pbe_ddec_spin_density
 _atom_site_pbe_ddec_sum_bond_order
 _atom_site_pbe_magmom
Zn  Zn0  1  0.73241980  0.00012094  0.25001582  1  0  1.256085  0  1.740946  0  0  1.109085  0  2.18066  0  0  1.151927  0  2.122121  0  0  0.671419  1.078618  0  2.221235  0
Zn  Zn1  1  0.26757978  0.99987712  0.74998497  1  0  1.255967  0  1.741089  0  0  1.108994  0  2.180791  0  0  1.151826  0  2.122263  0  0  0.671381  1.078539  0  2.221349  0
Zn  Zn2  1  0.75531989  0.54409392  0.29756429  1  0  1.27048  0  1.671306  0  0  1.105031  0  2.129052  0  0  1.150329  0  2.068098  0  0  0.695478  1.072743  0  2.171661  0
Zn  Zn3  1  0.21129972  0.45604624  0.20246033  1  0  1.270912  0  1.672344  0  0  1.105848  0  2.129843  0  0  1.150934  0  2.068958  0  0  0.695565  1.073097  0  2.172859  0
Zn  Zn4  1  0.24469074  0.45590784  0.70243909  1  0  1.270494  0  1.671311  0  0  1.105059  0  2.129041  0  0  1.150354  0  2.068082  0  0  0.69551  1.072771  0  2.171655  0
Zn  Zn5  1  0.78868971  0.54394254  0.79753943  1  0  1.270979  0  1.672187  0  0  1.105965  0  2.129649  0  0  1.151053  0  2.068761  0  0  0.695615  1.073225  0  2.172669  0
P  P6  1  0.28182244  0.04889734  0.33476064  1  0  1.556124  0  4.845661  0  0  1.394529  0  5.33576  0  0  1.446066  0  5.297818  0  0  0.340793  1.358585  0  5.361288  0
P  P7  1  0.23323295  0.95147698  0.16529621  1  0  1.556378  0  4.842929  0  0  1.394635  0  5.332875  0  0  1.446034  0  5.294957  0  0  0.340533  1.358549  0  5.358537  0
P  P8  1  0.71817812  0.95111369  0.66523831  1  0  1.556084  0  4.845638  0  0  1.394499  0  5.335715  0  0  1.446038  0  5.297777  0  0  0.340767  1.358569  0  5.361249  0
P  P9  1  0.76677952  0.04852478  0.83470046  1  0  1.556441  0  4.843106  0  0  1.394705  0  5.333064  0  0  1.446092  0  5.295188  0  0  0.340482  1.358619  0  5.358724  0
H  H10  1  0.47475755  0.16343950  0.43056945  1  0  0.191479  0  0.918731  0  0  0.202065  0  0.972401  0  0  0.205778  0  0.971357  0  0  0.123974  0.199429  0  0.973243  0
H  H11  1  0.31134248  0.83669680  0.06942231  1  0  0.191584  0  0.919963  0  0  0.20227  0  0.97325  0  0  0.205966  0  0.97222  0  0  0.124003  0.199527  0  0.974302  0
H  H12  1  0.52523194  0.83656412  0.56943397  1  0  0.191461  0  0.91854  0  0  0.202053  0  0.972203  0  0  0.205768  0  0.971159  0  0  0.123973  0.199425  0  0.973054  0
H  H13  1  0.68865248  0.16329198  0.93057662  1  0  0.191619  0  0.91995  0  0  0.202297  0  0.973249  0  0  0.205993  0  0.972215  0  0  0.123988  0.199558  0  0.974305  0
H  H14  1  0.12421788  0.11504847  0.42667245  1  0  0.200729  0  0.91974  0  0  0.211919  0  0.970045  0  0  0.216001  0  0.968275  0  0  0.127866  0.208941  0  0.971645  0
H  H15  1  0.00912826  0.88497186  0.07344030  1  0  0.200839  0  0.919852  0  0  0.211761  0  0.970514  0  0  0.215802  0  0.968761  0  0  0.12809  0.208869  0  0.971937  0
H  H16  1  0.87578171  0.88494959  0.57333086  1  0  0.200742  0  0.919685  0  0  0.211911  0  0.970017  0  0  0.215992  0  0.968249  0  0  0.127894  0.208938  0  0.971623  0
H  H17  1  0.99086762  0.11501878  0.92656160  1  0  0.200867  0  0.919793  0  0  0.211788  0  0.970482  0  0  0.215805  0  0.968761  0  0  0.12808  0.208911  0  0.971886  0
H  H18  1  0.37930553  0.52487664  0.46008503  1  0  0.169287  0  0.937515  0  0  0.185176  0  0.996976  0  0  0.187648  0  0.996379  0  0  0.11334  0.183354  0  0.997524  0
H  H19  1  0.85424415  0.47562031  0.03990922  1  0  0.170104  0  0.937203  0  0  0.186288  0  0.996049  0  0  0.188753  0  0.995477  0  0  0.113929  0.184483  0  0.996553  0
H  H20  1  0.62070607  0.47513439  0.53991729  1  0  0.169358  0  0.937598  0  0  0.185236  0  0.99707  0  0  0.187707  0  0.996466  0  0  0.113373  0.183411  0  0.997624  0
H  H21  1  0.14573245  0.52437959  0.96008407  1  0  0.170068  0  0.937245  0  0  0.186214  0  0.996115  0  0  0.188678  0  0.995546  0  0  0.113896  0.184409  0  0.996621  0
H  H22  1  0.61108374  0.85152446  0.46062119  1  0  0.168428  0  0.95943  0  0  0.180084  0  1.023169  0  0  0.183365  0  1.021855  0  0  0.106995  0.177727  0  1.024129  0
H  H23  1  0.75954914  0.14905291  0.03938834  1  0  0.168738  0  0.958667  0  0  0.180327  0  1.02262  0  0  0.183591  0  1.021323  0  0  0.107281  0.177967  0  1.023613  0
H  H24  1  0.38892326  0.14848842  0.53937949  1  0  0.168432  0  0.959523  0  0  0.180086  0  1.02325  0  0  0.183364  0  1.021938  0  0  0.106988  0.177728  0  1.024212  0
H  H25  1  0.24044308  0.85094143  0.96060650  1  0  0.168664  0  0.958813  0  0  0.180259  0  1.022744  0  0  0.183523  0  1.021448  0  0  0.107236  0.177899  0  1.023738  0
H  H26  1  0.48750124  0.66179911  0.39440192  1  0  0.185375  0  0.943736  0  0  0.196874  0  1.005406  0  0  0.200729  0  1.003165  0  0  0.111496  0.193974  0  1.007307  0
H  H27  1  0.82563530  0.33876296  0.10561562  1  0  0.185396  0  0.944013  0  0  0.196853  0  1.005657  0  0  0.200695  0  1.003429  0  0  0.111419  0.19396  0  1.007556  0
H  H28  1  0.51250664  0.33820450  0.60559772  1  0  0.185369  0  0.943787  0  0  0.196871  0  1.005441  0  0  0.200722  0  1.003207  0  0  0.111482  0.19397  0  1.007342  0
H  H29  1  0.17435881  0.66124621  0.89437659  1  0  0.185502  0  0.943972  0  0  0.196924  0  1.005657  0  0  0.200771  0  1.00342  0  0  0.11144  0.194035  0  1.007553  0
H  H30  1  0.10922328  0.38175128  0.30212339  1  0  0.428103  0  0.875833  0  0  0.398309  0  0.938165  0  0  0.40853  0  0.923485  0  0  0.289593  0.39099  0  0.948674  0
H  H31  1  0.72767638  0.61856114  0.19791612  1  0  0.427625  0  0.875905  0  0  0.397475  0  0.939369  0  0  0.407697  0  0.924697  0  0  0.289528  0.390197  0  0.949769  0
H  H32  1  0.89078184  0.61825048  0.69787706  1  0  0.428166  0  0.875742  0  0  0.398377  0  0.938065  0  0  0.408594  0  0.923392  0  0  0.289627  0.391061  0  0.948571  0
H  H33  1  0.27232504  0.38143691  0.80208552  1  0  0.427659  0  0.875814  0  0  0.397545  0  0.939269  0  0  0.407755  0  0.924604  0  0  0.28957  0.390273  0  0.949663  0
C  C34  1  0.26865311  0.04489993  0.41115978  1  0  -0.640543  0  3.507575  0  0  -0.650212  0  3.751686  0  0  -0.663499  0  3.75153  0  0  -0.165688  -0.641131  0  3.752025  0
C  C35  1  0.22382954  0.95511124  0.08888544  1  0  -0.641376  0  3.509495  0  0  -0.650492  0  3.752548  0  0  -0.663707  0  3.752366  0  0  -0.165875  -0.641431  0  3.752993  0
C  C36  1  0.73135118  0.95512222  0.58884360  1  0  -0.640526  0  3.507616  0  0  -0.650167  0  3.751788  0  0  -0.663464  0  3.751644  0  0  -0.165635  -0.641147  0  3.752202  0
C  C37  1  0.77616543  0.04488125  0.91111524  1  0  -0.641587  0  3.509234  0  0  -0.650736  0  3.752369  0  0  -0.663931  0  3.752202  0  0  -0.165974  -0.641695  0  3.752819  0
C  C38  1  0.43972487  0.69210254  0.43800274  1  0  -0.491489  0  3.515543  0  0  -0.562933  0  3.75961  0  0  -0.56916  0  3.760034  0  0  -0.234857  -0.558361  0  3.759414  0
C  C39  1  0.74756974  0.30843556  0.06201602  1  0  -0.493205  0  3.516385  0  0  -0.564914  0  3.760279  0  0  -0.57118  0  3.760768  0  0  -0.23603  -0.560365  0  3.760031  0
C  C40  1  0.56027016  0.30790478  0.56199824  1  0  -0.491679  0  3.515711  0  0  -0.563071  0  3.75971  0  0  -0.569288  0  3.760123  0  0  -0.234935  -0.558502  0  3.759517  0
C  C41  1  0.25242158  0.69156435  0.93797768  1  0  -0.493241  0  3.516559  0  0  -0.564865  0  3.760348  0  0  -0.571129  0  3.760834  0  0  -0.23601  -0.560309  0  3.760078  0
S  S42  1  0.14860370  0.74863766  0.43817288  1  0  1.275094  0  5.103581  0  0  1.205985  0  5.608865  0  0  1.243859  0  5.596945  0  0  0.473732  1.179926  0  5.616287  0
S  S43  1  0.39972562  0.25140722  0.06183704  1  0  1.275863  0  5.102323  0  0  1.207297  0  5.606744  0  0  1.245014  0  5.594955  0  0  0.473864  1.181333  0  5.614188  0
S  S44  1  0.85139582  0.25134556  0.56182301  1  0  1.275207  0  5.103744  0  0  1.206014  0  5.609096  0  0  1.243905  0  5.597159  0  0  0.473789  1.179973  0  5.616525  0
S  S45  1  0.60026291  0.74858342  0.93816445  1  0  1.276055  0  5.102035  0  0  1.207567  0  5.606402  0  0  1.245287  0  5.594607  0  0  0.474036  1.18162  0  5.613845  0
O  O46  1  0.39283700  0.32692922  0.32553782  1  0  -0.875838  0  2.025172  0  0  -0.768741  0  2.305186  0  0  -0.799225  0  2.281287  0  0  -0.365767  -0.747231  0  2.321522  0
O  O47  1  0.06633235  0.67345404  0.17455982  1  0  -0.875624  0  2.024214  0  0  -0.768942  0  2.304891  0  0  -0.798987  0  2.280548  0  0  -0.366195  -0.747239  0  2.321333  0
O  O48  1  0.60718195  0.67308182  0.67446659  1  0  -0.875741  0  2.024959  0  0  -0.768679  0  2.305001  0  0  -0.79915  0  2.281096  0  0  -0.365853  -0.747176  0  2.321337  0
O  O49  1  0.93366260  0.32653475  0.82544121  1  0  -0.875666  0  2.024438  0  0  -0.768941  0  2.305049  0  0  -0.799023  0  2.28074  0  0  -0.366163  -0.747241  0  2.3215  0
O  O50  1  0.97814821  0.90949502  0.31256231  1  0  -0.904889  0  2.100831  0  0  -0.800796  0  2.407109  0  0  -0.830551  0  2.379753  0  0  -0.374586  -0.779736  0  2.425586  0
O  O51  1  0.06866883  0.09069547  0.18745176  1  0  -0.905539  0  2.100448  0  0  -0.801686  0  2.407209  0  0  -0.831355  0  2.379834  0  0  -0.374528  -0.780103  0  2.425408  0
O  O52  1  0.02185419  0.09051601  0.68743917  1  0  -0.904962  0  2.100921  0  0  -0.800784  0  2.407072  0  0  -0.830556  0  2.379726  0  0  -0.374568  -0.779724  0  2.425545  0
O  O53  1  0.93134091  0.90931186  0.81255173  1  0  -0.905505  0  2.100524  0  0  -0.801663  0  2.407216  0  0  -0.831297  0  2.379821  0  0  -0.374479  -0.780111  0  2.425485  0
O  O54  1  0.46054147  0.92922758  0.31362234  1  0  -0.871626  0  2.003935  0  0  -0.785086  0  2.289041  0  0  -0.812255  0  2.265785  0  0  -0.374931  -0.765793  0  2.304647  0
O  O55  1  0.53166933  0.07158557  0.18644866  1  0  -0.872083  0  2.00388  0  0  -0.784891  0  2.28847  0  0  -0.812085  0  2.265199  0  0  -0.374241  -0.765602  0  2.304008  0
O  O56  1  0.53946370  0.07078530  0.68638211  1  0  -0.87152  0  2.003844  0  0  -0.785053  0  2.289011  0  0  -0.812217  0  2.265754  0  0  -0.37487  -0.765759  0  2.304609  0
O  O57  1  0.46834771  0.92840693  0.81355202  1  0  -0.872054  0  2.003863  0  0  -0.784872  0  2.288438  0  0  -0.812064  0  2.265182  0  0  -0.3742  -0.765578  0  2.303972  0
O  O58  1  0.07833276  0.77758485  0.49642881  1  0  -0.636237  0  1.929169  0  0  -0.58472  0  2.180444  0  0  -0.605905  0  2.170949  0  0  -0.324832  -0.570046  0  2.186689  0
O  O59  1  0.30072866  0.22236429  0.00357266  1  0  -0.636525  0  1.928499  0  0  -0.585466  0  2.180101  0  0  -0.606403  0  2.170542  0  0  -0.325115  -0.570806  0  2.186238  0
O  O60  1  0.92166681  0.22240949  0.50357401  1  0  -0.63629  0  1.929504  0  0  -0.584684  0  2.18076  0  0  -0.605886  0  2.171272  0  0  -0.324902  -0.570041  0  2.18703  0
O  O61  1  0.69924691  0.77760780  0.99642426  1  0  -0.636512  0  1.928648  0  0  -0.585557  0  2.180343  0  0  -0.606492  0  2.17078  0  0  -0.325212  -0.570915  0  2.186498  0
O  O62  1  0.93293462  0.55988736  0.40011249  1  0  -0.642689  0  1.919945  0  0  -0.579072  0  2.170974  0  0  -0.600177  0  2.158421  0  0  -0.316951  -0.56433  0  2.179361  0
O  O63  1  0.37224006  0.43997891  0.09986050  1  0  -0.642171  0  1.918872  0  0  -0.578815  0  2.169702  0  0  -0.600042  0  2.157351  0  0  -0.316548  -0.564211  0  2.178289  0
O  O64  1  0.06707234  0.44011439  0.59988628  1  0  -0.642726  0  1.919724  0  0  -0.579128  0  2.170804  0  0  -0.600243  0  2.158253  0  0  -0.316963  -0.564367  0  2.179168  0
O  O65  1  0.62774939  0.56001358  0.90013515  1  0  -0.642218  0  1.918514  0  0  -0.578914  0  2.169355  0  0  -0.600148  0  2.157002  0  0  -0.316592  -0.564326  0  2.177955  0
O  O66  1  0.97464319  0.37338909  0.27302598  1  0  -1.009492  0  1.957357  0  0  -0.902992  0  2.269619  0  0  -0.937511  0  2.228942  0  0  -0.561297  -0.878392  0  2.297402  0
O  O67  1  0.60129430  0.62681204  0.22699162  1  0  -1.009291  0  1.95656  0  0  -0.902037  0  2.268597  0  0  -0.936655  0  2.228002  0  0  -0.561423  -0.877452  0  2.296445  0
O  O68  1  0.02536657  0.62662194  0.72697549  1  0  -1.009577  0  1.957337  0  0  -0.903063  0  2.269579  0  0  -0.937564  0  2.228889  0  0  -0.561315  -0.878449  0  2.297318  0
O  O69  1  0.39871175  0.37319158  0.77301096  1  0  -1.009335  0  1.956631  0  0  -0.902203  0  2.268722  0  0  -0.936799  0  2.228164  0  0  -0.561487  -0.877634  0  2.296578  0
