# generated using pymatgen
data_AlH3C8Cl2O5
_symmetry_space_group_name_H-M   'P 1'
_cell_length_a   6.61525210
_cell_length_b   8.92760335
_cell_length_c   11.05274551
_cell_angle_alpha   84.14420485
_cell_angle_beta   73.56346904
_cell_angle_gamma   74.83065728
_symmetry_Int_Tables_number   1
_chemical_formula_structural   AlH3C8Cl2O5
_chemical_formula_sum   'Al2 H6 C16 Cl4 O10'
_cell_volume   603.99023190
_cell_formula_units_Z   2
loop_
 _symmetry_equiv_pos_site_id
 _symmetry_equiv_pos_as_xyz
  1  'x, y, z'
loop_
 _atom_site_type_symbol
 _atom_site_label
 _atom_site_symmetry_multiplicity
 _atom_site_fract_x
 _atom_site_fract_y
 _atom_site_fract_z
 _atom_site_occupancy
 _atom_site_pbe_bader_charge
 _atom_site_pbe_bader_spin_density
 _atom_site_pbe_cm5_charge
 _atom_site_pbe_ddec_charge
 _atom_site_pbe_ddec_spin_density
 _atom_site_pbe_ddec_sum_bond_order
 _atom_site_pbe_magmom
Al  Al0  1  0.48921384  0.50742515  0.50142916  1  2.50178  0  0.392669  1.647794  0  2.561868  0
Al  Al1  1  0.98966140  0.50880603  0.49947235  1  2.500788  0  0.391063  1.64153  0  2.566491  0
H  H2  1  0.76475986  0.62177760  0.35862219  1  0.624865  0  0.343026  0.423342  0  0.875423  0
H  H3  1  0.19672470  0.41379425  0.64879144  1  0.610602  0  0.349325  0.42916  0  0.860604  0
H  H4  1  0.22592417  0.26882957  0.23652071  1  0.073406  0  0.105794  0.117048  0  1.022456  0
H  H5  1  0.15660730  0.07590855  0.11933051  1  0.08595  0  0.097009  0.092051  0  1.015052  0
H  H6  1  0.46923596  0.27189194  0.76615214  1  0.086239  0  0.104606  0.10994  0  1.026517  0
H  H7  1  0.27980569  0.07697129  0.88379577  1  0.072619  0  0.096846  0.094759  0  1.012882  0
C  C8  1  0.35951268  0.49983645  0.27505313  1  1.557869  0  0.273867  0.664825  0  4.092581  0
C  C9  1  0.12690319  0.78530120  0.51247405  1  1.642344  0  0.257834  0.630104  0  4.144469  0
C  C10  1  0.62298159  0.51204848  0.72672386  1  1.561529  0  0.275598  0.668589  0  4.091302  0
C  C11  1  0.85513309  0.23050748  0.48719867  1  1.652196  0  0.26398  0.636221  0  4.135772  0
C  C12  1  0.91666458  0.05746554  0.47377397  1  0.041242  0  0.011122  -0.040255  0  3.955492  0
C  C13  1  0.06601043  0.95851961  0.52494053  1  0.213983  0  0.011265  -0.037203  0  3.955943  0
C  C14  1  0.42775246  0.50055535  0.13365423  1  0.11134  0  -0.008547  -0.127052  0  3.931163  0
C  C15  1  0.38399534  0.38753305  0.06865661  1  0.051906  0  6.7e-05  0.069034  0  3.958014  0
C  C16  1  0.53226830  0.61176481  0.06783263  1  0.112176  0  0.013262  0.06478  0  4.038304  0
C  C17  1  0.27801194  0.27158689  0.13375466  1  -0.038255  0  -0.087508  -0.123463  0  3.940397  0
C  C18  1  0.23935245  0.16347813  0.06805462  1  -0.06132  0  -0.08955  -0.073288  0  4.021662  0
C  C19  1  0.55815288  0.50632760  0.86811508  1  0.113216  0  -0.011442  -0.133148  0  3.93802  0
C  C20  1  0.59749715  0.61526900  0.93358808  1  -0.007377  0  0.013734  0.065859  0  4.051005  0
C  C21  1  0.45185680  0.38981216  0.93326590  1  -0.019923  0  0.001481  0.0739  0  3.959896  0
C  C22  1  0.41334681  0.27440798  0.86877912  1  -0.062694  0  -0.094095  -0.137452  0  3.963274  0
C  C23  1  0.30828520  0.16450201  0.93474478  1  0.025931  0  -0.090491  -0.074618  0  4.02959  0
Cl  Cl24  1  0.77876864  0.99577314  0.38583550  1  -0.143767  0  0.034618  0.009061  0  1.566528  0
Cl  Cl25  1  0.20427180  0.02198485  0.61159844  1  -0.149312  0  0.03372  0.006771  0  1.574012  0
Cl  Cl26  1  0.71594891  0.75972130  0.85364737  1  -0.169033  0  0.018255  -0.032741  0  1.583925  0
Cl  Cl27  1  0.57462899  0.75295249  0.14704529  1  -0.172381  0  0.017842  -0.043097  0  1.585338  0
O  O28  1  0.50960758  0.46975184  0.33066027  1  -1.248705  0  -0.22766  -0.579904  0  2.344102  0
O  O29  1  0.97148963  0.72072355  0.52935573  1  -1.244322  0  -0.227027  -0.577341  0  2.404609  0
O  O30  1  0.82464722  0.48403410  0.67101338  1  -1.243343  0  -0.228631  -0.589792  0  2.353322  0
O  O31  1  0.65325914  0.29466604  0.51857681  1  -1.242044  0  -0.232093  -0.582864  0  2.365535  0
O  O32  1  0.46978231  0.53999647  0.67339756  1  -1.257921  0  -0.228258  -0.579059  0  2.33295  0
O  O33  1  0.01018273  0.29643883  0.46612607  1  -1.236853  0  -0.226527  -0.570852  0  2.385175  0
O  O34  1  0.15667976  0.53036937  0.32832577  1  -1.253525  0  -0.225909  -0.581165  0  2.335722  0
O  O35  1  0.32830767  0.72019536  0.48622791  1  -1.247471  0  -0.233047  -0.588822  0  2.385865  0
O  O36  1  0.74181673  0.57550878  0.44321205  1  -1.427737  0  -0.447971  -0.986297  0  2.213561  0
O  O37  1  0.23535879  0.43993321  0.55913397  1  -1.413996  0  -0.448227  -0.986355  0  2.19448  0
