# generated using pymatgen
data_BaH14C10(NO3)4
_symmetry_space_group_name_H-M   'P 1'
_cell_length_a   6.63181280
_cell_length_b   9.56734608
_cell_length_c   14.99981119
_cell_angle_alpha   90.82493064
_cell_angle_beta   90.02222893
_cell_angle_gamma   110.22384403
_symmetry_Int_Tables_number   1
_chemical_formula_structural   BaH14C10(NO3)4
_chemical_formula_sum   'Ba2 H28 C20 N8 O24'
_cell_volume   892.93928033
_cell_formula_units_Z   2
loop_
 _symmetry_equiv_pos_site_id
 _symmetry_equiv_pos_as_xyz
  1  'x, y, z'
loop_
 _atom_site_type_symbol
 _atom_site_label
 _atom_site_symmetry_multiplicity
 _atom_site_fract_x
 _atom_site_fract_y
 _atom_site_fract_z
 _atom_site_occupancy
 _atom_site_hle17_bader_spin_density
 _atom_site_hle17_ddec_charge
 _atom_site_hle17_ddec_spin_density
 _atom_site_hle17_ddec_sum_bond_order
 _atom_site_hle17_magmom
 _atom_site_hse06_10hf_bader_spin_density
 _atom_site_hse06_10hf_ddec_charge
 _atom_site_hse06_10hf_ddec_spin_density
 _atom_site_hse06_10hf_ddec_sum_bond_order
 _atom_site_hse06_10hf_magmom
 _atom_site_hse06_bader_spin_density
 _atom_site_hse06_ddec_charge
 _atom_site_hse06_ddec_spin_density
 _atom_site_hse06_ddec_sum_bond_order
 _atom_site_hse06_magmom
 _atom_site_pbe_bader_spin_density
 _atom_site_pbe_cm5_charge
 _atom_site_pbe_ddec_charge
 _atom_site_pbe_ddec_spin_density
 _atom_site_pbe_ddec_sum_bond_order
 _atom_site_pbe_magmom
Ba  Ba0  1  0.03504786  0.99973909  0.75027924  1  0  1.641543  0  1.086596  0  0  1.473919  0  1.494266  0  0  1.512482  0  1.449489  0  0  0.887508  1.445689  0  1.526552  0
Ba  Ba1  1  0.96494777  0.00026419  0.24971680  1  0  1.641521  0  1.086558  0  0  1.473932  0  1.494138  0  0  1.512489  0  1.449367  0  0  0.887502  1.445704  0  1.526424  0
H  H2  1  0.20899481  0.55366979  0.56965202  1  0  0.388193  0  0.926986  0  0  0.353501  0  1.00937  0  0  0.366749  0  0.991387  0  0  0.290927  0.344208  0  1.0196  0
H  H3  1  0.65396526  0.44564187  0.93051596  1  0  0.388032  0  0.927467  0  0  0.353465  0  1.009513  0  0  0.366736  0  0.991502  0  0  0.291134  0.344301  0  1.019698  0
H  H4  1  0.79101792  0.44634659  0.43034844  1  0  0.388245  0  0.927042  0  0  0.353556  0  1.009318  0  0  0.366803  0  0.991333  0  0  0.290968  0.344262  0  1.019615  0
H  H5  1  0.34603678  0.55435914  0.06948067  1  0  0.387947  0  0.927497  0  0  0.353284  0  1.009759  0  0  0.366553  0  0.991751  0  0  0.291079  0.344124  0  1.019886  0
H  H6  1  0.18513530  0.83766981  0.54903784  1  0  0.402578  0  0.908371  0  0  0.3694  0  0.97653  0  0  0.380322  0  0.960374  0  0  0.285261  0.361561  0  0.988127  0
H  H7  1  0.34677747  0.16207603  0.95066879  1  0  0.402098  0  0.908845  0  0  0.369064  0  0.976733  0  0  0.379985  0  0.960577  0  0  0.285653  0.361318  0  0.988207  0
H  H8  1  0.81486682  0.16233741  0.45096633  1  0  0.402608  0  0.908344  0  0  0.369437  0  0.976488  0  0  0.38036  0  0.960331  0  0  0.285261  0.361599  0  0.988087  0
H  H9  1  0.65320980  0.83790447  0.04933452  1  0  0.402282  0  0.908644  0  0  0.369243  0  0.976537  0  0  0.380164  0  0.960382  0  0  0.285702  0.361496  0  0.988012  0
H  H10  1  0.00649815  0.87263483  0.49460421  1  0  0.414824  0  0.872145  0  0  0.387947  0  0.938959  0  0  0.397723  0  0.924529  0  0  0.299517  0.380985  0  0.949243  0
H  H11  1  0.13332244  0.12731652  0.00499689  1  0  0.414328  0  0.873572  0  0  0.388287  0  0.938152  0  0  0.397999  0  0.923837  0  0  0.299946  0.381388  0  0.948331  0
H  H12  1  0.99349586  0.12737124  0.50540059  1  0  0.414802  0  0.872123  0  0  0.387908  0  0.939017  0  0  0.397684  0  0.924584  0  0  0.299469  0.380941  0  0.949311  0
H  H13  1  0.86666874  0.87267183  0.99500601  1  0  0.414362  0  0.873508  0  0  0.388319  0  0.938108  0  0  0.39803  0  0.923794  0  0  0.299913  0.381418  0  0.948292  0
H  H14  1  0.70865121  0.98631525  0.92457325  1  0  0.419921  0  0.876601  0  0  0.390583  0  0.937059  0  0  0.401898  0  0.920179  0  0  0.291656  0.382536  0  0.94909  0
H  H15  1  0.72236972  0.01399043  0.57591271  1  0  0.419207  0  0.877592  0  0  0.390209  0  0.937549  0  0  0.401514  0  0.920673  0  0  0.290823  0.382124  0  0.949628  0
H  H16  1  0.29134857  0.01368427  0.07542934  1  0  0.419893  0  0.87665  0  0  0.390546  0  0.937133  0  0  0.401862  0  0.920252  0  0  0.291649  0.382494  0  0.949173  0
H  H17  1  0.27763153  0.98601807  0.42408883  1  0  0.419291  0  0.877489  0  0  0.390293  0  0.937443  0  0  0.401597  0  0.920567  0  0  0.290893  0.382209  0  0.949519  0
H  H18  1  0.59863412  0.04271018  0.84357978  1  0  0.427611  0  0.865316  0  0  0.400371  0  0.922213  0  0  0.410498  0  0.907304  0  0  0.302312  0.393001  0  0.933106  0
H  H19  1  0.55620704  0.95721134  0.65688499  1  0  0.426954  0  0.866028  0  0  0.399762  0  0.922896  0  0  0.409912  0  0.907949  0  0  0.301679  0.39255  0  0.933525  0
H  H20  1  0.40136387  0.95728274  0.15642126  1  0  0.427545  0  0.865413  0  0  0.400303  0  0.922316  0  0  0.410427  0  0.907409  0  0  0.302273  0.392931  0  0.93321  0
H  H21  1  0.44379486  0.04280149  0.34311869  1  0  0.426911  0  0.86609  0  0  0.399694  0  0.923006  0  0  0.409845  0  0.908056  0  0  0.301645  0.392476  0  0.933644  0
H  H22  1  0.24917994  0.67218124  0.86144472  1  0  0.331472  0  0.82654  0  0  0.320371  0  0.86985  0  0  0.328108  0  0.864299  0  0  0.352687  0.314756  0  0.874116  0
H  H23  1  0.57676126  0.32731096  0.63870407  1  0  0.332451  0  0.823873  0  0  0.320565  0  0.868463  0  0  0.328295  0  0.862903  0  0  0.353184  0.314854  0  0.872899  0
H  H24  1  0.75081702  0.32781563  0.13856445  1  0  0.331465  0  0.826525  0  0  0.320403  0  0.869841  0  0  0.328129  0  0.864308  0  0  0.352732  0.314777  0  0.874107  0
H  H25  1  0.42322885  0.67266316  0.36129436  1  0  0.332192  0  0.824209  0  0  0.320459  0  0.868652  0  0  0.328186  0  0.863097  0  0  0.353169  0.314748  0  0.873086  0
H  H26  1  0.14137580  0.40589837  0.92409476  1  0  0.10587  0  0.969992  0  0  0.1134  0  1.03082  0  0  0.117529  0  1.025934  0  0  0.137798  0.110349  0  1.034486  0
H  H27  1  0.73566386  0.59355921  0.57605124  1  0  0.105904  0  0.971052  0  0  0.113463  0  1.031707  0  0  0.117559  0  1.026885  0  0  0.137883  0.110359  0  1.035366  0
H  H28  1  0.85863411  0.59408820  0.07590074  1  0  0.105874  0  0.96986  0  0  0.113552  0  1.03055  0  0  0.117693  0  1.025642  0  0  0.137815  0.110476  0  1.034227  0
H  H29  1  0.26432142  0.40641731  0.42394461  1  0  0.105958  0  0.970892  0  0  0.113425  0  1.031645  0  0  0.117517  0  1.026828  0  0  0.137892  0.110322  0  1.035301  0
C  C30  1  0.15560941  0.43336775  0.85388800  1  0  0.244748  0  3.63643  0  0  0.18095  0  3.929027  0  0  0.194059  0  3.938659  0  0  0.156262  0.172214  0  3.922411  0
C  C31  1  0.72231554  0.56599050  0.64625357  1  0  0.243038  0  3.635302  0  0  0.179321  0  3.927836  0  0  0.192417  0  3.937479  0  0  0.155844  0.171045  0  3.921013  0
C  C32  1  0.84440036  0.56662760  0.14610979  1  0  0.244746  0  3.636242  0  0  0.180867  0  3.928868  0  0  0.193969  0  3.938513  0  0  0.156226  0.172144  0  3.922224  0
C  C33  1  0.27768221  0.43400494  0.35374288  1  0  0.24306  0  3.635173  0  0  0.179492  0  3.92774  0  0  0.192589  0  3.937384  0  0  0.155842  0.171216  0  3.920917  0
C  C34  1  0.22129781  0.57342826  0.73328463  1  0  0.00345  0  3.700904  0  0  -0.011909  0  3.96547  0  0  -0.013315  0  3.985727  0  0  0.089391  -0.011249  0  3.952298  0
C  C35  1  0.64726575  0.42603174  0.76688797  1  0  0.002561  0  3.701743  0  0  -0.012695  0  3.965962  0  0  -0.014128  0  3.986287  0  0  0.089151  -0.011759  0  3.952582  0
C  C36  1  0.77871674  0.42658573  0.26671842  1  0  0.003369  0  3.701413  0  0  -0.011859  0  3.965971  0  0  -0.013271  0  3.986236  0  0  0.089375  -0.011184  0  3.95276  0
C  C37  1  0.35273556  0.57395273  0.23310546  1  0  0.002595  0  3.70151  0  0  -0.012652  0  3.96592  0  0  -0.014039  0  3.986205  0  0  0.089221  -0.011697  0  3.952516  0
C  C38  1  0.16483805  0.42265241  0.71014990  1  0  -0.029076  0  3.799541  0  0  -0.033216  0  4.065744  0  0  -0.036362  0  4.086745  0  0  0.078348  -0.03094  0  4.05168  0
C  C39  1  0.74181699  0.57673679  0.79001214  1  0  -0.029183  0  3.800956  0  0  -0.032619  0  4.066495  0  0  -0.03581  0  4.087627  0  0  0.077952  -0.030422  0  4.052349  0
C  C40  1  0.83517157  0.57736076  0.28984846  1  0  -0.0291  0  3.800124  0  0  -0.033226  0  4.066272  0  0  -0.036365  0  4.087272  0  0  0.078351  -0.030964  0  4.052211  0
C  C41  1  0.25818528  0.42324657  0.20998125  1  0  -0.029211  0  3.800947  0  0  -0.032678  0  4.066576  0  0  -0.035908  0  4.087741  0  0  0.078  -0.030489  0  4.052431  0
C  C42  1  0.26987200  0.71114563  0.68131119  1  0  0.635832  0  3.95726  0  0  0.57947  0  4.266643  0  0  0.613121  0  4.258416  0  0  0.22702  0.556693  0  4.271661  0
C  C43  1  0.55800881  0.28837469  0.81884070  1  0  0.634984  0  3.953554  0  0  0.578323  0  4.263441  0  0  0.61198  0  4.255228  0  0  0.226326  0.555278  0  4.268684  0
C  C44  1  0.73014710  0.28887143  0.31869597  1  0  0.635763  0  3.957402  0  0  0.579207  0  4.267059  0  0  0.612854  0  4.25884  0  0  0.226749  0.55642  0  4.272072  0
C  C45  1  0.44198903  0.71162397  0.18115785  1  0  0.635159  0  3.953472  0  0  0.57843  0  4.263445  0  0  0.612078  0  4.255225  0  0  0.226346  0.555379  0  4.268691  0
C  C46  1  0.15952077  0.35243609  0.62165081  1  0  0.641823  0  3.884972  0  0  0.585719  0  4.194462  0  0  0.619927  0  4.183703  0  0  0.230836  0.562447  0  4.201189  0
C  C47  1  0.80609889  0.64683902  0.87857403  1  0  0.641279  0  3.884403  0  0  0.58485  0  4.194759  0  0  0.619043  0  4.184114  0  0  0.230483  0.561418  0  4.201564  0
C  C48  1  0.84047054  0.64758269  0.37834705  1  0  0.641681  0  3.885275  0  0  0.585539  0  4.194835  0  0  0.619743  0  4.184085  0  0  0.230794  0.562267  0  4.201556  0
C  C49  1  0.19390436  0.35316443  0.12141934  1  0  0.641218  0  3.883854  0  0  0.584759  0  4.194272  0  0  0.618961  0  4.183634  0  0  0.230319  0.561329  0  4.201077  0
N  N50  1  0.12474851  0.33759432  0.78588580  1  0  -0.406738  0  3.065405  0  0  -0.367662  0  3.348084  0  0  -0.382066  0  3.364124  0  0  -0.340819  -0.357696  0  3.3372  0
N  N51  1  0.78724900  0.66176477  0.71426379  1  0  -0.406387  0  3.063029  0  0  -0.367438  0  3.345325  0  0  -0.38187  0  3.36145  0  0  -0.340294  -0.357651  0  3.334468  0
N  N52  1  0.87525419  0.66240801  0.21410754  1  0  -0.40675  0  3.065455  0  0  -0.367642  0  3.348151  0  0  -0.382048  0  3.3642  0  0  -0.340782  -0.357679  0  3.337268  0
N  N53  1  0.21275502  0.33822510  0.28573249  1  0  -0.406471  0  3.063073  0  0  -0.367508  0  3.345305  0  0  -0.381938  0  3.361448  0  0  -0.340314  -0.35772  0  3.33445  0
N  N54  1  0.21652909  0.57619702  0.82478068  1  0  -0.28736  0  3.417495  0  0  -0.228855  0  3.658671  0  0  -0.24414  0  3.672766  0  0  -0.360638  -0.218529  0  3.649337  0
N  N55  1  0.63994491  0.42324316  0.67538478  1  0  -0.285732  0  3.415414  0  0  -0.226673  0  3.656865  0  0  -0.241924  0  3.670939  0  0  -0.360118  -0.21655  0  3.647534  0
N  N56  1  0.78347759  0.42380120  0.17522454  1  0  -0.287318  0  3.41756  0  0  -0.228992  0  3.658902  0  0  -0.244268  0  3.673012  0  0  -0.360722  -0.218628  0  3.649512  0
N  N57  1  0.36005601  0.57674355  0.32460873  1  0  -0.285485  0  3.415714  0  0  -0.226697  0  3.657293  0  0  -0.241955  0  3.671356  0  0  -0.36019  -0.216581  0  3.647954  0
O  O58  1  0.30906190  0.83328368  0.72223646  1  0  -0.640224  0  1.988516  0  0  -0.58555  0  2.227517  0  0  -0.608486  0  2.216115  0  0  -0.329002  -0.569673  0  2.235232  0
O  O59  1  0.47466861  0.16629203  0.77793892  1  0  -0.639979  0  1.987044  0  0  -0.585204  0  2.226107  0  0  -0.608203  0  2.214827  0  0  -0.329044  -0.568649  0  2.233303  0
O  O60  1  0.69094745  0.16673199  0.27777532  1  0  -0.640019  0  1.98855  0  0  -0.585243  0  2.227574  0  0  -0.608175  0  2.216178  0  0  -0.328744  -0.569366  0  2.235288  0
O  O61  1  0.52532194  0.83370106  0.22205946  1  0  -0.6399  0  1.987029  0  0  -0.58515  0  2.226163  0  0  -0.608142  0  2.214871  0  0  -0.329017  -0.568597  0  2.233361  0
O  O62  1  0.26666881  0.69697072  0.59544186  1  0  -0.603718  0  2.048429  0  0  -0.541374  0  2.262376  0  0  -0.566932  0  2.249093  0  0  -0.305449  -0.523385  0  2.27041  0
O  O63  1  0.56919890  0.30246434  0.90470808  1  0  -0.602766  0  2.048255  0  0  -0.540201  0  2.26206  0  0  -0.565737  0  2.24876  0  0  -0.305126  -0.52259  0  2.27037  0
O  O64  1  0.73334535  0.30304854  0.40456603  1  0  -0.603779  0  2.048375  0  0  -0.541382  0  2.262363  0  0  -0.566934  0  2.249077  0  0  -0.305406  -0.523392  0  2.270421  0
O  O65  1  0.43077642  0.69752846  0.09529495  1  0  -0.602948  0  2.048526  0  0  -0.540246  0  2.262383  0  0  -0.565783  0  2.249086  0  0  -0.30513  -0.52262  0  2.270645  0
O  O66  1  0.17371167  0.43571559  0.55137354  1  0  -0.553013  0  2.108306  0  0  -0.500139  0  2.330664  0  0  -0.52324  0  2.313074  0  0  -0.322577  -0.483823  0  2.340866  0
O  O67  1  0.73604634  0.56366706  0.94880393  1  0  -0.552633  0  2.10691  0  0  -0.500103  0  2.33003  0  0  -0.523272  0  2.312477  0  0  -0.323016  -0.484109  0  2.340281  0
O  O68  1  0.82629676  0.56430426  0.44862503  1  0  -0.552972  0  2.108498  0  0  -0.500131  0  2.330848  0  0  -0.523234  0  2.313262  0  0  -0.322615  -0.48381  0  2.34109  0
O  O69  1  0.26396217  0.43632880  0.05118586  1  0  -0.552566  0  2.106799  0  0  -0.499885  0  2.329931  0  0  -0.523051  0  2.312381  0  0  -0.322941  -0.483906  0  2.340151  0
O  O70  1  0.14657034  0.21990530  0.61403235  1  0  -0.597562  0  2.002469  0  0  -0.544911  0  2.236168  0  0  -0.567179  0  2.224909  0  0  -0.308056  -0.529636  0  2.243858  0
O  O71  1  0.92594141  0.77920307  0.88632567  1  0  -0.597195  0  2.001943  0  0  -0.544769  0  2.235535  0  0  -0.56699  0  2.224312  0  0  -0.307546  -0.529103  0  2.243116  0
O  O72  1  0.85340655  0.78010574  0.38596460  1  0  -0.597431  0  2.002463  0  0  -0.544779  0  2.236211  0  0  -0.567043  0  2.224956  0  0  -0.308022  -0.529508  0  2.243898  0
O  O73  1  0.07404137  0.22079259  0.11366746  1  0  -0.597215  0  2.001638  0  0  -0.544719  0  2.235153  0  0  -0.566924  0  2.223897  0  0  -0.307427  -0.52905  0  2.242729  0
O  O74  1  0.13526960  0.91982919  0.53185159  1  0  -0.8319  0  1.790477  0  0  -0.775096  0  1.944944  0  0  -0.794714  0  1.914509  0  0  -0.576139  -0.760993  0  1.96658  0
O  O75  1  0.21462099  0.08002045  0.96763781  1  0  -0.831363  0  1.793352  0  0  -0.774806  0  1.94762  0  0  -0.794457  0  1.917296  0  0  -0.576699  -0.760951  0  1.968975  0
O  O76  1  0.86472443  0.08017692  0.46815254  1  0  -0.831924  0  1.790431  0  0  -0.775134  0  1.944952  0  0  -0.794751  0  1.914518  0  0  -0.576114  -0.761026  0  1.966575  0
O  O77  1  0.78536854  0.91996760  0.03236974  1  0  -0.831583  0  1.793157  0  0  -0.77505  0  1.947453  0  0  -0.7947  0  1.917124  0  0  -0.576712  -0.761198  0  1.968813  0
O  O78  1  0.70266686  0.99472353  0.85906527  1  0  -0.88754  0  1.811554  0  0  -0.830349  0  1.978592  0  0  -0.850013  0  1.946543  0  0  -0.64309  -0.816186  0  2.001591  0
O  O79  1  0.70805648  0.00543425  0.64142065  1  0  -0.886314  0  1.812864  0  0  -0.829354  0  1.979289  0  0  -0.849007  0  1.947312  0  0  -0.641972  -0.815162  0  2.001903  0
O  O80  1  0.29734846  0.00528596  0.14093831  1  0  -0.887456  0  1.811596  0  0  -0.830291  0  1.978636  0  0  -0.849956  0  1.946592  0  0  -0.643043  -0.816126  0  2.001642  0
O  O81  1  0.29194624  0.99457417  0.35858222  1  0  -0.886376  0  1.812809  0  0  -0.8294  0  1.979232  0  0  -0.849056  0  1.947254  0  0  -0.642003  -0.815207  0  2.001851  0
