# generated using pymatgen
data_ZnH14C20(NO)4
_symmetry_space_group_name_H-M   'P 1'
_cell_length_a   8.71310418
_cell_length_b   9.73902490
_cell_length_c   11.56261653
_cell_angle_alpha   107.05680133
_cell_angle_beta   91.42719395
_cell_angle_gamma   111.25107806
_symmetry_Int_Tables_number   1
_chemical_formula_structural   ZnH14C20(NO)4
_chemical_formula_sum   'Zn2 H28 C40 N8 O8'
_cell_volume   864.69648391
_cell_formula_units_Z   2
loop_
 _symmetry_equiv_pos_site_id
 _symmetry_equiv_pos_as_xyz
  1  'x, y, z'
loop_
 _atom_site_type_symbol
 _atom_site_label
 _atom_site_symmetry_multiplicity
 _atom_site_fract_x
 _atom_site_fract_y
 _atom_site_fract_z
 _atom_site_occupancy
 _atom_site_hle17_bader_spin_density
 _atom_site_hle17_ddec_charge
 _atom_site_hle17_ddec_spin_density
 _atom_site_hle17_ddec_sum_bond_order
 _atom_site_hle17_magmom
 _atom_site_hse06_10hf_bader_spin_density
 _atom_site_hse06_10hf_ddec_charge
 _atom_site_hse06_10hf_ddec_spin_density
 _atom_site_hse06_10hf_ddec_sum_bond_order
 _atom_site_hse06_10hf_magmom
 _atom_site_hse06_bader_spin_density
 _atom_site_hse06_ddec_charge
 _atom_site_hse06_ddec_spin_density
 _atom_site_hse06_ddec_sum_bond_order
 _atom_site_hse06_magmom
 _atom_site_pbe_bader_spin_density
 _atom_site_pbe_cm5_charge
 _atom_site_pbe_ddec_charge
 _atom_site_pbe_ddec_spin_density
 _atom_site_pbe_ddec_sum_bond_order
 _atom_site_pbe_magmom
Zn  Zn0  1  0.11686141  0.56796648  0.84110179  1  0  1.025006  0  1.833677  0  0  0.834434  0  2.311115  0  0  0.881254  0  2.256005  0  0  0.699844  0.800377  0  2.350033  0
Zn  Zn1  1  0.88313814  0.43203459  0.15889822  1  0  1.025064  0  1.833624  0  0  0.834466  0  2.311052  0  0  0.881287  0  2.255947  0  0  0.699866  0.80042  0  2.349975  0
H  H2  1  0.58357002  0.51607118  0.20141892  1  0  0.095533  0  0.972096  0  0  0.10516  0  1.038316  0  0  0.107499  0  1.038113  0  0  0.100775  0.103355  0  1.038766  0
H  H3  1  0.41642989  0.48392525  0.79858085  1  0  0.095531  0  0.972105  0  0  0.10517  0  1.038299  0  0  0.1075  0  1.038116  0  0  0.100774  0.103367  0  1.038749  0
H  H4  1  0.65534128  0.00004058  0.31315646  1  0  0.083469  0  0.975075  0  0  0.093923  0  1.041554  0  0  0.096583  0  1.040031  0  0  0.098229  0.092192  0  1.042254  0
H  H5  1  0.34465637  0.99995582  0.68683978  1  0  0.083469  0  0.975047  0  0  0.093931  0  1.041515  0  0  0.096588  0  1.039994  0  0  0.098226  0.092201  0  1.042213  0
H  H6  1  0.81832529  0.04689246  0.51019871  1  0  0.094465  0  0.971729  0  0  0.102988  0  1.034734  0  0  0.106128  0  1.033426  0  0  0.098013  0.100542  0  1.035592  0
H  H7  1  0.18167333  0.95310626  0.48979726  1  0  0.094522  0  0.971665  0  0  0.103038  0  1.034667  0  0  0.106201  0  1.033333  0  0  0.098021  0.100591  0  1.035522  0
H  H8  1  0.86827290  0.82943561  0.55133695  1  0  0.086017  0  0.970543  0  0  0.094763  0  1.038256  0  0  0.096502  0  1.039554  0  0  0.096533  0.093536  0  1.037117  0
H  H9  1  0.13172732  0.17056430  0.44866194  1  0  0.086011  0  0.970544  0  0  0.094759  0  1.038253  0  0  0.096499  0  1.03955  0  0  0.096531  0.093533  0  1.037112  0
H  H10  1  0.87665495  0.24194749  0.34851034  1  0  0.085537  0  0.964289  0  0  0.095965  0  1.028832  0  0  0.097715  0  1.027016  0  0  0.134428  0.096135  0  1.027134  0
H  H11  1  0.12334527  0.75805243  0.65148941  1  0  0.085541  0  0.964255  0  0  0.095944  0  1.028838  0  0  0.097691  0  1.027022  0  0  0.134434  0.096113  0  1.027138  0
H  H12  1  0.71873669  0.55555430  0.60224790  1  0  0.114371  0  0.977  0  0  0.124156  0  1.039479  0  0  0.126583  0  1.038749  0  0  0.121209  0.12238  0  1.040084  0
H  H13  1  0.28126418  0.44444446  0.39775245  1  0  0.11432  0  0.977019  0  0  0.124133  0  1.039474  0  0  0.12656  0  1.038746  0  0  0.121196  0.122357  0  1.040077  0
H  H14  1  0.44667289  0.86642411  0.91567243  1  0  0.085991  0  0.971583  0  0  0.094641  0  1.037986  0  0  0.096902  0  1.035563  0  0  0.131727  0.092869  0  1.03994  0
H  H15  1  0.55332780  0.13357698  0.08432848  1  0  0.085988  0  0.971587  0  0  0.094641  0  1.03798  0  0  0.096903  0  1.035556  0  0  0.131725  0.092868  0  1.039934  0
H  H16  1  0.27624059  0.51612888  0.08095798  1  0  0.130584  0  0.946466  0  0  0.138292  0  1.008275  0  0  0.141836  0  1.005803  0  0  0.121489  0.135581  0  1.010381  0
H  H17  1  0.72375936  0.48386753  0.91903832  1  0  0.130634  0  0.94648  0  0  0.138335  0  1.008282  0  0  0.141879  0  1.005809  0  0  0.121513  0.135612  0  1.010404  0
H  H18  1  0.08248529  0.11328372  0.86300885  1  0  0.10521  0  0.949402  0  0  0.112628  0  1.016143  0  0  0.116348  0  1.013474  0  0  0.10562  0.109901  0  1.018065  0
H  H19  1  0.91751454  0.88672086  0.13699289  1  0  0.105181  0  0.949456  0  0  0.112623  0  1.016172  0  0  0.116342  0  1.013504  0  0  0.105627  0.109896  0  1.018095  0
H  H20  1  0.60157727  0.02971519  0.69071642  1  0  0.093907  0  0.969395  0  0  0.102449  0  1.035055  0  0  0.105653  0  1.032886  0  0  0.10159  0.099829  0  1.037244  0
H  H21  1  0.39842227  0.97028589  0.30928446  1  0  0.093885  0  0.969316  0  0  0.102431  0  1.034974  0  0  0.105635  0  1.032805  0  0  0.101561  0.099811  0  1.037163  0
H  H22  1  0.49255165  0.75703526  0.69982590  1  0  0.086408  0  0.988251  0  0  0.0944  0  1.052891  0  0  0.096642  0  1.053766  0  0  0.094789  0.092792  0  1.052369  0
H  H23  1  0.50744951  0.24296700  0.30017617  1  0  0.086423  0  0.988277  0  0  0.09442  0  1.052909  0  0  0.096661  0  1.053785  0  0  0.09481  0.092812  0  1.052386  0
H  H24  1  0.68649238  0.66304369  0.78549915  1  0  0.093432  0  0.963355  0  0  0.103634  0  1.026989  0  0  0.107147  0  1.023958  0  0  0.10239  0.100996  0  1.029402  0
H  H25  1  0.31351042  0.33695973  0.21450238  1  0  0.09347  0  0.96333  0  0  0.103635  0  1.027003  0  0  0.107147  0  1.023973  0  0  0.102395  0.100997  0  1.029413  0
H  H26  1  0.81504552  0.33223182  0.56994335  1  0  0.331676  0  0.923269  0  0  0.311876  0  0.983807  0  0  0.321329  0  0.975262  0  0  0.314316  0.305121  0  0.989937  0
H  H27  1  0.18495699  0.66776810  0.43005733  1  0  0.331695  0  0.923235  0  0  0.311893  0  0.983772  0  0  0.321344  0  0.975228  0  0  0.314343  0.305137  0  0.989902  0
H  H28  1  0.67199515  0.93976463  0.09452281  1  0  0.322228  0  0.934935  0  0  0.300446  0  1.001712  0  0  0.309765  0  0.993573  0  0  0.308396  0.293838  0  1.007524  0
H  H29  1  0.32800526  0.06023295  0.90547639  1  0  0.322214  0  0.934899  0  0  0.300424  0  1.001707  0  0  0.309743  0  0.993568  0  0  0.308374  0.293815  0  1.007518  0
C  C30  1  0.72753092  0.65801379  0.38002918  1  0  0.037312  0  3.830404  0  0  0.057122  0  4.058049  0  0  0.056988  0  4.081894  0  0  -0.010256  0.057038  0  4.041991  0
C  C31  1  0.27246832  0.34198380  0.61997085  1  0  0.037251  0  3.830424  0  0  0.05709  0  4.058071  0  0  0.056954  0  4.081919  0  0  -0.010311  0.057002  0  4.042024  0
C  C32  1  0.63351203  0.63176146  0.26971263  1  0  -0.139505  0  3.692806  0  0  -0.166499  0  3.932711  0  0  -0.169109  0  3.952019  0  0  -0.087561  -0.164765  0  3.920043  0
C  C33  1  0.36648673  0.36823498  0.73028798  1  0  -0.139446  0  3.692832  0  0  -0.166439  0  3.932734  0  0  -0.169047  0  3.952046  0  0  -0.087495  -0.164705  0  3.920066  0
C  C34  1  0.60739075  0.75445069  0.24466586  1  0  0.047134  0  3.822065  0  0  0.065016  0  4.055668  0  0  0.065611  0  4.07845  0  0  -0.005636  0.064314  0  4.040556  0
C  C35  1  0.39260755  0.24554457  0.75533272  1  0  0.047204  0  3.822084  0  0  0.065053  0  4.055722  0  0  0.065649  0  4.078501  0  0  -0.005655  0.064353  0  4.040611  0
C  C36  1  0.67654930  0.90453607  0.33183022  1  0  -0.112144  0  3.733641  0  0  -0.136477  0  3.98376  0  0  -0.138529  0  4.003485  0  0  -0.094168  -0.135349  0  3.970274  0
C  C37  1  0.32344834  0.09546035  0.66816776  1  0  -0.112249  0  3.733708  0  0  -0.136587  0  3.98384  0  0  -0.138639  0  4.003574  0  0  -0.094205  -0.135459  0  3.970353  0
C  C38  1  0.76816849  0.93105039  0.44197950  1  0  -0.061568  0  3.785868  0  0  -0.07056  0  4.032375  0  0  -0.072584  0  4.053867  0  0  -0.093155  -0.068922  0  4.017516  0
C  C39  1  0.23183192  0.06894719  0.55801884  1  0  -0.061604  0  3.785838  0  0  -0.070576  0  4.032333  0  0  -0.07262  0  4.053814  0  0  -0.093144  -0.068938  0  4.017474  0
C  C40  1  0.79405323  0.80841188  0.46601978  1  0  -0.101795  0  3.733898  0  0  -0.122672  0  3.975605  0  0  -0.125437  0  3.998305  0  0  -0.089371  -0.120688  0  3.959797  0
C  C41  1  0.20594535  0.19158687  0.53398052  1  0  -0.101814  0  3.733933  0  0  -0.122694  0  3.975625  0  0  -0.12546  0  3.998333  0  0  -0.089388  -0.120709  0  3.959819  0
C  C42  1  0.83466108  0.33563909  0.38579631  1  0  0.218292  0  3.683625  0  0  0.155411  0  3.957868  0  0  0.169784  0  3.970439  0  0  0.140347  0.146158  0  3.947878  0
C  C43  1  0.16533866  0.66435966  0.61420315  1  0  0.218354  0  3.683486  0  0  0.155479  0  3.957707  0  0  0.169849  0  3.970281  0  0  0.140345  0.146226  0  3.947718  0
C  C44  1  0.75323952  0.50119278  0.51688121  1  0  -0.045808  0  3.651703  0  0  -0.089891  0  3.910708  0  0  -0.088561  0  3.928818  0  0  0.00682  -0.091353  0  3.898692  0
C  C45  1  0.24676020  0.49880598  0.48311998  1  0  -0.045737  0  3.651823  0  0  -0.089821  0  3.910817  0  0  -0.088494  0  3.928931  0  0  0.006845  -0.091283  0  3.898798  0
C  C46  1  0.75989466  0.53263317  0.40771828  1  0  0.112932  0  3.815009  0  0  0.108344  0  4.067095  0  0  0.110802  0  4.090656  0  0  0.077305  0.106831  0  4.050722  0
C  C47  1  0.24010537  0.46736908  0.59228203  1  0  0.11292  0  3.815111  0  0  0.108248  0  4.06728  0  0  0.110706  0  4.090843  0  0  0.077309  0.106736  0  4.050908  0
C  C48  1  0.44148202  0.80088515  0.97735011  1  0  0.224402  0  3.695707  0  0  0.16208  0  3.966371  0  0  0.176224  0  3.979148  0  0  0.140562  0.15288  0  3.95768  0
C  C49  1  0.55851751  0.19911593  0.02265077  1  0  0.224391  0  3.695702  0  0  0.162093  0  3.966374  0  0  0.176237  0  3.979154  0  0  0.140556  0.152894  0  3.957682  0
C  C50  1  0.35959983  0.62030479  0.06452760  1  0  -0.031254  0  3.642299  0  0  -0.070888  0  3.905855  0  0  -0.069818  0  3.925181  0  0  0.005899  -0.071532  0  3.893023  0
C  C51  1  0.64039877  0.37969395  0.93547097  1  0  -0.031318  0  3.642393  0  0  -0.070953  0  3.905931  0  0  -0.069883  0  3.925256  0  0  0.0059  -0.071584  0  3.893106  0
C  C52  1  0.51054968  0.73137741  0.13063973  1  0  0.119155  0  3.754509  0  0  0.108755  0  4.007955  0  0  0.110822  0  4.031586  0  0  0.08547  0.107362  0  3.992307  0
C  C53  1  0.48945025  0.26861901  0.86935831  1  0  0.119063  0  3.754623  0  0  0.108717  0  4.008037  0  0  0.110784  0  4.031666  0  0  0.085421  0.107323  0  3.992385  0
C  C54  1  0.89698720  0.87961041  0.82618439  1  0  -0.083611  0  3.765743  0  0  -0.05755  0  4.00109  0  0  -0.067639  0  4.025166  0  0  -0.023659  -0.051423  0  3.985464  0
C  C55  1  0.10301378  0.12039417  0.17381824  1  0  -0.083598  0  3.76572  0  0  -0.057535  0  4.001078  0  0  -0.067622  0  4.025152  0  0  -0.023642  -0.051409  0  3.985453  0
C  C56  1  0.95357804  0.03462183  0.82767088  1  0  -0.056834  0  3.675573  0  0  -0.093011  0  3.920838  0  0  -0.089676  0  3.939306  0  0  -0.074012  -0.094577  0  3.908357  0
C  C57  1  0.04642132  0.96538157  0.17232969  1  0  -0.056775  0  3.675574  0  0  -0.092964  0  3.920857  0  0  -0.089626  0  3.939323  0  0  -0.074018  -0.094531  0  3.908375  0
C  C58  1  0.84590360  0.08835333  0.78002175  1  0  -0.061103  0  3.729831  0  0  -0.031162  0  3.956366  0  0  -0.040104  0  3.97904  0  0  -0.01397  -0.025386  0  3.940547  0
C  C59  1  0.15409575  0.91165008  0.21997969  1  0  -0.061175  0  3.729826  0  0  -0.031273  0  3.956434  0  0  -0.04022  0  3.979116  0  0  -0.013983  -0.025495  0  3.940613  0
C  C60  1  0.68067482  0.98703180  0.73213546  1  0  -0.051939  0  3.718156  0  0  -0.080082  0  3.964854  0  0  -0.07758  0  3.983211  0  0  -0.078552  -0.081782  0  3.952758  0
C  C61  1  0.31932568  0.01297161  0.26786601  1  0  -0.05187  0  3.718147  0  0  -0.079998  0  3.964863  0  0  -0.077494  0  3.98322  0  0  -0.0785  -0.081699  0  3.952766  0
C  C62  1  0.62145860  0.83525276  0.73602068  1  0  -0.090454  0  3.787807  0  0  -0.098121  0  4.040152  0  0  -0.102869  0  4.061328  0  0  -0.097522  -0.095112  0  4.025849  0
C  C63  1  0.37854189  0.16475065  0.26398165  1  0  -0.090469  0  3.787908  0  0  -0.098145  0  4.040256  0  0  -0.102893  0  4.061432  0  0  -0.097551  -0.095136  0  4.025952  0
C  C64  1  0.72910019  0.78204828  0.78336022  1  0  -0.069373  0  3.748549  0  0  -0.097316  0  3.998756  0  0  -0.094679  0  4.016812  0  0  -0.086181  -0.098828  0  3.986729  0
C  C65  1  0.27089983  0.21795397  0.21664096  1  0  -0.069419  0  3.748583  0  0  -0.097336  0  3.998801  0  0  -0.094701  0  4.01686  0  0  -0.086197  -0.098847  0  3.986773  0
C  C66  1  0.01575910  0.81188876  0.85735361  1  0  0.643225  0  3.916259  0  0  0.593082  0  4.208393  0  0  0.626948  0  4.201994  0  0  0.207028  0.570117  0  4.212103  0
C  C67  1  0.98424140  0.18811465  0.14264786  1  0  0.643247  0  3.916166  0  0  0.593067  0  4.208352  0  0  0.626931  0  4.201955  0  0  0.207018  0.570103  0  4.212061  0
C  C68  1  0.90507819  0.24972235  0.77108166  1  0  0.659847  0  3.91238  0  0  0.606075  0  4.209394  0  0  0.640153  0  4.2025  0  0  0.211768  0.5834  0  4.212361  0
C  C69  1  0.09492183  0.75027990  0.22891952  1  0  0.659829  0  3.912455  0  0  0.606039  0  4.209517  0  0  0.640115  0  4.20262  0  0  0.211755  0.583362  0  4.212482  0
N  N70  1  0.81095741  0.42663408  0.32579418  1  0  -0.44665  0  3.24957  0  0  -0.371632  0  3.551085  0  0  -0.391747  0  3.561529  0  0  -0.353467  -0.357985  0  3.543783  0
N  N71  1  0.18904118  0.57336467  0.67420526  1  0  -0.446686  0  3.249557  0  0  -0.371636  0  3.551092  0  0  -0.391751  0  3.56154  0  0  -0.353496  -0.357986  0  3.543787  0
N  N72  1  0.80031199  0.37760466  0.50090423  1  0  -0.27134  0  3.449744  0  0  -0.200933  0  3.679972  0  0  -0.216641  0  3.694249  0  0  -0.371305  -0.190664  0  3.671345  0
N  N73  1  0.19969052  0.62239527  0.49909645  1  0  -0.27135  0  3.44971  0  0  -0.200929  0  3.679923  0  0  -0.21663  0  3.694196  0  0  -0.371287  -0.190658  0  3.671295  0
N  N74  1  0.55894489  0.84322830  0.07272060  1  0  -0.335144  0  3.426351  0  0  -0.268325  0  3.656545  0  0  -0.285593  0  3.671248  0  0  -0.376124  -0.25691  0  3.646967  0
N  N75  1  0.44105552  0.15676928  0.92727773  1  0  -0.335054  0  3.426239  0  0  -0.268284  0  3.656473  0  0  -0.285549  0  3.67117  0  0  -0.376082  -0.256872  0  3.646902  0
N  N76  1  0.31825000  0.66657222  0.96998387  1  0  -0.395591  0  3.319965  0  0  -0.312178  0  3.622564  0  0  -0.332451  0  3.634313  0  0  -0.361908  -0.298261  0  3.614202  0
N  N77  1  0.68174908  0.33342769  0.03001498  1  0  -0.395562  0  3.319966  0  0  -0.312142  0  3.622547  0  0  -0.332417  0  3.634302  0  0  -0.361896  -0.298228  0  3.614186  0
O  O78  1  0.17056124  0.89079709  0.87861636  1  0  -0.640035  0  2.010262  0  0  -0.592959  0  2.251742  0  0  -0.61767  0  2.24468  0  0  -0.320539  -0.575174  0  2.255244  0
O  O79  1  0.82943943  0.10920400  0.12138628  1  0  -0.640003  0  2.010195  0  0  -0.592937  0  2.251694  0  0  -0.617648  0  2.244634  0  0  -0.320528  -0.575152  0  2.255195  0
O  O80  1  0.95145766  0.66724708  0.85092932  1  0  -0.632974  0  2.033945  0  0  -0.559144  0  2.304657  0  0  -0.586317  0  2.288178  0  0  -0.322952  -0.540016  0  2.315769  0
O  O81  1  0.04854237  0.33275516  0.14907099  1  0  -0.633079  0  2.033949  0  0  -0.559179  0  2.304615  0  0  -0.58635  0  2.288128  0  0  -0.322987  -0.540056  0  2.315733  0
O  O82  1  0.83371155  0.27022796  0.68536445  1  0  -0.637847  0  1.985487  0  0  -0.591727  0  2.217072  0  0  -0.615025  0  2.207567  0  0  -0.321792  -0.574534  0  2.222235  0
O  O83  1  0.16628801  0.72977311  0.31463470  1  0  -0.637806  0  1.985545  0  0  -0.591683  0  2.217152  0  0  -0.614976  0  2.207644  0  0  -0.321768  -0.574491  0  2.222313  0
O  O84  1  0.02564049  0.35604601  0.85277317  1  0  -0.631167  0  2.043287  0  0  -0.554515  0  2.315543  0  0  -0.58318  0  2.300959  0  0  -0.322405  -0.534287  0  2.324971  0
O  O85  1  0.97435723  0.64395624  0.14722881  1  0  -0.631191  0  2.043342  0  0  -0.554512  0  2.315596  0  0  -0.5832  0  2.301066  0  0  -0.32242  -0.53429  0  2.325026  0
