# generated using pymatgen
data_AgH8C9S2N5O3
_symmetry_space_group_name_H-M   'P 1'
_cell_length_a   7.31522703
_cell_length_b   8.75487601
_cell_length_c   10.14530180
_cell_angle_alpha   89.99999107
_cell_angle_beta   106.71064390
_cell_angle_gamma   90.00029017
_symmetry_Int_Tables_number   1
_chemical_formula_structural   AgH8C9S2N5O3
_chemical_formula_sum   'Ag2 H16 C18 S4 N10 O6'
_cell_volume   622.30544154
_cell_formula_units_Z   2
loop_
 _symmetry_equiv_pos_site_id
 _symmetry_equiv_pos_as_xyz
  1  'x, y, z'
loop_
 _atom_site_type_symbol
 _atom_site_label
 _atom_site_symmetry_multiplicity
 _atom_site_fract_x
 _atom_site_fract_y
 _atom_site_fract_z
 _atom_site_occupancy
 _atom_site_hle17_bader_spin_density
 _atom_site_hle17_ddec_charge
 _atom_site_hle17_ddec_spin_density
 _atom_site_hle17_ddec_sum_bond_order
 _atom_site_hle17_magmom
 _atom_site_hse06_10hf_bader_spin_density
 _atom_site_hse06_10hf_ddec_charge
 _atom_site_hse06_10hf_ddec_spin_density
 _atom_site_hse06_10hf_ddec_sum_bond_order
 _atom_site_hse06_10hf_magmom
 _atom_site_hse06_bader_spin_density
 _atom_site_hse06_ddec_charge
 _atom_site_hse06_ddec_spin_density
 _atom_site_hse06_ddec_sum_bond_order
 _atom_site_hse06_magmom
 _atom_site_pbe_bader_spin_density
 _atom_site_pbe_cm5_charge
 _atom_site_pbe_ddec_charge
 _atom_site_pbe_ddec_spin_density
 _atom_site_pbe_ddec_sum_bond_order
 _atom_site_pbe_magmom
Ag  Ag0  1  0.85618948  0.75045679  0.46456293  1  0  0.457265  0  1.505764  0  0  0.31537  0  1.955601  0  0  0.342667  0  1.913976  0  0  0.417882  0.297516  0  1.983548  0
Ag  Ag1  1  0.14380469  0.25046410  0.53543536  1  0  0.457222  0  1.505842  0  0  0.315302  0  1.955711  0  0  0.342618  0  1.914052  0  0  0.417847  0.297446  0  1.98366  0
H  H2  1  0.88220867  0.12216585  0.24909075  1  0  0.073052  0  0.977083  0  0  0.079341  0  1.048804  0  0  0.080858  0  1.047008  0  0  0.111891  0.077936  0  1.050297  0
H  H3  1  0.11778898  0.62216088  0.75090926  1  0  0.073028  0  0.97714  0  0  0.079319  0  1.048858  0  0  0.080836  0  1.047065  0  0  0.111891  0.07793  0  1.050333  0
H  H4  1  0.75754858  0.20170414  0.00198036  1  0  0.127836  0  0.942757  0  0  0.135431  0  1.004847  0  0  0.139173  0  1.003692  0  0  0.114331  0.132807  0  1.005722  0
H  H5  1  0.24246384  0.70170194  0.99801580  1  0  0.127857  0  0.942688  0  0  0.135476  0  1.004769  0  0  0.13922  0  1.003607  0  0  0.114333  0.132831  0  1.005668  0
H  H6  1  0.85283398  0.46749896  0.94017317  1  0  0.080518  0  0.918645  0  0  0.090009  0  0.97928  0  0  0.09247  0  0.976218  0  0  0.118492  0.088389  0  0.981067  0
H  H7  1  0.14719009  0.96750003  0.05982441  1  0  0.080553  0  0.918759  0  0  0.090002  0  0.979424  0  0  0.092486  0  0.976339  0  0  0.11852  0.088371  0  0.981222  0
H  H8  1  0.11803722  0.74093363  0.21046622  1  0  0.13904  0  0.962807  0  0  0.146727  0  1.030658  0  0  0.149351  0  1.029176  0  0  0.113132  0.14479  0  1.031654  0
H  H9  1  0.88196117  0.24092816  0.78953590  1  0  0.139104  0  0.962833  0  0  0.146775  0  1.030699  0  0  0.149396  0  1.029224  0  0  0.11316  0.144833  0  1.031708  0
H  H10  1  0.36496433  0.77224700  0.31044977  1  0  0.136206  0  0.970682  0  0  0.143997  0  1.037454  0  0  0.145765  0  1.037124  0  0  0.103394  0.142636  0  1.037572  0
H  H11  1  0.63503568  0.27223932  0.68955367  1  0  0.136205  0  0.970637  0  0  0.143984  0  1.037421  0  0  0.145772  0  1.037069  0  0  0.103396  0.142642  0  1.037512  0
H  H12  1  0.62675242  0.68333021  0.74389412  1  0  0.082442  0  0.929565  0  0  0.086121  0  1.001323  0  0  0.089504  0  0.996811  0  0  0.114307  0.083585  0  1.004564  0
H  H13  1  0.37324133  0.18332035  0.25611197  1  0  0.082441  0  0.929535  0  0  0.086081  0  1.001328  0  0  0.089463  0  0.996816  0  0  0.114293  0.083546  0  1.004572  0
H  H14  1  0.62433810  0.89200704  0.91870408  1  0  0.129651  0  0.97896  0  0  0.132342  0  1.046055  0  0  0.137206  0  1.043387  0  0  0.107936  0.128828  0  1.048124  0
H  H15  1  0.37565267  0.39199153  0.08128857  1  0  0.129675  0  0.978819  0  0  0.132365  0  1.045949  0  0  0.137239  0  1.043263  0  0  0.107942  0.128852  0  1.048018  0
H  H16  1  0.41244617  0.12046396  0.83200364  1  0  0.090494  0  0.931194  0  0  0.098525  0  0.995598  0  0  0.100901  0  0.992745  0  0  0.121243  0.096772  0  0.997549  0
H  H17  1  0.58754433  0.62045325  0.16799883  1  0  0.090512  0  0.93125  0  0  0.098618  0  0.995581  0  0  0.100992  0  0.992734  0  0  0.12123  0.096865  0  0.997531  0
C  C18  1  0.91452949  0.23391851  0.21475360  1  0  0.1808  0  3.687793  0  0  0.143961  0  3.94313  0  0  0.155197  0  3.960548  0  0  0.05653  0.136801  0  3.931323  0
C  C19  1  0.08547171  0.73391795  0.78524418  1  0  0.180809  0  3.68788  0  0  0.144006  0  3.943227  0  0  0.155232  0  3.960649  0  0  0.056523  0.136834  0  3.9314  0
C  C20  1  0.84687767  0.27833477  0.07785154  1  0  -0.171321  0  3.688654  0  0  -0.186522  0  3.945391  0  0  -0.197561  0  3.965691  0  0  -0.085301  -0.179916  0  3.932299  0
C  C21  1  0.15313237  0.77832762  0.92214807  1  0  -0.171313  0  3.688689  0  0  -0.186594  0  3.945425  0  0  -0.197632  0  3.965732  0  0  -0.085342  -0.179971  0  3.932343  0
C  C22  1  0.89890696  0.42349857  0.04520981  1  0  0.211029  0  3.666414  0  0  0.179119  0  3.92708  0  0  0.191484  0  3.939052  0  0  0.07651  0.170999  0  3.918849  0
C  C23  1  0.10111398  0.92349803  0.95478712  1  0  0.210869  0  3.666902  0  0  0.179019  0  3.927541  0  0  0.191364  0  3.939512  0  0  0.076426  0.170905  0  3.91931  0
C  C24  1  0.06230204  0.46625799  0.27018177  1  0  0.323489  0  3.811145  0  0  0.304645  0  4.089273  0  0  0.321302  0  4.104787  0  0  0.232765  0.29346  0  4.078677  0
C  C25  1  0.93770490  0.96625553  0.72982014  1  0  0.323182  0  3.811632  0  0  0.304433  0  4.089612  0  0  0.321083  0  4.105132  0  0  0.232652  0.293261  0  4.078992  0
C  C26  1  0.21837064  0.75248740  0.31396253  1  0  -0.197773  0  3.594934  0  0  -0.228526  0  3.856842  0  0  -0.227552  0  3.864143  0  0  -0.143542  -0.228999  0  3.851579  0
C  C27  1  0.78162924  0.25248152  0.68604089  1  0  -0.197925  0  3.595007  0  0  -0.228636  0  3.856861  0  0  -0.227679  0  3.864149  0  0  -0.143621  -0.229121  0  3.851576  0
C  C28  1  0.31462904  0.91520376  0.55173137  1  0  0.331868  0  3.799925  0  0  0.311614  0  4.076252  0  0  0.327822  0  4.091481  0  0  0.23581  0.300513  0  4.065995  0
C  C29  1  0.68536901  0.41519638  0.44827166  1  0  0.332112  0  3.799437  0  0  0.311662  0  4.076086  0  0  0.327869  0  4.091315  0  0  0.235828  0.300561  0  4.065832  0
C  C30  1  0.53843371  0.78531547  0.71637301  1  0  0.196405  0  3.669834  0  0  0.159919  0  3.93772  0  0  0.171734  0  3.94992  0  0  0.065557  0.152168  0  3.929632  0
C  C31  1  0.46155354  0.28531057  0.28362779  1  0  0.19619  0  3.670063  0  0  0.15977  0  3.937944  0  0  0.171585  0  3.950152  0  0  0.065501  0.152017  0  3.929859  0
C  C32  1  0.53847707  0.89999784  0.81163299  1  0  -0.179836  0  3.690543  0  0  -0.1911  0  3.94527  0  0  -0.202715  0  3.965799  0  0  -0.089361  -0.183787  0  3.931791  0
C  C33  1  0.46150661  0.39998839  0.18836706  1  0  -0.179555  0  3.690782  0  0  -0.190871  0  3.945524  0  0  -0.202493  0  3.966057  0  0  -0.089282  -0.183557  0  3.932046  0
C  C34  1  0.42183592  0.02592810  0.76428637  1  0  0.19012  0  3.643552  0  0  0.15262  0  3.90194  0  0  0.163966  0  3.917417  0  0  0.062416  0.145312  0  3.891225  0
C  C35  1  0.57814971  0.52591504  0.23571213  1  0  0.189952  0  3.643906  0  0  0.152434  0  3.902318  0  0  0.163781  0  3.917799  0  0  0.06241  0.145126  0  3.891604  0
S  S36  1  0.20470846  0.57725929  0.40535579  1  0  0.022516  0  2.569548  0  0  0.017026  0  2.951135  0  0  0.012492  0  2.947348  0  0  0.03822  0.019834  0  2.95381  0
S  S37  1  0.79529319  0.07725235  0.59464801  1  0  0.022642  0  2.569638  0  0  0.017103  0  2.951183  0  0  0.012569  0  2.947409  0  0  0.038265  0.019903  0  2.953856  0
S  S38  1  0.14299551  0.91794016  0.38974005  1  0  0.02058  0  2.595973  0  0  0.025275  0  2.991077  0  0  0.021127  0  2.98066  0  0  0.042456  0.028054  0  2.997568  0
S  S39  1  0.85700113  0.41793464  0.61026564  1  0  0.020579  0  2.59583  0  0  0.025327  0  2.991001  0  0  0.021178  0  2.980588  0  0  0.042485  0.028101  0  2.997503  0
N  N40  1  0.02400081  0.32589040  0.31197814  1  0  -0.392837  0  3.278512  0  0  -0.313058  0  3.5588  0  0  -0.335742  0  3.573224  0  0  -0.340846  -0.298088  0  3.548455  0
N  N41  1  0.97599525  0.82588470  0.68802252  1  0  -0.392648  0  3.278497  0  0  -0.312933  0  3.55877  0  0  -0.335601  0  3.573184  0  0  -0.340782  -0.297968  0  3.548425  0
N  N42  1  0.00540824  0.51753902  0.14099431  1  0  -0.366976  0  3.065082  0  0  -0.32274  0  3.32611  0  0  -0.340196  0  3.340271  0  0  -0.311479  -0.311276  0  3.316482  0
N  N43  1  0.99460731  0.01753632  0.85900744  1  0  -0.366792  0  3.065369  0  0  -0.322581  0  3.326335  0  0  -0.340038  0  3.340512  0  0  -0.311366  -0.311119  0  3.316696  0
N  N44  1  0.42564687  0.79243242  0.58641574  1  0  -0.355954  0  3.084349  0  0  -0.306498  0  3.353558  0  0  -0.323628  0  3.367315  0  0  -0.30802  -0.295027  0  3.344441  0
N  N45  1  0.57434899  0.29242798  0.41358684  1  0  -0.355906  0  3.084326  0  0  -0.306373  0  3.353547  0  0  -0.323506  0  3.367311  0  0  -0.30797  -0.294899  0  3.344429  0
N  N46  1  0.31070357  0.03629124  0.63314149  1  0  -0.377123  0  3.237165  0  0  -0.302084  0  3.519715  0  0  -0.323351  0  3.532907  0  0  -0.335841  -0.288006  0  3.510835  0
N  N47  1  0.68929354  0.53628092  0.36686038  1  0  -0.377246  0  3.236899  0  0  -0.302207  0  3.519595  0  0  -0.323472  0  3.532783  0  0  -0.335905  -0.288127  0  3.51071  0
N  N48  1  0.62935267  0.92836518  0.18110567  1  0  0.679304  0  4.152762  0  0  0.71053  0  4.448282  0  0  0.738775  0  4.454522  0  0  0.086925  0.702635  0  4.427638  0
N  N49  1  0.37064832  0.42836543  0.81889205  1  0  0.679185  0  4.152963  0  0  0.71047  0  4.448413  0  0  0.738713  0  4.454659  0  0  0.08692  0.702499  0  4.427868  0
O  O50  1  0.60456766  0.90104205  0.29917091  1  0  -0.487879  0  1.83757  0  0  -0.463663  0  2.089481  0  0  -0.481848  0  2.081001  0  0  -0.213489  -0.454326  0  2.090532  0
O  O51  1  0.39543031  0.40104929  0.70082422  1  0  -0.487732  0  1.837529  0  0  -0.463576  0  2.089453  0  0  -0.481766  0  2.080978  0  0  -0.21345  -0.454219  0  2.090533  0
O  O52  1  0.76580823  0.86432232  0.14823227  1  0  -0.479618  0  1.719623  0  0  -0.467382  0  1.933926  0  0  -0.482524  0  1.927852  0  0  -0.205529  -0.460456  0  1.933602  0
O  O53  1  0.23419521  0.36432081  0.85176498  1  0  -0.479678  0  1.71985  0  0  -0.467379  0  1.93406  0  0  -0.48252  0  1.927982  0  0  -0.20553  -0.460428  0  1.933768  0
O  O54  1  0.51820785  0.01941432  0.10010854  1  0  -0.46332  0  1.741422  0  0  -0.450981  0  1.953212  0  0  -0.466663  0  1.949624  0  0  -0.18636  -0.443128  0  1.950511  0
O  O55  1  0.48179630  0.51941207  0.89989085  1  0  -0.463299  0  1.741488  0  0  -0.451016  0  1.953299  0  0  -0.4667  0  1.949718  0  0  -0.186401  -0.44314  0  1.950625  0
