# generated using pymatgen
data_CdH20C16(NO3)2
_symmetry_space_group_name_H-M   'P 1'
_cell_length_a   8.85105024
_cell_length_b   9.71894241
_cell_length_c   10.06085414
_cell_angle_alpha   105.03250432
_cell_angle_beta   89.99996906
_cell_angle_gamma   89.99998811
_symmetry_Int_Tables_number   1
_chemical_formula_structural   CdH20C16(NO3)2
_chemical_formula_sum   'Cd2 H40 C32 N4 O12'
_cell_volume   835.84616434
_cell_formula_units_Z   2
loop_
 _symmetry_equiv_pos_site_id
 _symmetry_equiv_pos_as_xyz
  1  'x, y, z'
loop_
 _atom_site_type_symbol
 _atom_site_label
 _atom_site_symmetry_multiplicity
 _atom_site_fract_x
 _atom_site_fract_y
 _atom_site_fract_z
 _atom_site_occupancy
 _atom_site_hle17_bader_spin_density
 _atom_site_hle17_ddec_charge
 _atom_site_hle17_ddec_spin_density
 _atom_site_hle17_ddec_sum_bond_order
 _atom_site_hle17_magmom
 _atom_site_hse06_10hf_bader_spin_density
 _atom_site_hse06_10hf_ddec_charge
 _atom_site_hse06_10hf_ddec_spin_density
 _atom_site_hse06_10hf_ddec_sum_bond_order
 _atom_site_hse06_10hf_magmom
 _atom_site_hse06_bader_spin_density
 _atom_site_hse06_ddec_charge
 _atom_site_hse06_ddec_spin_density
 _atom_site_hse06_ddec_sum_bond_order
 _atom_site_hse06_magmom
 _atom_site_pbe_bader_spin_density
 _atom_site_pbe_cm5_charge
 _atom_site_pbe_ddec_charge
 _atom_site_pbe_ddec_spin_density
 _atom_site_pbe_ddec_sum_bond_order
 _atom_site_pbe_magmom
Cd  Cd0  1  0.50000034  0.50000022  0.50000011  1  0  1.124779  0  1.732943  0  0  0.939177  0  2.185615  0  0  0.993193  0  2.133007  0  0  0.759962  0.900119  0  2.222048  0
Cd  Cd1  1  0.00000000  0.00000000  0.00000000  1  0  1.124795  0  1.732889  0  0  0.939218  0  2.185546  0  0  0.99323  0  2.132943  0  0  0.759985  0.900159  0  2.221982  0
H  H2  1  0.37818550  0.32112554  0.28628088  1  0  0.40737  0  0.898595  0  0  0.372335  0  0.972038  0  0  0.384124  0  0.954728  0  0  0.28081  0.363817  0  0.984515  0
H  H3  1  0.87818722  0.17887136  0.21371923  1  0  0.407335  0  0.89863  0  0  0.372306  0  0.97207  0  0  0.384094  0  0.95476  0  0  0.280796  0.363788  0  0.984546  0
H  H4  1  0.62181292  0.67887278  0.71371981  1  0  0.407325  0  0.898645  0  0  0.372295  0  0.972088  0  0  0.384085  0  0.954775  0  0  0.280782  0.363777  0  0.984564  0
H  H5  1  0.12181346  0.82112802  0.78628072  1  0  0.407339  0  0.898629  0  0  0.372309  0  0.972066  0  0  0.384099  0  0.954755  0  0  0.280791  0.363791  0  0.984542  0
H  H6  1  0.54992108  0.31571453  0.22266817  1  0  0.417959  0  0.887306  0  0  0.383713  0  0.956996  0  0  0.395285  0  0.94033  0  0  0.28242  0.375299  0  0.969069  0
H  H7  1  0.04992278  0.18428460  0.27733065  1  0  0.417909  0  0.887366  0  0  0.383684  0  0.957018  0  0  0.395258  0  0.940348  0  0  0.282414  0.37527  0  0.96909  0
H  H8  1  0.45007735  0.68428484  0.77733079  1  0  0.417928  0  0.887337  0  0  0.38371  0  0.956977  0  0  0.395283  0  0.940308  0  0  0.282422  0.375296  0  0.969049  0
H  H9  1  0.95007790  0.81571584  0.72266856  1  0  0.417913  0  0.887362  0  0  0.383693  0  0.957007  0  0  0.395268  0  0.940335  0  0  0.282419  0.375279  0  0.969079  0
H  H10  1  0.78572448  0.73199776  0.88164552  1  0  0.077707  0  0.969243  0  0  0.085832  0  1.036592  0  0  0.088613  0  1.033623  0  0  0.114823  0.083712  0  1.038934  0
H  H11  1  0.28572175  0.76800404  0.61835418  1  0  0.077702  0  0.96921  0  0  0.08583  0  1.036568  0  0  0.088609  0  1.033601  0  0  0.114826  0.083709  0  1.03891  0
H  H12  1  0.21427959  0.26800373  0.11835296  1  0  0.077723  0  0.96924  0  0  0.085847  0  1.0366  0  0  0.088627  0  1.033632  0  0  0.114837  0.083727  0  1.038941  0
H  H13  1  0.71427893  0.23199641  0.38164603  1  0  0.077695  0  0.96924  0  0  0.085825  0  1.036592  0  0  0.088605  0  1.033625  0  0  0.114839  0.083705  0  1.038933  0
H  H14  1  0.69046348  0.50998950  0.93191143  1  0  0.102576  0  0.945993  0  0  0.11389  0  1.003473  0  0  0.117141  0  1.002439  0  0  0.106185  0.111408  0  1.004681  0
H  H15  1  0.19046186  0.99001126  0.56808707  1  0  0.102562  0  0.946006  0  0  0.113875  0  1.003491  0  0  0.117126  0  1.002458  0  0  0.106158  0.111393  0  1.0047  0
H  H16  1  0.30953720  0.49001199  0.06808705  1  0  0.102566  0  0.946011  0  0  0.113884  0  1.003485  0  0  0.117132  0  1.002456  0  0  0.106176  0.111401  0  1.004694  0
H  H17  1  0.80953770  0.00998812  0.43191288  1  0  0.102592  0  0.945994  0  0  0.113893  0  1.003487  0  0  0.117144  0  1.002453  0  0  0.106175  0.11141  0  1.004696  0
H  H18  1  0.79421074  0.43926632  0.13882747  1  0  0.114573  0  0.963475  0  0  0.122501  0  1.026673  0  0  0.125979  0  1.024161  0  0  0.105615  0.119951  0  1.028759  0
H  H19  1  0.29421130  0.06073379  0.36117147  1  0  0.114516  0  0.963529  0  0  0.122443  0  1.026737  0  0  0.125922  0  1.024223  0  0  0.105593  0.119892  0  1.028824  0
H  H20  1  0.20578881  0.56073411  0.86117074  1  0  0.1145  0  0.963526  0  0  0.122425  0  1.026736  0  0  0.125903  0  1.024222  0  0  0.105585  0.119874  0  1.028824  0
H  H21  1  0.70578939  0.93926559  0.63882848  1  0  0.114539  0  0.963511  0  0  0.122467  0  1.026714  0  0  0.125946  0  1.024201  0  0  0.105608  0.119917  0  1.0288  0
H  H22  1  0.06581237  0.82122512  0.22226996  1  0  0.081476  0  0.943287  0  0  0.090492  0  1.009638  0  0  0.09242  0  1.00899  0  0  0.112583  0.08915  0  1.010007  0
H  H23  1  0.56581405  0.67877181  0.27772931  1  0  0.081504  0  0.943203  0  0  0.090523  0  1.009547  0  0  0.092456  0  1.008884  0  0  0.112596  0.089179  0  1.009917  0
H  H24  1  0.93418605  0.17877214  0.77773047  1  0  0.081509  0  0.943203  0  0  0.090528  0  1.009547  0  0  0.09246  0  1.008883  0  0  0.112599  0.089182  0  1.009919  0
H  H25  1  0.43418550  0.32122756  0.72226965  1  0  0.081509  0  0.943207  0  0  0.090526  0  1.009552  0  0  0.092458  0  1.00889  0  0  0.112593  0.089181  0  1.009923  0
H  H26  1  0.13906469  0.58654952  0.30158631  1  0  0.082468  0  0.92554  0  0  0.100521  0  0.984804  0  0  0.100746  0  0.986194  0  0  0.096212  0.10035  0  0.983859  0
H  H27  1  0.63906524  0.91345058  0.19841369  1  0  0.082471  0  0.925536  0  0  0.100527  0  0.984797  0  0  0.100751  0  0.986186  0  0  0.096207  0.100355  0  0.983852  0
H  H28  1  0.86093486  0.41345092  0.69841390  1  0  0.082468  0  0.925538  0  0  0.100524  0  0.984798  0  0  0.100748  0  0.986187  0  0  0.096208  0.100353  0  0.983853  0
H  H29  1  0.36093431  0.08654879  0.80158526  1  0  0.082459  0  0.925531  0  0  0.100512  0  0.984792  0  0  0.100736  0  0.986181  0  0  0.096195  0.100335  0  0.983844  0
H  H30  1  0.98766231  0.47100296  0.30911594  1  0  0.082776  0  0.943138  0  0  0.098949  0  1.006907  0  0  0.100063  0  1.006501  0  0  0.096335  0.097868  0  1.007576  0
H  H31  1  0.48766297  0.02899710  0.19088390  1  0  0.082786  0  0.943129  0  0  0.098958  0  1.006897  0  0  0.100073  0  1.006489  0  0  0.096333  0.097876  0  1.007565  0
H  H32  1  0.01233725  0.52899749  0.69088427  1  0  0.082807  0  0.943111  0  0  0.098978  0  1.006882  0  0  0.100093  0  1.006475  0  0  0.096348  0.097897  0  1.007551  0
H  H33  1  0.51233771  0.97100228  0.80911506  1  0  0.082789  0  0.943105  0  0  0.098958  0  1.006877  0  0  0.100074  0  1.006468  0  0  0.09634  0.097872  0  1.007543  0
H  H34  1  0.06393794  0.66228093  0.53080808  1  0  0.098532  0  0.96352  0  0  0.112692  0  1.030377  0  0  0.114442  0  1.030345  0  0  0.10024  0.111394  0  1.030696  0
H  H35  1  0.56393720  0.83771882  0.96919222  1  0  0.098493  0  0.963525  0  0  0.112653  0  1.030387  0  0  0.114404  0  1.030356  0  0  0.100219  0.111355  0  1.030706  0
H  H36  1  0.93606274  0.33771845  0.46919187  1  0  0.098538  0  0.963512  0  0  0.112695  0  1.030377  0  0  0.114445  0  1.030345  0  0  0.100228  0.111396  0  1.030696  0
H  H37  1  0.43606235  0.16228056  0.03080773  1  0  0.098548  0  0.963508  0  0  0.11271  0  1.030361  0  0  0.114461  0  1.030329  0  0  0.100241  0.111411  0  1.030681  0
H  H38  1  0.97946998  0.78944348  0.46030257  1  0  0.095821  0  0.938629  0  0  0.113367  0  0.998072  0  0  0.114949  0  0.998282  0  0  0.09865  0.112503  0  0.997817  0
H  H39  1  0.47946843  0.71055651  0.03969725  1  0  0.095827  0  0.938634  0  0  0.113376  0  0.99807  0  0  0.114961  0  0.998278  0  0  0.098652  0.11251  0  0.99782  0
H  H40  1  0.02053184  0.21055697  0.53969864  1  0  0.095825  0  0.938633  0  0  0.113377  0  0.998064  0  0  0.114962  0  0.998273  0  0  0.098653  0.112514  0  0.997808  0
H  H41  1  0.52053112  0.28944287  0.96030171  1  0  0.095834  0  0.938629  0  0  0.113389  0  0.998056  0  0  0.114972  0  0.998267  0  0  0.098652  0.112523  0  0.997803  0
C  C42  1  0.82514916  0.69967599  0.97143976  1  0  0.114866  0  3.725066  0  0  0.081882  0  3.981055  0  0  0.088025  0  4.000581  0  0  0.039671  0.077843  0  3.967691  0
C  C43  1  0.32514534  0.80032581  0.52856091  1  0  0.114942  0  3.725102  0  0  0.081952  0  3.981084  0  0  0.088097  0  4.000613  0  0  0.039709  0.077912  0  3.967716  0
C  C44  1  0.17485491  0.30032659  0.02855997  1  0  0.114857  0  3.72514  0  0  0.081864  0  3.981129  0  0  0.088007  0  4.000657  0  0  0.039695  0.077824  0  3.967762  0
C  C45  1  0.67485534  0.19967357  0.47143904  1  0  0.114982  0  3.725122  0  0  0.081998  0  3.981092  0  0  0.088141  0  4.000622  0  0  0.03973  0.077958  0  3.967724  0
C  C46  1  0.77371829  0.57515492  0.00010585  1  0  -0.115394  0  3.752986  0  0  -0.125536  0  4.00533  0  0  -0.132322  0  4.027454  0  0  -0.085072  -0.120963  0  3.990764  0
C  C47  1  0.27371641  0.92484515  0.49989507  1  0  -0.115491  0  3.753034  0  0  -0.125622  0  4.005378  0  0  -0.132412  0  4.027511  0  0  -0.08509  -0.121048  0  3.990811  0
C  C48  1  0.22628353  0.42484553  0.99989436  1  0  -0.115443  0  3.753036  0  0  -0.125578  0  4.005379  0  0  -0.132368  0  4.027512  0  0  -0.085105  -0.121005  0  3.990813  0
C  C49  1  0.72628314  0.07515424  0.50010587  1  0  -0.115531  0  3.753059  0  0  -0.125658  0  4.005414  0  0  -0.132446  0  4.027543  0  0  -0.085117  -0.121085  0  3.990849  0
C  C50  1  0.83137921  0.53698011  0.11444633  1  0  -0.062131  0  3.679818  0  0  -0.089079  0  3.927904  0  0  -0.087059  0  3.946927  0  0  -0.070114  -0.090973  0  3.915779  0
C  C51  1  0.33137627  0.96302098  0.38555183  1  0  -0.062007  0  3.679657  0  0  -0.088966  0  3.927749  0  0  -0.086944  0  3.946768  0  0  -0.070077  -0.090863  0  3.915625  0
C  C52  1  0.16862147  0.46302138  0.88555115  1  0  -0.061968  0  3.679656  0  0  -0.088924  0  3.927732  0  0  -0.086903  0  3.946752  0  0  -0.070049  -0.09082  0  3.915607  0
C  C53  1  0.66862216  0.03697841  0.61444911  1  0  -0.062009  0  3.679686  0  0  -0.088972  0  3.927766  0  0  -0.086952  0  3.94679  0  0  -0.070075  -0.090869  0  3.915644  0
C  C54  1  0.94043629  0.62359466  0.19675942  1  0  0.052017  0  3.730642  0  0  0.077371  0  3.968611  0  0  0.072822  0  3.994374  0  0  -0.003182  0.080265  0  3.951707  0
C  C55  1  0.44044020  0.87640216  0.30324064  1  0  0.052017  0  3.730538  0  0  0.07738  0  3.968507  0  0  0.072829  0  3.99427  0  0  -0.003184  0.080275  0  3.9516  0
C  C56  1  0.05955987  0.37640259  0.80324002  1  0  0.05196  0  3.730617  0  0  0.077347  0  3.968546  0  0  0.072795  0  3.994309  0  0  -0.003196  0.080242  0  3.951639  0
C  C57  1  0.55955936  0.12359829  0.69675957  1  0  0.052001  0  3.730575  0  0  0.077393  0  3.968499  0  0  0.07284  0  3.994263  0  0  -0.003182  0.080281  0  3.951585  0
C  C58  1  0.98222342  0.74854941  0.16170287  1  0  0.067213  0  3.68806  0  0  0.031226  0  3.935879  0  0  0.037105  0  3.954702  0  0  0.040895  0.027238  0  3.923029  0
C  C59  1  0.48222168  0.75144739  0.33829716  1  0  0.067153  0  3.68796  0  0  0.031146  0  3.935784  0  0  0.037031  0  3.954606  0  0  0.04087  0.027162  0  3.92293  0
C  C60  1  0.01777839  0.25144785  0.83829756  1  0  0.067152  0  3.687959  0  0  0.031139  0  3.935779  0  0  0.037024  0  3.954601  0  0  0.040853  0.027156  0  3.922924  0
C  C61  1  0.51777787  0.24855305  0.66170205  1  0  0.067113  0  3.688003  0  0  0.031099  0  3.935824  0  0  0.036984  0  3.954644  0  0  0.040851  0.027115  0  3.92297  0
C  C62  1  0.01583638  0.58224977  0.31474884  1  0  -0.125019  0  3.718897  0  0  -0.171323  0  3.969672  0  0  -0.170999  0  3.98348  0  0  -0.161845  -0.171509  0  3.960638  0
C  C63  1  0.51583580  0.91775039  0.18525223  1  0  -0.125019  0  3.718889  0  0  -0.171325  0  3.969675  0  0  -0.171  0  3.983483  0  0  -0.161823  -0.171511  0  3.960641  0
C  C64  1  0.98416431  0.41775070  0.68525336  1  0  -0.12503  0  3.718884  0  0  -0.171355  0  3.969708  0  0  -0.171031  0  3.98352  0  0  -0.161837  -0.171545  0  3.960679  0
C  C65  1  0.48416375  0.08225006  0.81474798  1  0  -0.12495  0  3.718872  0  0  -0.171254  0  3.969644  0  0  -0.170929  0  3.983452  0  0  -0.161789  -0.171418  0  3.960579  0
C  C66  1  0.97635171  0.67560501  0.45780434  1  0  -0.271584  0  3.685789  0  0  -0.310985  0  3.935921  0  0  -0.317692  0  3.945907  0  0  -0.168923  -0.306198  0  3.928794  0
C  C67  1  0.47635127  0.82439606  0.04219673  1  0  -0.271516  0  3.685873  0  0  -0.310959  0  3.935977  0  0  -0.317671  0  3.945968  0  0  -0.168912  -0.306173  0  3.928847  0
C  C68  1  0.02364897  0.32439544  0.54219587  1  0  -0.271576  0  3.685827  0  0  -0.310997  0  3.935962  0  0  -0.317707  0  3.945953  0  0  -0.168907  -0.306209  0  3.928834  0
C  C69  1  0.52364828  0.17560439  0.95780348  1  0  -0.271614  0  3.685912  0  0  -0.311061  0  3.936042  0  0  -0.317776  0  3.946036  0  0  -0.168945  -0.306281  0  3.928908  0
C  C70  1  0.82553909  0.64535485  0.51741564  1  0  0.704577  0  3.837075  0  0  0.653155  0  4.141922  0  0  0.686969  0  4.135321  0  0  0.208635  0.630452  0  4.144636  0
C  C71  1  0.32553950  0.85464696  0.98258603  1  0  0.704303  0  3.837174  0  0  0.653011  0  4.141847  0  0  0.686823  0  4.135249  0  0  0.208571  0.630309  0  4.144559  0
C  C72  1  0.17446046  0.35464774  0.48258608  1  0  0.704436  0  3.837002  0  0  0.653033  0  4.141831  0  0  0.686844  0  4.135232  0  0  0.208562  0.630331  0  4.144542  0
C  C73  1  0.67446005  0.14535243  0.01741393  1  0  0.704275  0  3.837181  0  0  0.652961  0  4.14189  0  0  0.686768  0  4.135296  0  0  0.20853  0.630259  0  4.144601  0
N  N74  1  0.92601769  0.78601386  0.05199739  1  0  -0.339819  0  3.289959  0  0  -0.262997  0  3.557384  0  0  -0.282162  0  3.577031  0  0  -0.332927  -0.249603  0  3.543367  0
N  N75  1  0.42601476  0.71398404  0.44800393  1  0  -0.339827  0  3.289939  0  0  -0.262979  0  3.557342  0  0  -0.28215  0  3.576994  0  0  -0.332932  -0.249584  0  3.543321  0
N  N76  1  0.07398525  0.21398447  0.94800430  1  0  -0.339818  0  3.289893  0  0  -0.262974  0  3.557298  0  0  -0.282141  0  3.576948  0  0  -0.332948  -0.249579  0  3.543276  0
N  N77  1  0.57398592  0.28601641  0.55199628  1  0  -0.339853  0  3.289974  0  0  -0.263013  0  3.557396  0  0  -0.282183  0  3.577047  0  0  -0.332968  -0.249618  0  3.543374  0
O  O78  1  0.46457638  0.37862703  0.26674440  1  0  -0.833881  0  1.868298  0  0  -0.773572  0  2.069857  0  0  -0.795574  0  2.034884  0  0  -0.593014  -0.75809  0  2.094743  0
O  O79  1  0.96457697  0.12137197  0.23325518  1  0  -0.833806  0  1.868411  0  0  -0.773511  0  2.069938  0  0  -0.795511  0  2.034969  0  0  -0.592999  -0.758031  0  2.094822  0
O  O80  1  0.53542317  0.62137235  0.73325555  1  0  -0.833801  0  1.868406  0  0  -0.773506  0  2.069935  0  0  -0.795506  0  2.034959  0  0  -0.592986  -0.758024  0  2.094818  0
O  O81  1  0.03542258  0.87862848  0.76674503  1  0  -0.833821  0  1.868401  0  0  -0.773523  0  2.069925  0  0  -0.795525  0  2.034948  0  0  -0.593006  -0.758042  0  2.094809  0
O  O82  1  0.74429566  0.54620164  0.44528778  1  0  -0.637868  0  1.990725  0  0  -0.566214  0  2.239989  0  0  -0.594725  0  2.230365  0  0  -0.326254  -0.545585  0  2.245449  0
O  O83  1  0.24429518  0.95380272  0.05471619  1  0  -0.63774  0  1.99069  0  0  -0.566141  0  2.239905  0  0  -0.594653  0  2.230289  0  0  -0.326219  -0.5455  0  2.245338  0
O  O84  1  0.25570503  0.45380203  0.55471619  1  0  -0.63779  0  1.990634  0  0  -0.56614  0  2.239886  0  0  -0.594652  0  2.23027  0  0  -0.326235  -0.545504  0  2.245327  0
O  O85  1  0.75570550  0.04619772  0.94528303  1  0  -0.637713  0  1.9907  0  0  -0.566111  0  2.239923  0  0  -0.594624  0  2.23031  0  0  -0.326229  -0.545479  0  2.245374  0
O  O86  1  0.79296664  0.72161408  0.63827782  1  0  -0.676608  0  1.9828  0  0  -0.607822  0  2.202986  0  0  -0.634764  0  2.192191  0  0  -0.321715  -0.5884  0  2.209489  0
O  O87  1  0.29296488  0.77838986  0.86172339  1  0  -0.676526  0  1.982832  0  0  -0.607774  0  2.202932  0  0  -0.634714  0  2.192148  0  0  -0.3217  -0.588359  0  2.209443  0
O  O88  1  0.20703405  0.27838958  0.36172416  1  0  -0.676553  0  1.982751  0  0  -0.607752  0  2.202906  0  0  -0.63469  0  2.192108  0  0  -0.32167  -0.588335  0  2.209413  0
O  O89  1  0.70703467  0.22161057  0.13827483  1  0  -0.676504  0  1.982795  0  0  -0.607739  0  2.202924  0  0  -0.634658  0  2.192119  0  0  -0.321652  -0.588317  0  2.209422  0
