# generated using pymatgen
data_AgH8C11N3O4
_symmetry_space_group_name_H-M   'P 1'
_cell_length_a   7.72680168
_cell_length_b   11.70193786
_cell_length_c   12.50820000
_cell_angle_alpha   90.00000000
_cell_angle_beta   93.29772852
_cell_angle_gamma   90.00000000
_symmetry_Int_Tables_number   1
_chemical_formula_structural   AgH8C11N3O4
_chemical_formula_sum   'Ag4 H32 C44 N12 O16'
_cell_volume   1129.10056399
_cell_formula_units_Z   4
loop_
 _symmetry_equiv_pos_site_id
 _symmetry_equiv_pos_as_xyz
  1  'x, y, z'
loop_
 _atom_site_type_symbol
 _atom_site_label
 _atom_site_symmetry_multiplicity
 _atom_site_fract_x
 _atom_site_fract_y
 _atom_site_fract_z
 _atom_site_occupancy
 _atom_site_hle17_bader_spin_density
 _atom_site_hle17_ddec_charge
 _atom_site_hle17_ddec_spin_density
 _atom_site_hle17_ddec_sum_bond_order
 _atom_site_hle17_magmom
 _atom_site_hse06_10hf_bader_spin_density
 _atom_site_hse06_10hf_ddec_charge
 _atom_site_hse06_10hf_ddec_spin_density
 _atom_site_hse06_10hf_ddec_sum_bond_order
 _atom_site_hse06_10hf_magmom
 _atom_site_hse06_bader_spin_density
 _atom_site_hse06_ddec_charge
 _atom_site_hse06_ddec_spin_density
 _atom_site_hse06_ddec_sum_bond_order
 _atom_site_hse06_magmom
 _atom_site_pbe_bader_charge
 _atom_site_pbe_bader_spin_density
 _atom_site_pbe_cm5_charge
 _atom_site_pbe_ddec_charge
 _atom_site_pbe_ddec_spin_density
 _atom_site_pbe_ddec_sum_bond_order
 _atom_site_pbe_magmom
Ag  Ag0  1  0.00277806  0.79841562  0.32148309  1  0  0.517881  0  1.368847  0  0  0.363086  0  1.801282  0  0  0.392645  0  1.75767  0  0.59517  0  0.464227  0.34324  0  1.831311  0
Ag  Ag1  1  0.49722020  0.79841477  0.17851605  1  0  0.51787  0  1.368855  0  0  0.363064  0  1.801256  0  0  0.392621  0  1.757647  0  0.595115  0  0.464224  0.343217  0  1.831286  0
Ag  Ag2  1  0.99722364  0.20158371  0.67851617  1  0  0.51785  0  1.368906  0  0  0.363062  0  1.801305  0  0  0.392619  0  1.757695  0  0.595156  0  0.464217  0.343215  0  1.831335  0
Ag  Ag3  1  0.50277892  0.20158542  0.82148392  1  0  0.51792  0  1.368877  0  0  0.363113  0  1.801295  0  0  0.392669  0  1.757684  0  0.595121  0  0.464237  0.343266  0  1.831326  0
H  H4  1  0.21206878  0.30680389  0.40742635  1  0  0.103609  0  0.991499  0  0  0.108037  0  1.063221  0  0  0.111678  0  1.059733  0  0.163946  0  0.106281  0.105276  0  1.065783  0
H  H5  1  0.28792948  0.30680218  0.09257278  1  0  0.103603  0  0.991487  0  0  0.108027  0  1.063216  0  0  0.111668  0  1.059727  0  0.164413  0  0.106281  0.105266  0  1.065777  0
H  H6  1  0.78793293  0.69319544  0.59257291  1  0  0.1036  0  0.991501  0  0  0.108028  0  1.063222  0  0  0.111669  0  1.059732  0  0.163778  0  0.106283  0.105267  0  1.065783  0
H  H7  1  0.71206963  0.69319715  0.90742718  1  0  0.103652  0  0.99148  0  0  0.1081  0  1.063182  0  0  0.111744  0  1.059688  0  0.164413  0  0.106312  0.10534  0  1.065744  0
H  H8  1  0.43489980  0.46183291  0.40749942  1  0  0.123982  0  0.942799  0  0  0.133909  0  0.999931  0  0  0.137228  0  0.999112  0  0.132256  0  0.113462  0.13151  0  1.000729  0
H  H9  1  0.06509846  0.46183205  0.09250212  1  0  0.123968  0  0.942789  0  0  0.1339  0  0.999914  0  0  0.13722  0  0.999094  0  0.132261  0  0.113462  0.131501  0  1.000712  0
H  H10  1  0.56510191  0.53816642  0.59250064  1  0  0.123975  0  0.942841  0  0  0.133909  0  0.999963  0  0  0.137228  0  0.999144  0  0.132311  0  0.113465  0.131514  0  1.000766  0
H  H11  1  0.93489935  0.53816727  0.90749701  1  0  0.123973  0  0.942877  0  0  0.133905  0  0.999979  0  0  0.137226  0  0.999159  0  0.132307  0  0.113461  0.131505  0  1.000777  0
H  H12  1  0.33697274  0.66367298  0.37384897  1  0  0.07955  0  0.983064  0  0  0.084457  0  1.055581  0  0  0.086699  0  1.052853  0  0.133883  0  0.114195  0.082658  0  1.057711  0
H  H13  1  0.16302682  0.66367127  0.12615182  1  0  0.079552  0  0.9831  0  0  0.084448  0  1.055632  0  0  0.08669  0  1.0529  0  0.133881  0  0.114193  0.082649  0  1.057763  0
H  H14  1  0.66302897  0.33632635  0.62615029  1  0  0.079498  0  0.983091  0  0  0.084414  0  1.055607  0  0  0.086652  0  1.052876  0  0.133885  0  0.114175  0.082615  0  1.057737  0
H  H15  1  0.83697229  0.33632806  0.87384735  1  0  0.079565  0  0.983052  0  0  0.084472  0  1.055557  0  0  0.086716  0  1.052824  0  0.133906  0  0.114203  0.082674  0  1.057687  0
H  H16  1  0.82104801  0.56605240  0.33995055  1  0  0.098317  0  0.944345  0  0  0.107016  0  1.010443  0  0  0.109998  0  1.006453  0  0.168938  0  0.121976  0.104771  0  1.013337  0
H  H17  1  0.67895195  0.56605154  0.16004945  1  0  0.098319  0  0.944338  0  0  0.10701  0  1.010437  0  0  0.109993  0  1.006445  0  0.169139  0  0.121972  0.104765  0  1.013334  0
H  H18  1  0.17895499  0.43394607  0.66004956  1  0  0.098329  0  0.944284  0  0  0.107023  0  1.01038  0  0  0.110004  0  1.006391  0  0.168905  0  0.121977  0.104778  0  1.013274  0
H  H19  1  0.32104716  0.43394949  0.83995052  1  0  0.098291  0  0.944361  0  0  0.106985  0  1.010455  0  0  0.109968  0  1.006465  0  0.169136  0  0.12197  0.104741  0  1.013349  0
H  H20  1  0.09837430  0.02130929  0.20034900  1  0  0.092739  0  0.949372  0  0  0.101302  0  1.013514  0  0  0.103568  0  1.011404  0  0.151989  0  0.119097  0.099562  0  1.015181  0
H  H21  1  0.40162785  0.02130844  0.29964867  1  0  0.09276  0  0.949395  0  0  0.101317  0  1.013534  0  0  0.103592  0  1.011414  0  0.152443  0  0.119113  0.099578  0  1.015198  0
H  H22  1  0.90162611  0.97869175  0.79964941  1  0  0.092784  0  0.94933  0  0  0.101337  0  1.013477  0  0  0.103611  0  1.011359  0  0.152012  0  0.119118  0.099598  0  1.015142  0
H  H23  1  0.59837126  0.97869175  0.70035129  1  0  0.092806  0  0.949351  0  0  0.101363  0  1.01349  0  0  0.103635  0  1.011374  0  0.152457  0  0.119124  0.099624  0  1.015155  0
H  H24  1  0.06243448  0.23100789  0.21952326  1  0  0.117676  0  0.94813  0  0  0.126157  0  1.011521  0  0  0.129202  0  1.010574  0  0.085165  0  0.111185  0.124002  0  1.012274  0
H  H25  1  0.43756508  0.23100704  0.28047432  1  0  0.117632  0  0.948195  0  0  0.126132  0  1.011552  0  0  0.129179  0  1.010604  0  0.085434  0  0.11116  0.123977  0  1.012305  0
H  H26  1  0.93756723  0.76899315  0.78047760  1  0  0.117688  0  0.948132  0  0  0.126175  0  1.011501  0  0  0.129221  0  1.010552  0  0.085171  0  0.111181  0.124019  0  1.012253  0
H  H27  1  0.56243274  0.76899400  0.71952640  1  0  0.117643  0  0.948189  0  0  0.126159  0  1.011523  0  0  0.129207  0  1.010574  0  0.085484  0  0.111174  0.124003  0  1.012276  0
H  H28  1  0.73570067  0.16179542  0.48261334  1  0  0.118478  0  0.994546  0  0  0.119821  0  1.07021  0  0  0.124321  0  1.066274  0  0.152098  0  0.105909  0.116565  0  1.07312  0
H  H29  1  0.76429800  0.16179542  0.01738421  1  0  0.118506  0  0.994492  0  0  0.119814  0  1.070188  0  0  0.124314  0  1.066251  0  0.152124  0  0.105912  0.116559  0  1.073096  0
H  H30  1  0.26429974  0.83820305  0.51738587  1  0  0.118441  0  0.99453  0  0  0.119776  0  1.070205  0  0  0.124276  0  1.066269  0  0.152077  0  0.105901  0.116519  0  1.073115  0
H  H31  1  0.23569982  0.83820561  0.98261651  1  0  0.118481  0  0.994515  0  0  0.119795  0  1.07021  0  0  0.124295  0  1.066273  0  0.152114  0  0.105898  0.116539  0  1.073119  0
H  H32  1  0.80349293  0.95720385  0.46157853  1  0  0.08484  0  0.969963  0  0  0.092868  0  1.033864  0  0  0.094634  0  1.032915  0  0.148001  0  0.115709  0.091453  0  1.034785  0
H  H33  1  0.69650573  0.95720300  0.03841823  1  0  0.08486  0  0.969902  0  0  0.092886  0  1.033803  0  0  0.094658  0  1.032858  0  0.14797  0  0.115711  0.091472  0  1.034724  0
H  H34  1  0.19650877  0.04279548  0.53841993  1  0  0.084826  0  0.96998  0  0  0.092825  0  1.033916  0  0  0.094587  0  1.032968  0  0.147992  0  0.115696  0.091411  0  1.034838  0
H  H35  1  0.30349079  0.04279889  0.96158165  1  0  0.084866  0  0.969923  0  0  0.092894  0  1.033823  0  0  0.094661  0  1.032875  0  0.147919  0  0.115696  0.091479  0  1.034743  0
C  C36  1  0.99911630  0.42448012  0.36805673  1  0  -0.091663  0  3.75932  0  0  -0.071701  0  3.994165  0  0  -0.083899  0  4.020562  0  -0.009125  0  -0.015071  -0.063899  0  3.976588  0
C  C37  1  0.50088496  0.42448183  0.13194171  1  0  -0.091751  0  3.759685  0  0  -0.071822  0  3.994555  0  0  -0.084068  0  4.020985  0  -0.009278  0  -0.015129  -0.064012  0  3.976964  0
C  C38  1  0.00088800  0.57551835  0.63194262  1  0  -0.091816  0  3.759441  0  0  -0.07189  0  3.994312  0  0  -0.084102  0  4.020739  0  -0.009202  0  -0.015166  -0.064088  0  3.976735  0
C  C39  1  0.49911286  0.57551921  0.86805821  1  0  -0.091803  0  3.759824  0  0  -0.071841  0  3.994658  0  0  -0.084077  0  4.021075  0  -0.009264  0  -0.015151  -0.064046  0  3.977084  0
C  C40  1  0.17357905  0.39485939  0.38942233  1  0  -0.016264  0  3.668304  0  0  -0.043393  0  3.916962  0  0  -0.038611  0  3.934989  0  -0.073932  0  -0.056886  -0.04617  0  3.904709  0
C  C41  1  0.32642310  0.39485853  0.11057694  1  0  -0.016178  0  3.668313  0  0  -0.04329  0  3.916959  0  0  -0.038499  0  3.934998  0  -0.074444  0  -0.056863  -0.046072  0  3.904704  0
C  C42  1  0.82642524  0.60513994  0.61057702  1  0  -0.016166  0  3.668352  0  0  -0.043276  0  3.916999  0  0  -0.038489  0  3.93503  0  -0.073751  0  -0.056847  -0.046054  0  3.904747  0
C  C43  1  0.67357602  0.60514251  0.88942302  1  0  -0.016154  0  3.66841  0  0  -0.043317  0  3.91704  0  0  -0.038528  0  3.935074  0  -0.074445  0  -0.056858  -0.046096  0  3.904789  0
C  C44  1  0.29779595  0.48112886  0.39203597  1  0  -0.10382  0  3.6868  0  0  -0.115835  0  3.937758  0  0  -0.124311  0  3.959474  0  -0.013629  0  -0.078054  -0.11052  0  3.923224  0
C  C45  1  0.20220490  0.48112629  0.10796486  1  0  -0.103821  0  3.686796  0  0  -0.115858  0  3.937775  0  0  -0.124335  0  3.959488  0  -0.013603  0  -0.078059  -0.110542  0  3.923242  0
C  C46  1  0.70220835  0.51887218  0.60796418  1  0  -0.103875  0  3.68683  0  0  -0.115905  0  3.937808  0  0  -0.124383  0  3.959523  0  -0.013588  0  -0.078053  -0.110598  0  3.923281  0
C  C47  1  0.79779421  0.51887474  0.89203431  1  0  -0.10392  0  3.686946  0  0  -0.115925  0  3.937906  0  0  -0.124403  0  3.95962  0  -0.003553  0  -0.078085  -0.110608  0  3.923372  0
C  C48  1  0.24469644  0.59331370  0.37375103  1  0  0.136467  0  3.669839  0  0  0.102617  0  3.917629  0  0  0.111039  0  3.936925  0  0.472782  0  0.048803  0.097269  0  3.904447  0
C  C49  1  0.25530182  0.59331284  0.12624970  1  0  0.136494  0  3.669757  0  0  0.102623  0  3.917536  0  0  0.111051  0  3.936823  0  0.471451  0  0.048809  0.097273  0  3.904357  0
C  C50  1  0.75530527  0.40668478  0.62624823  1  0  0.136575  0  3.669693  0  0  0.102721  0  3.917498  0  0  0.111153  0  3.936784  0  0.472783  0  0.048822  0.097372  0  3.904319  0
C  C51  1  0.74469599  0.40668734  0.87374942  1  0  0.136542  0  3.66966  0  0  0.102701  0  3.917453  0  0  0.111126  0  3.936744  0  0.46141  0  0.048835  0.09735  0  3.904273  0
C  C52  1  0.95593122  0.53981743  0.35279195  1  0  0.130869  0  3.636809  0  0  0.086801  0  3.883166  0  0  0.096415  0  3.900923  0  0.451959  0  0.061513  0.080629  0  3.87107  0
C  C53  1  0.54406745  0.53981486  0.14720720  1  0  0.130921  0  3.63694  0  0  0.086846  0  3.883257  0  0  0.096471  0  3.901022  0  0.451949  0  0.061524  0.080669  0  3.871161  0
C  C54  1  0.04407048  0.46018105  0.64720731  1  0  0.130971  0  3.636747  0  0  0.086924  0  3.883104  0  0  0.096544  0  3.900865  0  0.451993  0  0.061572  0.080752  0  3.871009  0
C  C55  1  0.45593167  0.46018617  0.85279277  1  0  0.131049  0  3.636876  0  0  0.086996  0  3.883213  0  0  0.09662  0  3.900974  0  0.451946  0  0.061621  0.080822  0  3.871121  0
C  C56  1  0.02690819  0.05645561  0.26533395  1  0  0.124412  0  3.669251  0  0  0.093919  0  3.91329  0  0  0.099871  0  3.933604  0  0.415843  0  0.048084  0.089965  0  3.899605  0
C  C57  1  0.47309136  0.05645561  0.23466603  1  0  0.124347  0  3.669148  0  0  0.093858  0  3.913198  0  0  0.099804  0  3.933505  0  0.415835  0  0.048064  0.089903  0  3.899515  0
C  C58  1  0.97309481  0.94354458  0.73466455  1  0  0.124371  0  3.669223  0  0  0.093876  0  3.913277  0  0  0.099819  0  3.933592  0  0.415905  0  0.04808  0.089922  0  3.89959  0
C  C59  1  0.52690516  0.94354629  0.76533624  1  0  0.124353  0  3.66919  0  0  0.093831  0  3.913242  0  0  0.099776  0  3.933557  0  0.415932  0  0.048096  0.089876  0  3.899558  0
C  C60  1  0.00536686  0.17393529  0.27647267  1  0  -0.118217  0  3.680579  0  0  -0.138641  0  3.928241  0  0  -0.144629  0  3.949677  0  0.082709  0  -0.073011  -0.134757  0  3.913911  0
C  C61  1  0.49463270  0.17393615  0.22352651  1  0  -0.118116  0  3.680528  0  0  -0.138536  0  3.928187  0  0  -0.144526  0  3.949629  0  0.082586  0  -0.07294  -0.134654  0  3.913861  0
C  C62  1  0.99463484  0.82606574  0.72352899  1  0  -0.118237  0  3.680583  0  0  -0.138658  0  3.928244  0  0  -0.144648  0  3.949679  0  0.082538  0  -0.073007  -0.134774  0  3.913915  0
C  C63  1  0.50536382  0.82606574  0.77647496  1  0  -0.118152  0  3.680594  0  0  -0.138587  0  3.92827  0  0  -0.144576  0  3.949711  0  0.082559  0  -0.072977  -0.134704  0  3.913943  0
C  C64  1  0.90095072  0.21471999  0.35590289  1  0  0.015466  0  3.740244  0  0  0.028991  0  3.971064  0  0  0.028842  0  3.991684  0  -0.094403  0  0.002882  0.029223  0  3.957294  0
C  C65  1  0.59905314  0.21472085  0.14409644  1  0  0.015418  0  3.740359  0  0  0.028922  0  3.971198  0  0  0.028758  0  3.991805  0  -0.094014  0  0.002745  0.029146  0  3.957434  0
C  C66  1  0.09905099  0.78527848  0.64409717  1  0  0.015382  0  3.740253  0  0  0.028905  0  3.971063  0  0  0.028768  0  3.991673  0  -0.094227  0  0.002787  0.029137  0  3.957294  0
C  C67  1  0.40094598  0.78527848  0.85590432  1  0  0.015388  0  3.740411  0  0  0.028895  0  3.971253  0  0  0.028731  0  3.991864  0  -0.094067  0  0.00273  0.029119  0  3.957489  0
C  C68  1  0.82326346  0.13567667  0.42182601  1  0  -0.130902  0  3.706541  0  0  -0.151488  0  3.960329  0  0  -0.157059  0  3.97907  0  0.004089  0  -0.078422  -0.14801  0  3.948111  0
C  C69  1  0.67673520  0.13567838  0.07817314  1  0  -0.130916  0  3.706455  0  0  -0.151468  0  3.960251  0  0  -0.157031  0  3.978982  0  0.004042  0  -0.078419  -0.147991  0  3.948036  0
C  C70  1  0.17673824  0.86432266  0.57817405  1  0  -0.13078  0  3.706485  0  0  -0.151353  0  3.960247  0  0  -0.156924  0  3.97898  0  0.004052  0  -0.078391  -0.147875  0  3.948028  0
C  C71  1  0.32326261  0.86432266  0.92182758  1  0  -0.130896  0  3.706464  0  0  -0.151461  0  3.960262  0  0  -0.157024  0  3.978992  0  0.004076  0  -0.07844  -0.147984  0  3.948048  0
C  C72  1  0.85797953  0.02025220  0.40895371  1  0  0.117977  0  3.688636  0  0  0.089508  0  3.930058  0  0  0.094926  0  3.951353  0  0.434612  0  0.040962  0.085899  0  3.915757  0
C  C73  1  0.64201913  0.02025135  0.09104465  1  0  0.117967  0  3.688521  0  0  0.089491  0  3.929932  0  0  0.094899  0  3.951235  0  0.434794  0  0.04103  0.085882  0  3.91563  0
C  C74  1  0.14202217  0.97974627  0.59104556  1  0  0.117939  0  3.68868  0  0  0.089482  0  3.9301  0  0  0.094906  0  3.95139  0  0.434654  0  0.040987  0.085872  0  3.915798  0
C  C75  1  0.35797868  0.97974969  0.90895607  1  0  0.117947  0  3.688602  0  0  0.089451  0  3.929989  0  0  0.094867  0  3.951284  0  0.434811  0  0.041054  0.085844  0  3.915684  0
C  C76  1  0.85758545  0.33874219  0.36738936  1  0  0.398981  0  3.713423  0  0  0.380223  0  3.968724  0  0  0.401349  0  3.972658  0  0.955184  0  0.171909  0.365744  0  3.966158  0
C  C77  1  0.64239767  0.33874048  0.13261084  1  0  0.398929  0  3.713191  0  0  0.380192  0  3.96849  0  0  0.401377  0  3.972361  0  0.954856  0  0.171969  0.365725  0  3.965901  0
C  C78  1  0.14241496  0.66125800  0.63261146  1  0  0.398968  0  3.713532  0  0  0.38024  0  3.968795  0  0  0.401349  0  3.97277  0  0.95517  0  0.17188  0.365761  0  3.966228  0
C  C79  1  0.35760663  0.66126142  0.86739011  1  0  0.399021  0  3.713194  0  0  0.380292  0  3.968445  0  0  0.40147  0  3.972323  0  0.954521  0  0.17203  0.36583  0  3.965855  0
N  N80  1  0.07609534  0.62276950  0.35513126  1  0  -0.303042  0  3.334409  0  0  -0.208871  0  3.612713  0  0  -0.230781  0  3.630547  0  -1.19641  0  -0.344178  -0.194246  0  3.600374  0
N  N81  1  0.42390551  0.62276865  0.14486957  1  0  -0.303039  0  3.334441  0  0  -0.208787  0  3.612644  0  0  -0.230698  0  3.630476  0  -1.196307  0  -0.344124  -0.194162  0  3.600306  0
N  N82  1  0.92390766  0.37722983  0.64486884  1  0  -0.303049  0  3.334394  0  0  -0.208893  0  3.612724  0  0  -0.230803  0  3.630554  0  -1.196406  0  -0.344165  -0.194268  0  3.600384  0
N  N83  1  0.57609360  0.37723239  0.85512960  1  0  -0.303125  0  3.33439  0  0  -0.208987  0  3.612719  0  0  -0.230899  0  3.630551  0  -1.196307  0  -0.344225  -0.194362  0  3.600383  0
N  N84  1  0.92279151  0.80135360  0.06850005  1  0  0.691996  0  4.138516  0  0  0.720822  0  4.434383  0  0  0.749136  0  4.440481  0  0.806086  0  0.0895  0.715216  0  4.410442  0
N  N85  1  0.57720975  0.80135360  0.43149999  1  0  0.692008  0  4.13848  0  0  0.720789  0  4.434413  0  0  0.749105  0  4.440517  0  0.806094  0  0.08953  0.715229  0  4.41041  0
N  N86  1  0.07721020  0.19864573  0.93150161  1  0  0.691995  0  4.138369  0  0  0.720723  0  4.4344  0  0  0.749037  0  4.440507  0  0.80609  0  0.089527  0.715191  0  4.410361  0
N  N87  1  0.42279065  0.19864573  0.56849922  1  0  0.692038  0  4.138451  0  0  0.720794  0  4.434425  0  0  0.749109  0  4.440527  0  0.80609  0  0.089559  0.715235  0  4.410427  0
N  N88  1  0.95770721  0.98048632  0.33188162  1  0  -0.288032  0  3.32669  0  0  -0.198048  0  3.603332  0  0  -0.217645  0  3.621874  0  -1.205766  0  -0.341831  -0.184721  0  3.590496  0
N  N89  1  0.54229275  0.98048461  0.16811678  1  0  -0.287954  0  3.3265  0  0  -0.197964  0  3.603128  0  0  -0.217562  0  3.621678  0  -1.205841  0  -0.34182  -0.184638  0  3.590292  0
N  N90  1  0.04229320  0.01951386  0.66811679  1  0  -0.287972  0  3.326616  0  0  -0.197966  0  3.603211  0  0  -0.217564  0  3.621758  0  -1.205648  0  -0.341817  -0.184639  0  3.590376  0
N  N91  1  0.45770377  0.01951557  0.83188390  1  0  -0.287983  0  3.326613  0  0  -0.197913  0  3.603158  0  0  -0.217508  0  3.621703  0  -1.206016  0  -0.341824  -0.184586  0  3.590323  0
O  O92  1  0.87592092  0.82962840  0.97386909  1  0  -0.451885  0  1.740054  0  0  -0.440137  0  1.949607  0  0  -0.453664  0  1.94336  0  -0.546861  0  -0.188111  -0.434909  0  1.948092  0
O  O93  1  0.62407904  0.82962840  0.52613171  1  0  -0.451873  0  1.740053  0  0  -0.440125  0  1.949657  0  0  -0.453641  0  1.943391  0  -0.546872  0  -0.188102  -0.434911  0  1.948123  0
O  O94  1  0.12408078  0.17037178  0.02613257  1  0  -0.451826  0  1.740064  0  0  -0.440074  0  1.949672  0  0  -0.45359  0  1.943405  0  -0.546917  0  -0.188096  -0.43487  0  1.948126  0
O  O95  1  0.37592007  0.17037093  0.47386826  1  0  -0.451856  0  1.740095  0  0  -0.440102  0  1.949685  0  0  -0.453621  0  1.943427  0  -0.546896  0  -0.188116  -0.43489  0  1.948152  0
O  O96  1  0.06465900  0.83956693  0.11224474  1  0  -0.494768  0  1.792864  0  0  -0.473915  0  2.031853  0  0  -0.489576  0  2.020036  0  -0.572527  0  -0.200909  -0.467442  0  2.034506  0
O  O97  1  0.43534055  0.83956693  0.38775525  1  0  -0.494807  0  1.792763  0  0  -0.473958  0  2.031788  0  0  -0.489623  0  2.019975  0  -0.572525  0  -0.200964  -0.467499  0  2.034421  0
O  O98  1  0.93534140  0.16043240  0.88775767  1  0  -0.494827  0  1.792746  0  0  -0.473918  0  2.031758  0  0  -0.489577  0  2.019938  0  -0.5725  0  -0.200939  -0.467474  0  2.034387  0
O  O99  1  0.56465986  0.16043240  0.61224477  1  0  -0.494835  0  1.792764  0  0  -0.473975  0  2.031795  0  0  -0.489637  0  2.01998  0  -0.572541  0  -0.200964  -0.467517  0  2.034432  0
O  O100  1  0.82973092  0.73496459  0.12206383  1  0  -0.504093  0  1.780603  0  0  -0.48877  0  2.032004  0  0  -0.504067  0  2.019797  0  -0.555672  0  -0.213342  -0.482374  0  2.034806  0
O  O101  1  0.67026775  0.73496459  0.37793612  1  0  -0.504086  0  1.780638  0  0  -0.488738  0  2.032055  0  0  -0.504031  0  2.019836  0  -0.555449  0  -0.213335  -0.482359  0  2.034841  0
O  O102  1  0.17026819  0.26503388  0.87793694  1  0  -0.504088  0  1.780619  0  0  -0.488737  0  2.032073  0  0  -0.504034  0  2.019859  0  -0.55564  0  -0.213351  -0.482366  0  2.034849  0
O  O103  1  0.32973266  0.26503388  0.62206309  1  0  -0.504114  0  1.780668  0  0  -0.488749  0  2.032094  0  0  -0.50404  0  2.019869  0  -0.555407  0  -0.213349  -0.482369  0  2.034882  0
O  O104  1  0.70527031  0.36715286  0.37734754  1  0  -0.450541  0  1.932663  0  0  -0.408727  0  2.142473  0  0  -0.427314  0  2.142003  0  -1.086551  0  -0.245873  -0.395917  0  2.142698  0
O  O105  1  0.79474262  0.36715628  0.12264812  1  0  -0.450629  0  1.932168  0  0  -0.408792  0  2.141917  0  0  -0.4274  0  2.141421  0  -1.085948  0  -0.245945  -0.395991  0  2.142142  0
O  O106  1  0.29473269  0.63284646  0.62265176  1  0  -0.450531  0  1.932695  0  0  -0.408725  0  2.14247  0  0  -0.427305  0  2.142011  0  -1.086583  0  -0.245837  -0.395918  0  2.142701  0
O  O107  1  0.20525260  0.63284390  0.87735411  1  0  -0.45072  0  1.932022  0  0  -0.408902  0  2.141778  0  0  -0.42751  0  2.141285  0  -1.085656  0  -0.246013  -0.396099  0  2.141996  0
