# generated using pymatgen
data_ZnFe2H32C35S(NO)4
_symmetry_space_group_name_H-M   'P 1'
_cell_length_a   11.74229347
_cell_length_b   12.62451634
_cell_length_c   13.53147479
_cell_angle_alpha   72.00597138
_cell_angle_beta   89.79937230
_cell_angle_gamma   69.77491315
_symmetry_Int_Tables_number   1
_chemical_formula_structural   ZnFe2H32C35S(NO)4
_chemical_formula_sum   'Zn2 Fe4 H64 C70 S2 N8 O8'
_cell_volume   1778.14115844
_cell_formula_units_Z   2
loop_
 _symmetry_equiv_pos_site_id
 _symmetry_equiv_pos_as_xyz
  1  'x, y, z'
loop_
 _atom_site_type_symbol
 _atom_site_label
 _atom_site_symmetry_multiplicity
 _atom_site_fract_x
 _atom_site_fract_y
 _atom_site_fract_z
 _atom_site_occupancy
 _atom_site_pbe_bader_charge
 _atom_site_pbe_bader_spin_density
 _atom_site_pbe_cm5_charge
 _atom_site_pbe_ddec_charge
 _atom_site_pbe_ddec_spin_density
 _atom_site_pbe_ddec_sum_bond_order
 _atom_site_pbe_magmom
Zn  Zn0  1  0.12631365  0.92667108  0.70312629  1  1.248671  0  0.690461  0.741889  0  2.399604  0
Zn  Zn1  1  0.87368820  0.07332509  0.29687314  1  1.248744  0  0.690469  0.741924  0  2.399585  0
Fe  Fe2  1  0.17898460  0.36360153  0.67198358  1  0.720395  0  0.531197  0.219044  0  4.031255  0
Fe  Fe3  1  0.82100714  0.63640367  0.32801763  1  0.720442  0  0.531233  0.219036  0  4.031175  0
Fe  Fe4  1  0.70017709  0.82364544  0.74382846  1  0.720162  0  0.524664  0.220065  0  3.996254  0
Fe  Fe5  1  0.29982567  0.17635523  0.25617481  1  0.720044  0  0.524646  0.220069  0  3.996189  0
H  H6  1  0.27610855  0.85584869  0.13036300  1  0.451812  0  0.320938  0.273411  0  0.925142  0
H  H7  1  0.72390262  0.14414292  0.86963480  1  0.451744  0  0.321072  0.273649  0  0.924997  0
H  H8  1  0.10937565  0.23315473  0.85496741  1  0.098889  0  0.113109  0.135029  0  0.973828  0
H  H9  1  0.89061559  0.76686121  0.14503432  1  0.098735  0  0.113115  0.135057  0  0.973725  0
H  H10  1  0.30898734  0.29135606  0.86962910  1  0.104671  0  0.105659  0.120619  0  1.007084  0
H  H11  1  0.69100899  0.70865530  0.13036585  1  0.104587  0  0.105658  0.1206  0  1.007074  0
H  H12  1  0.25950369  0.51674501  0.73843829  1  0.122315  0  0.105316  0.123844  0  1.004723  0
H  H13  1  0.74049212  0.48326542  0.26155397  1  0.122283  0  0.105359  0.123902  0  1.004604  0
H  H14  1  0.02692707  0.59989467  0.64478308  1  0.088532  0  0.107497  0.126618  0  1.004191  0
H  H15  1  0.97306634  0.40011765  0.35521676  1  0.088639  0  0.107524  0.126632  0  1.00429  0
H  H16  1  0.93417146  0.42400682  0.71822618  1  0.102939  0  0.10869  0.130779  0  0.994292  0
H  H17  1  0.06581518  0.57601006  0.28177603  1  0.102905  0  0.108702  0.130835  0  0.994278  0
H  H18  1  0.04502206  0.32229724  0.52545679  1  0.093618  0  0.106728  0.119449  0  1.03036  0
H  H19  1  0.95497026  0.67769465  0.47455352  1  0.093687  0  0.106688  0.11945  0  1.030243  0
H  H20  1  0.13264243  0.50058829  0.45814155  1  0.115872  0  0.104944  0.116954  0  1.035021  0
H  H21  1  0.86734689  0.49940253  0.54185135  1  0.115782  0  0.105003  0.117002  0  1.035017  0
H  H22  1  0.36094054  0.42315843  0.55885839  1  0.101724  0  0.102578  0.119527  0  1.023577  0
H  H23  1  0.63904757  0.57684042  0.44113141  1  0.101433  0  0.102648  0.119546  0  1.023554  0
H  H24  1  0.41350866  0.19522084  0.68766882  1  0.087809  0  0.111149  0.137575  0  0.995359  0
H  H25  1  0.58648114  0.80478266  0.31233881  1  0.087777  0  0.111179  0.137554  0  0.995456  0
H  H26  1  0.52270058  0.73039815  0.83131727  1  0.059659  0  0.101866  0.117968  0  1.018791  0
H  H27  1  0.47730310  0.26960700  0.16868689  1  0.059626  0  0.101879  0.118049  0  1.018782  0
H  H28  1  0.69705516  0.60341801  0.73673649  1  0.082936  0  0.095842  0.116707  0  1.040187  0
H  H29  1  0.30294784  0.39657731  0.26326835  1  0.082558  0  0.095826  0.116688  0  1.040268  0
H  H30  1  0.91272909  0.61586329  0.79161510  1  0.120722  0  0.100645  0.126801  0  1.035405  0
H  H31  1  0.08727719  0.38413473  0.20839263  1  0.120758  0  0.100652  0.126768  0  1.035442  0
H  H32  1  0.87138532  0.75279615  0.91756873  1  0.092868  0  0.107334  0.127441  0  0.992903  0
H  H33  1  0.12861914  0.24720452  0.08243527  1  0.092486  0  0.107408  0.127565  0  0.992843  0
H  H34  1  0.63067085  0.82358531  0.94169948  1  0.076593  0  0.105335  0.118686  0  0.999448  0
H  H35  1  0.36933736  0.17641443  0.05830478  1  0.076656  0  0.10535  0.118747  0  0.999414  0
H  H36  1  0.62943841  0.05241130  0.75997906  1  0.064625  0  0.103533  0.120136  0  1.016724  0
H  H37  1  0.37057225  0.94758402  0.24003094  1  0.064455  0  0.103538  0.120151  0  1.016803  0
H  H38  1  0.46655566  0.99656008  0.66566664  1  0.114375  0  0.102978  0.129825  0  1.047766  0
H  H39  1  0.53344663  0.00344421  0.33433999  1  0.114477  0  0.102971  0.129846  0  1.047815  0
H  H40  1  0.58702534  0.87119350  0.54111833  1  0.085623  0  0.104807  0.125679  0  1.015425  0
H  H41  1  0.41297157  0.12881620  0.45888892  1  0.085504  0  0.104777  0.125604  0  1.015487  0
H  H42  1  0.82507171  0.84606888  0.56341037  1  0.098872  0  0.107269  0.135029  0  1.007337  0
H  H43  1  0.17492823  0.15392551  0.43658885  1  0.098806  0  0.107275  0.135015  0  1.007476  0
H  H44  1  0.30062426  0.87991414  0.88676438  1  0.147716  0  0.117239  0.102974  0  1.032526  0
H  H45  1  0.69940220  0.12007291  0.11323546  1  0.14719  0  0.117228  0.102966  0  1.032495  0
H  H46  1  0.32940473  0.53596519  0.10442179  1  0.132011  0  0.102858  0.108646  0  1.04072  0
H  H47  1  0.67058520  0.46403098  0.89557027  1  0.131911  0  0.102882  0.108673  0  1.040793  0
H  H48  1  0.17981443  0.52806129  0.97731859  1  0.109057  0  0.115052  0.131835  0  0.98443  0
H  H49  1  0.82017555  0.47194646  0.02266930  1  0.108922  0  0.11505  0.131899  0  0.984421  0
H  H50  1  0.09341052  0.70347808  0.81163002  1  0.112487  0  0.122076  0.096771  0  0.996318  0
H  H51  1  0.90659280  0.29653045  0.18835688  1  0.112365  0  0.122056  0.09672  0  0.99636  0
H  H52  1  0.47874445  0.63708929  0.12798208  1  0.087494  0  0.107095  0.097107  0  1.007618  0
H  H53  1  0.52126493  0.36289790  0.87201924  1  0.087684  0  0.107125  0.097128  0  1.007699  0
H  H54  1  0.45381803  0.78451776  0.04155498  1  0.03184  0  0.108592  0.086384  0  0.974467  0
H  H55  1  0.54619116  0.21546761  0.95844319  1  0.031206  0  0.108558  0.086326  0  0.974554  0
H  H56  1  0.22695442  0.61540691  0.41990788  1  0.087659  0  0.103626  0.087781  0  1.041785  0
H  H57  1  0.77305353  0.38458653  0.58009160  1  0.087767  0  0.103619  0.087785  0  1.04178  0
H  H58  1  0.09519053  0.74981754  0.39764791  1  0.07522  0  0.111645  0.099725  0  1.004312  0
H  H59  1  0.90480723  0.25017587  0.60234199  1  0.075208  0  0.111627  0.099685  0  1.004354  0
H  H60  1  0.39340196  0.83861334  0.68013132  1  0.111846  0  0.118343  0.087265  0  1.030789  0
H  H61  1  0.60659683  0.16138189  0.31986321  1  0.11165  0  0.118352  0.087272  0  1.030731  0
H  H62  1  0.53260305  0.71525622  0.58272659  1  0.073415  0  0.109873  0.119181  0  1.006773  0
H  H63  1  0.46739617  0.28473549  0.41727194  1  0.073362  0  0.109915  0.119283  0  1.006881  0
H  H64  1  0.43863770  0.65664028  0.45137540  1  0.11345  0  0.099765  0.101352  0  1.045708  0
H  H65  1  0.56135488  0.34335329  0.54862555  1  0.113584  0  0.099744  0.101272  0  1.045656  0
H  H66  1  0.08519441  0.84113399  0.52986426  1  0.107161  0  0.121242  0.103682  0  1.00637  0
H  H67  1  0.91479703  0.15887205  0.47013153  1  0.107207  0  0.12121  0.103638  0  1.006604  0
H  H68  1  0.18134679  0.85223622  0.25967989  1  0.515956  0  0.296971  0.271107  0  1.025628  0
H  H69  1  0.81866831  0.14775629  0.74032059  1  0.516005  0  0.296961  0.271076  0  1.025574  0
C  C70  1  0.11702387  0.31903187  0.81465284  1  -0.124206  0  -0.148877  -0.131798  0  3.981188  0
C  C71  1  0.88296834  0.68098140  0.18535042  1  -0.123833  0  -0.148976  -0.131923  0  3.980928  0
C  C72  1  0.22273865  0.34963213  0.82209034  1  -0.173777  0  -0.153399  -0.131071  0  3.993194  0
C  C73  1  0.77725554  0.65037571  0.17790934  1  -0.174201  0  -0.153373  -0.13103  0  3.993114  0
C  C74  1  0.19621493  0.46938017  0.75300510  1  -0.186156  0  -0.157199  -0.148778  0  4.008159  0
C  C75  1  0.80377948  0.53062942  0.24699111  1  -0.186137  0  -0.157234  -0.148795  0  4.007916  0
C  C76  1  0.07378219  0.51266503  0.70261640  1  -0.175665  0  -0.1589  -0.152811  0  4.00821  0
C  C77  1  0.92621510  0.48734367  0.29738154  1  -0.175338  0  -0.158932  -0.152856  0  4.008096  0
C  C78  1  0.02485059  0.41952627  0.74088405  1  -0.178337  0  -0.153492  -0.138939  0  3.983585  0
C  C79  1  0.97514122  0.58048342  0.25911879  1  -0.178369  0  -0.153447  -0.138921  0  3.983482  0
C  C80  1  0.13452650  0.31913324  0.54912364  1  -0.150615  0  -0.151983  -0.163283  0  3.985301  0
C  C81  1  0.86545962  0.68086401  0.45088288  1  -0.150874  0  -0.151889  -0.16326  0  3.98495  0
C  C82  1  0.18194697  0.41253579  0.51351439  1  -0.17867  0  -0.152451  -0.133921  0  3.988658  0
C  C83  1  0.81804219  0.58745778  0.48648508  1  -0.178229  0  -0.152573  -0.134072  0  3.98895  0
C  C84  1  0.30262471  0.37104273  0.56664244  1  -0.166086  0  -0.153052  -0.139168  0  3.996083  0
C  C85  1  0.69736709  0.62895530  0.43335720  1  -0.166065  0  -0.153057  -0.139035  0  3.995889  0
C  C86  1  0.33017240  0.25122971  0.63531669  1  -0.159298  0  -0.149107  -0.155122  0  3.942984  0
C  C87  1  0.66982139  0.74877456  0.36468257  1  -0.158986  0  -0.14917  -0.15523  0  3.943138  0
C  C88  1  0.22603321  0.21828532  0.62424595  1  -0.061865  0  -0.083135  -0.082093  0  4.003108  0
C  C89  1  0.77395277  0.78172169  0.37575400  1  -0.062177  0  -0.083093  -0.081897  0  4.003125  0
C  C90  1  0.21289545  0.10278277  0.67874793  1  1.539261  0  0.201187  0.583761  0  4.218922  0
C  C91  1  0.78708584  0.89722073  0.32125455  1  1.539512  0  0.200949  0.583457  0  4.219321  0
C  C92  1  0.61921059  0.71708614  0.83830086  1  -0.122354  0  -0.159754  -0.15028  0  4.001896  0
C  C93  1  0.38079458  0.28291724  0.16170604  1  -0.122393  0  -0.159751  -0.150405  0  4.00185  0
C  C94  1  0.71141061  0.65038438  0.78795340  1  -0.164476  0  -0.160236  -0.149076  0  4.009679  0
C  C95  1  0.28859437  0.34961721  0.21205328  1  -0.164367  0  -0.160243  -0.148993  0  4.009839  0
C  C96  1  0.82562009  0.65669325  0.81728597  1  -0.172645  0  -0.160681  -0.147929  0  3.986035  0
C  C97  1  0.17438466  0.34331366  0.18271692  1  -0.172672  0  -0.160724  -0.147997  0  3.986188  0
C  C98  1  0.80399520  0.72787855  0.88483368  1  -0.15259  0  -0.15365  -0.136  0  3.992607  0
C  C99  1  0.19600902  0.27212747  0.11516947  1  -0.152075  0  -0.153675  -0.136072  0  3.992694  0
C  C100  1  0.67651077  0.76525337  0.89774707  1  -0.177488  0  -0.157305  -0.142168  0  4.017836  0
C  C101  1  0.32349497  0.23475084  0.10225441  1  -0.177384  0  -0.157313  -0.142218  0  4.017842  0
C  C102  1  0.64844279  0.00310374  0.70498468  1  -0.140966  0  -0.156661  -0.163632  0  3.986237  0
C  C103  1  0.35157459  0.99689418  0.29502232  1  -0.152457  0  -0.156696  -0.163659  0  3.986436  0
C  C104  1  0.56242802  0.97456883  0.65353369  1  -0.152542  0  -0.155683  -0.143573  0  3.983993  0
C  C105  1  0.43757750  0.02543361  0.34646904  1  -0.141184  0  -0.155694  -0.1436  0  3.984203  0
C  C106  1  0.62667840  0.90668967  0.58961976  1  -0.145973  0  -0.150158  -0.127923  0  3.975394  0
C  C107  1  0.37332199  0.09331284  0.41038666  1  -0.145395  0  -0.150116  -0.127829  0  3.975321  0
C  C108  1  0.75208159  0.89298899  0.60098164  1  -0.10995  0  -0.148582  -0.148204  0  3.946614  0
C  C109  1  0.24792051  0.10701348  0.39902257  1  -0.110226  0  -0.148597  -0.148207  0  3.946805  0
C  C110  1  0.76638717  0.95278366  0.67242250  1  -0.109793  0  -0.092385  -0.102  0  4.040473  0
C  C111  1  0.23362362  0.04720896  0.32758608  1  -0.109505  0  -0.092324  -0.101924  0  4.040097  0
C  C112  1  0.88422259  0.95256140  0.70962044  1  1.541977  0  0.20057  0.587748  0  4.213805  0
C  C113  1  0.11578494  0.04742849  0.29038157  1  1.542205  0  0.200673  0.587785  0  4.213668  0
C  C114  1  0.27583991  0.80056984  0.91244768  1  0.416587  0  0.04511  0.021825  0  3.916258  0
C  C115  1  0.72417670  0.19942086  0.08755259  1  0.41735  0  0.04509  0.021781  0  3.916186  0
C  C116  1  0.32611928  0.70916517  0.00726441  1  0.007815  0  -0.005317  0.048408  0  3.95468  0
C  C117  1  0.67388420  0.29082652  0.99273560  1  0.007207  0  -0.005346  0.048533  0  3.95411  0
C  C118  1  0.29155377  0.60916784  0.03109475  1  -0.065828  0  -0.06084  -0.065436  0  3.889854  0
C  C119  1  0.70843926  0.39082919  0.96889630  1  -0.065594  0  -0.06072  -0.065289  0  3.889706  0
C  C120  1  0.20771862  0.60506447  0.96095031  1  0.039182  0  -0.076078  -0.111347  0  3.950722  0
C  C121  1  0.79228017  0.39493076  0.03904348  1  0.039461  0  -0.076162  -0.111746  0  3.950934  0
C  C122  1  0.15999480  0.70125285  0.86899734  1  0.403856  0  0.049817  0.08344  0  3.926436  0
C  C123  1  0.84001464  0.29874585  0.13099467  1  0.40383  0  0.049818  0.083632  0  3.926503  0
C  C124  1  0.40866267  0.72353424  0.08359652  1  0.347731  0  -0.0559  -0.055587  0  3.961917  0
C  C125  1  0.59134889  0.27644931  0.91640070  1  0.347907  0  -0.05581  -0.055471  0  3.962018  0
C  C126  1  0.31881412  0.70074791  0.25227874  1  0.874907  0  0.230203  0.376815  0  4.170067  0
C  C127  1  0.68119236  0.29924021  0.74772379  1  0.874892  0  0.230222  0.376804  0  4.170085  0
C  C128  1  0.19512323  0.71294235  0.39997474  1  0.325467  0  -0.056127  -0.065474  0  3.938321  0
C  C129  1  0.80488003  0.28705464  0.60001927  1  0.325334  0  -0.056047  -0.065446  0  3.937952  0
C  C130  1  0.35774307  0.80897639  0.62358551  1  0.432868  0  0.048041  0.084416  0  3.919989  0
C  C131  1  0.64225571  0.19101887  0.37641123  1  0.43331  0  0.048069  0.084487  0  3.919586  0
C  C132  1  0.43393896  0.74195032  0.56850670  1  0.031097  0  -0.078508  -0.100724  0  3.95251  0
C  C133  1  0.56605832  0.25803967  0.43149678  1  0.031191  0  -0.078558  -0.101051  0  3.952819  0
C  C134  1  0.38194194  0.70937478  0.49597802  1  -0.036377  0  -0.061185  -0.060105  0  3.893679  0
C  C135  1  0.61805149  0.29061876  0.50402146  1  -0.036595  0  -0.061175  -0.059842  0  3.89372  0
C  C136  1  0.25468688  0.74437461  0.47996964  1  -0.01922  0  -0.001904  0.056745  0  3.932539  0
C  C137  1  0.74530717  0.25562428  0.52002899  1  -0.019728  0  -0.001888  0.056792  0  3.932293  0
C  C138  1  0.18476931  0.81082532  0.53874532  1  0.477439  0  0.049106  0.040064  0  3.887243  0
C  C139  1  0.81522707  0.18917886  0.46124805  1  0.478128  0  0.049158  0.040086  0  3.887218  0
S  S140  1  0.40551039  0.55428123  0.30598274  1  -0.234643  0  -0.224082  -0.484424  0  2.132775  0
S  S141  1  0.59449802  0.44570862  0.69401558  1  -0.23435  0  -0.224087  -0.484473  0  2.132785  0
N  N142  1  0.19423691  0.79689879  0.84519326  1  -1.23619  0  -0.329322  -0.221514  0  3.624176  0
N  N143  1  0.80577757  0.20309545  0.15480227  1  -1.236016  0  -0.329288  -0.221522  0  3.624265  0
N  N144  1  0.33987329  0.77155740  0.15970268  1  -1.194714  0  -0.426781  -0.343307  0  3.532148  0
N  N145  1  0.66013917  0.22843067  0.84029985  1  -1.194391  0  -0.426982  -0.343641  0  3.532381  0
N  N146  1  0.22523417  0.76036182  0.29555446  1  -1.241099  0  -0.419467  -0.321667  0  3.563087  0
N  N147  1  0.77477259  0.23963253  0.70444622  1  -1.241281  0  -0.419526  -0.321621  0  3.56281  0
N  N148  1  0.23540298  0.84197741  0.60933584  1  -1.24634  0  -0.331117  -0.225552  0  3.589408  0
N  N149  1  0.76459844  0.15802227  0.39065811  1  -1.246797  0  -0.331232  -0.225645  0  3.58927  0
O  O150  1  0.10977691  0.09482623  0.65347686  1  -1.156259  0  -0.336388  -0.546883  0  2.295096  0
O  O151  1  0.89021051  0.90517450  0.34652125  1  -1.156156  0  -0.336264  -0.546743  0  2.295182  0
O  O152  1  0.29847299  0.01780929  0.74157989  1  -1.197394  0  -0.325704  -0.562047  0  2.136765  0
O  O153  1  0.70150370  0.98219515  0.25842305  1  -1.1978  0  -0.325668  -0.562014  0  2.136658  0
O  O154  1  0.97624703  0.90435039  0.66452555  1  -1.174407  0  -0.333636  -0.549601  0  2.317862  0
O  O155  1  0.02375591  0.09564044  0.33547693  1  -1.174619  0  -0.333679  -0.549672  0  2.317778  0
O  O156  1  0.89310135  0.99772127  0.77940313  1  -1.191275  0  -0.341889  -0.578644  0  2.129052  0
O  O157  1  0.10690339  0.00227398  0.22059582  1  -1.191305  0  -0.341979  -0.578698  0  2.129115  0
