# generated using pymatgen
data_KH21C24S2O9
_symmetry_space_group_name_H-M   'P 1'
_cell_length_a   5.58273360
_cell_length_b   18.92080099
_cell_length_c   23.48992100
_cell_angle_alpha   89.99922401
_cell_angle_beta   89.99950849
_cell_angle_gamma   89.99888461
_symmetry_Int_Tables_number   1
_chemical_formula_structural   KH21C24S2O9
_chemical_formula_sum   'K4 H84 C96 S8 O36'
_cell_volume   2481.23545490
_cell_formula_units_Z   4
loop_
 _symmetry_equiv_pos_site_id
 _symmetry_equiv_pos_as_xyz
  1  'x, y, z'
loop_
 _atom_site_type_symbol
 _atom_site_label
 _atom_site_symmetry_multiplicity
 _atom_site_fract_x
 _atom_site_fract_y
 _atom_site_fract_z
 _atom_site_occupancy
 _atom_site_pbe_bader_charge
 _atom_site_pbe_bader_spin_density
 _atom_site_pbe_cm5_charge
 _atom_site_pbe_ddec_charge
 _atom_site_pbe_ddec_spin_density
 _atom_site_pbe_ddec_sum_bond_order
 _atom_site_pbe_magmom
K  K0  1  0.35542702  0.09187992  0.68986261  1  0.899839  0  0.766794  0.886721  0  0.61531  0
K  K1  1  0.85541985  0.90813396  0.31014202  1  0.899838  0  0.766823  0.886708  0  0.615346  0
K  K2  1  0.85548057  0.59188689  0.81013186  1  0.899824  0  0.766798  0.886719  0  0.615365  0
K  K3  1  0.35542363  0.40813227  0.18986000  1  0.899841  0  0.766805  0.886721  0  0.615381  0
H  H4  1  0.92566844  0.78676288  0.40434827  1  0.64634  0  0.294145  0.342925  0  1.003485  0
H  H5  1  0.42566337  0.21324469  0.59565635  1  0.646296  0  0.294157  0.342913  0  1.003358  0
H  H6  1  0.42565900  0.28676102  0.09565183  1  0.6463  0  0.294179  0.342909  0  1.003404  0
H  H7  1  0.92568715  0.71323915  0.90434641  1  0.646374  0  0.294038  0.342772  0  1.003708  0
H  H8  1  0.83028560  0.17985402  0.63019783  1  0.631158  0  0.298756  0.378085  0  0.952722  0
H  H9  1  0.33027408  0.82014312  0.36980042  1  0.631246  0  0.298714  0.378042  0  0.952793  0
H  H10  1  0.33029090  0.67985742  0.86979793  1  0.631333  0  0.298721  0.377996  0  0.952862  0
H  H11  1  0.83029386  0.32015029  0.13019990  1  0.631276  0  0.298868  0.378356  0  0.952395  0
H  H12  1  0.05365907  0.22956446  0.64051887  1  0.632677  0  0.283251  0.36539  0  0.987533  0
H  H13  1  0.55365193  0.77043198  0.35948327  1  0.632907  0  0.28325  0.365394  0  0.987514  0
H  H14  1  0.55366801  0.72956596  0.85948790  1  0.632941  0  0.283263  0.365381  0  0.987547  0
H  H15  1  0.05364836  0.27043260  0.14051168  1  0.63289  0  0.283282  0.365431  0  0.987457  0
H  H16  1  0.24537559  0.71135600  0.79211155  1  0.646531  0  0.302908  0.366013  0  0.963156  0
H  H17  1  0.74541242  0.28863434  0.20789183  1  0.647235  0  0.302969  0.366204  0  0.962857  0
H  H18  1  0.74539360  0.21136024  0.70789469  1  0.647222  0  0.302967  0.365929  0  0.963273  0
H  H19  1  0.24538187  0.78862799  0.29210401  1  0.647342  0  0.302978  0.366162  0  0.963078  0
H  H20  1  0.05319066  0.21953271  0.04929433  1  0.635425  0  0.297664  0.33702  0  0.99627  0
H  H21  1  0.55321577  0.78045528  0.95070738  1  0.635446  0  0.297519  0.337084  0  0.996066  0
H  H22  1  0.55320766  0.71953862  0.45069607  1  0.635368  0  0.297579  0.336975  0  0.996489  0
H  H23  1  0.05319518  0.28046470  0.54930777  1  0.635321  0  0.297545  0.336944  0  0.996339  0
H  H24  1  0.32378414  0.92013028  0.46022334  1  0.097453  0  0.10664  0.120742  0  1.022835  0
H  H25  1  0.82378907  0.07987694  0.53976597  1  0.097926  0  0.106561  0.120608  0  1.022839  0
H  H26  1  0.82379044  0.42012987  0.03976227  1  0.097872  0  0.106511  0.120554  0  1.022864  0
H  H27  1  0.32381502  0.57986890  0.96024024  1  0.097772  0  0.106551  0.12066  0  1.022915  0
H  H28  1  0.24453513  0.97571312  0.55479061  1  0.116634  0  0.110131  0.116357  0  1.015233  0
H  H29  1  0.74456732  0.02429360  0.44520596  1  0.116554  0  0.110106  0.116352  0  1.015207  0
H  H30  1  0.74451711  0.47571382  0.94519859  1  0.116748  0  0.110104  0.116279  0  1.015322  0
H  H31  1  0.24455131  0.52428445  0.05479968  1  0.116582  0  0.110143  0.116408  0  1.015249  0
H  H32  1  0.54770263  0.87678812  0.55861445  1  0.088004  0  0.107609  0.109609  0  1.012779  0
H  H33  1  0.04768769  0.12322211  0.44139067  1  0.087994  0  0.107587  0.109606  0  1.012736  0
H  H34  1  0.04769089  0.37679235  0.94139074  1  0.088076  0  0.107582  0.109598  0  1.012734  0
H  H35  1  0.54769227  0.62320836  0.05861012  1  0.088157  0  0.107543  0.109456  0  1.012668  0
H  H36  1  0.62607921  0.82292931  0.46534730  1  0.094924  0  0.109325  0.119229  0  1.058691  0
H  H37  1  0.12606406  0.17707350  0.53465397  1  0.094869  0  0.109293  0.11929  0  1.058601  0
H  H38  1  0.12608113  0.32292715  0.03465981  1  0.094822  0  0.10934  0.119338  0  1.058616  0
H  H39  1  0.62608901  0.67706931  0.96534061  1  0.094821  0  0.109317  0.119301  0  1.05857  0
H  H40  1  0.58994684  0.82947055  0.65505882  1  0.09541  0  0.105807  0.106454  0  1.015086  0
H  H41  1  0.08995942  0.17053040  0.34494543  1  0.095355  0  0.105788  0.10636  0  1.015266  0
H  H42  1  0.08995249  0.32946300  0.84494643  1  0.095917  0  0.105841  0.106458  0  1.015335  0
H  H43  1  0.58993586  0.67053161  0.15505102  1  0.095797  0  0.105798  0.106405  0  1.015261  0
H  H44  1  0.69850374  0.72362993  0.71157812  1  0.061978  0  0.11089  0.122858  0  1.002274  0
H  H45  1  0.19852376  0.27637500  0.28842356  1  0.061969  0  0.11087  0.122745  0  1.002351  0
H  H46  1  0.19850431  0.22362312  0.78842916  1  0.061775  0  0.110839  0.122698  0  1.002292  0
H  H47  1  0.69848735  0.77637706  0.21156997  1  0.061696  0  0.11088  0.122744  0  1.002296  0
H  H48  1  0.36757573  0.82183774  0.75811461  1  0.107863  0  0.104025  0.114758  0  1.041622  0
H  H49  1  0.86759077  0.17816548  0.24188491  1  0.107672  0  0.104025  0.114785  0  1.041575  0
H  H50  1  0.86755916  0.32182283  0.74188223  1  0.107708  0  0.104003  0.114769  0  1.041662  0
H  H51  1  0.36755181  0.67815872  0.25812070  1  0.108085  0  0.103996  0.114602  0  1.041412  0
H  H52  1  0.26202277  0.92739824  0.70087330  1  0.119618  0  0.110391  0.110083  0  1.025821  0
H  H53  1  0.76203747  0.07260467  0.29912752  1  0.119565  0  0.110419  0.11016  0  1.02584  0
H  H54  1  0.76200943  0.42739050  0.79912491  1  0.119845  0  0.110434  0.110256  0  1.02591  0
H  H55  1  0.26200245  0.57260078  0.20087931  1  0.119807  0  0.110421  0.110113  0  1.026004  0
H  H56  1  0.50729432  0.85369993  0.82981951  1  0.033831  0  0.097657  0.105232  0  1.051513  0
H  H57  1  0.00728075  0.14630001  0.17017412  1  0.033814  0  0.097702  0.105313  0  1.051373  0
H  H58  1  0.00727438  0.35370995  0.67017891  1  0.033846  0  0.097675  0.105298  0  1.051284  0
H  H59  1  0.50727741  0.64630374  0.32982665  1  0.033782  0  0.097693  0.105249  0  1.051383  0
H  H60  1  0.63977069  0.97114435  0.79337805  1  0.116626  0  0.109529  0.121118  0  1.022319  0
H  H61  1  0.13976956  0.02886206  0.20661683  1  0.116742  0  0.109593  0.121168  0  1.022333  0
H  H62  1  0.13969629  0.47114102  0.70661423  1  0.117095  0  0.109614  0.121157  0  1.022475  0
H  H63  1  0.63973469  0.52885535  0.29338874  1  0.117251  0  0.1096  0.121193  0  1.022469  0
H  H64  1  0.29355396  0.95137455  0.89014829  1  0.042981  0  0.103983  0.104977  0  1.009684  0
H  H65  1  0.79355067  0.04863130  0.10985167  1  0.042877  0  0.103999  0.105117  0  1.009903  0
H  H66  1  0.79353215  0.45137599  0.60985499  1  0.042917  0  0.104056  0.105095  0  1.010024  0
H  H67  1  0.29355278  0.54862352  0.39014369  1  0.042681  0  0.104027  0.105087  0  1.009976  0
H  H68  1  0.16049366  0.83423192  0.92584091  1  0.103046  0  0.098776  0.118724  0  1.053811  0
H  H69  1  0.66047073  0.16577434  0.07415695  1  0.103059  0  0.098771  0.118688  0  1.053838  0
H  H70  1  0.66050118  0.33423297  0.57417445  1  0.103321  0  0.098759  0.118636  0  1.053876  0
H  H71  1  0.16050800  0.66576326  0.42582937  1  0.103068  0  0.098753  0.118623  0  1.053826  0
H  H72  1  0.30773046  0.14617953  0.99953023  1  0.081003  0  0.104383  0.120413  0  1.027381  0
H  H73  1  0.80770438  0.85381090  0.00046675  1  0.08104  0  0.104415  0.120441  0  1.02737  0
H  H74  1  0.80769605  0.64619190  0.50046789  1  0.081259  0  0.104333  0.120368  0  1.027415  0
H  H75  1  0.30769401  0.35381439  0.49954143  1  0.080996  0  0.10438  0.120449  0  1.027241  0
H  H76  1  0.37008287  0.07663009  0.91113639  1  0.094565  0  0.108347  0.111955  0  0.999192  0
H  H77  1  0.87004894  0.92336518  0.08885292  1  0.094103  0  0.108381  0.112038  0  0.999145  0
H  H78  1  0.87002446  0.57664266  0.58886817  1  0.094593  0  0.108376  0.112083  0  0.99901  0
H  H79  1  0.37002316  0.42336055  0.41113944  1  0.094449  0  0.108416  0.112105  0  0.999311  0
H  H80  1  0.69355561  0.15051654  0.84525036  1  0.115784  0  0.111192  0.119782  0  1.007446  0
H  H81  1  0.19358067  0.84948632  0.15475303  1  0.115806  0  0.111209  0.119809  0  1.00763  0
H  H82  1  0.19349510  0.65052974  0.65474301  1  0.115728  0  0.11122  0.120011  0  1.007398  0
H  H83  1  0.69352296  0.34947048  0.34526165  1  0.115961  0  0.111209  0.119951  0  1.007456  0
H  H84  1  0.63586571  0.22378779  0.93325080  1  0.111413  0  0.106658  0.127063  0  0.993538  0
H  H85  1  0.13590415  0.77620173  0.06675302  1  0.111452  0  0.106674  0.127063  0  0.993537  0
H  H86  1  0.13585783  0.72380132  0.56673861  1  0.111605  0  0.106573  0.126889  0  0.99371  0
H  H87  1  0.63590307  0.27620142  0.43327118  1  0.111882  0  0.106597  0.126844  0  0.993772  0
C  C88  1  0.98568358  0.86489298  0.45806842  1  0.511763  0  0.0891  0.33863  0  4.052821  0
C  C89  1  0.48568262  0.13511469  0.54192639  1  0.512283  0  0.089106  0.338903  0  4.052889  0
C  C90  1  0.48569217  0.36488762  0.04192972  1  0.51217  0  0.08906  0.338819  0  4.052734  0
C  C91  1  0.98570090  0.63510313  0.95807190  1  0.512753  0  0.088983  0.338764  0  4.052787  0
C  C92  1  0.15577095  0.91037173  0.48239339  1  0.013556  0  -0.099121  -0.198383  0  3.942003  0
C  C93  1  0.65577512  0.08963668  0.51759894  1  0.012974  0  -0.098936  -0.198277  0  3.941738  0
C  C94  1  0.65577698  0.41036929  0.01759883  1  0.012974  0  -0.098865  -0.198119  0  3.941675  0
C  C95  1  0.15578521  0.58962538  0.98240073  1  0.012749  0  -0.09892  -0.198247  0  3.942032  0
C  C96  1  0.11114504  0.94151212  0.53503865  1  -0.039549  0  -0.08089  -0.067121  0  3.982565  0
C  C97  1  0.61114905  0.05849291  0.46495667  1  -0.039634  0  -0.080847  -0.066946  0  3.982246  0
C  C98  1  0.61115253  0.44150429  0.96495379  1  -0.039721  0  -0.080841  -0.066971  0  3.982389  0
C  C99  1  0.11116664  0.55848805  0.03504366  1  -0.039048  0  -0.080878  -0.067087  0  3.982351  0
C  C100  1  0.89428587  0.92791739  0.56292258  1  -0.235722  0  -0.037868  -0.128644  0  4.036626  0
C  C101  1  0.39427742  0.07208406  0.43706970  1  -0.23526  0  -0.037964  -0.128736  0  4.036491  0
C  C102  1  0.39428338  0.42790631  0.93706879  1  -0.235824  0  -0.037918  -0.128596  0  4.03636  0
C  C103  1  0.89428707  0.57208615  0.06292690  1  -0.235361  0  -0.037907  -0.128645  0  4.036204  0
C  C104  1  0.71929290  0.88540717  0.53772284  1  -0.044461  0  -0.084242  -0.066585  0  4.021715  0
C  C105  1  0.21930562  0.11459604  0.46227586  1  -0.044543  0  -0.084247  -0.06664  0  4.021636  0
C  C106  1  0.21930301  0.38539864  0.96227833  1  -0.044113  0  -0.084367  -0.066651  0  4.02129  0
C  C107  1  0.71932059  0.61459664  0.03771952  1  -0.04453  0  -0.084227  -0.066393  0  4.021324  0
C  C108  1  0.76394566  0.85487405  0.48520656  1  -0.020373  0  -0.105414  -0.219546  0  3.972734  0
C  C109  1  0.26396037  0.14513466  0.51479298  1  -0.020677  0  -0.10535  -0.219734  0  3.972881  0
C  C110  1  0.26395073  0.35486721  0.01479863  1  -0.020562  0  -0.105361  -0.219823  0  3.972758  0
C  C111  1  0.76397142  0.64512934  0.98520261  1  -0.021243  0  -0.10539  -0.219738  0  3.972824  0
C  C112  1  0.91738107  0.88578939  0.67561472  1  -0.205094  0  -0.037505  -0.129511  0  4.019642  0
C  C113  1  0.41735494  0.11420291  0.32437542  1  -0.204939  0  -0.037449  -0.129327  0  4.019459  0
C  C114  1  0.41734872  0.38579142  0.82437746  1  -0.204982  0  -0.037336  -0.129192  0  4.019027  0
C  C115  1  0.91735146  0.61420563  0.17561354  1  -0.205295  0  -0.037539  -0.129499  0  4.019374  0
C  C116  1  0.75986107  0.82803022  0.67782986  1  -0.059894  0  -0.081917  -0.068249  0  4.015731  0
C  C117  1  0.25983931  0.17197111  0.32216840  1  -0.059774  0  -0.081965  -0.068197  0  4.01556  0
C  C118  1  0.25982350  0.32802117  0.82217283  1  -0.059765  0  -0.082139  -0.068393  0  4.015603  0
C  C119  1  0.75982672  0.67197647  0.17782033  1  -0.058995  0  -0.082039  -0.068309  0  4.01521  0
C  C120  1  0.81961716  0.76876449  0.70956277  1  0.042672  0  -0.09882  -0.202205  0  3.941896  0
C  C121  1  0.31963934  0.23123748  0.29044102  1  0.042803  0  -0.098756  -0.202081  0  3.941912  0
C  C122  1  0.31963551  0.26875979  0.79044617  1  0.042077  0  -0.098713  -0.202006  0  3.942132  0
C  C123  1  0.81963174  0.73124060  0.20955166  1  0.041286  0  -0.098673  -0.202005  0  3.941874  0
C  C124  1  0.03802058  0.76668535  0.73954210  1  0.497842  0  0.096246  0.350622  0  4.072656  0
C  C125  1  0.53803333  0.23331807  0.26045791  1  0.498045  0  0.096125  0.350501  0  4.072878  0
C  C126  1  0.53802065  0.26667512  0.76046438  1  0.497901  0  0.096192  0.350435  0  4.073372  0
C  C127  1  0.03800281  0.73331932  0.23953563  1  0.497963  0  0.09607  0.350477  0  4.073668  0
C  C128  1  0.19618727  0.82424156  0.73613539  1  -0.012689  0  -0.104424  -0.220296  0  3.964093  0
C  C129  1  0.69620092  0.17575599  0.26386417  1  -0.012822  0  -0.104506  -0.220401  0  3.964266  0
C  C130  1  0.69616918  0.32423449  0.76386441  1  -0.012876  0  -0.104461  -0.220424  0  3.96452  0
C  C131  1  0.19614556  0.67575672  0.23613344  1  -0.012892  0  -0.104383  -0.220138  0  3.963735  0
C  C132  1  0.13687720  0.88349250  0.70418622  1  -0.042553  0  -0.078376  -0.054368  0  4.001411  0
C  C133  1  0.63686660  0.11650284  0.29580653  1  -0.042222  0  -0.078297  -0.054436  0  4.001518  0
C  C134  1  0.63686408  0.38349270  0.79580478  1  -0.042132  0  -0.078318  -0.054526  0  4.001468  0
C  C135  1  0.13685285  0.61650104  0.20419011  1  -0.04217  0  -0.078255  -0.054314  0  4.001192  0
C  C136  1  0.82584670  0.83557210  0.87940390  1  0.590357  0  0.079062  0.339462  0  4.113204  0
C  C137  1  0.32584278  0.16443088  0.12059606  1  0.590441  0  0.07908  0.339381  0  4.113101  0
C  C138  1  0.32585166  0.33557808  0.62059821  1  0.591916  0  0.079128  0.339583  0  4.113302  0
C  C139  1  0.82584498  0.66442385  0.37940387  1  0.591824  0  0.079044  0.339447  0  4.113276  0
C  C140  1  0.68100933  0.87504406  0.84189851  1  -0.019405  0  -0.112793  -0.218087  0  3.976476  0
C  C141  1  0.18102276  0.12495625  0.15810233  1  -0.019409  0  -0.112877  -0.218282  0  3.976594  0
C  C142  1  0.18101351  0.37505465  0.65809903  1  -0.018684  0  -0.112895  -0.218241  0  3.976134  0
C  C143  1  0.68099888  0.62494777  0.34189882  1  -0.018689  0  -0.112845  -0.218063  0  3.976013  0
C  C144  1  0.75386693  0.94058123  0.82175433  1  0.039956  0  -0.08395  -0.061881  0  4.001776  0
C  C145  1  0.25385902  0.05941697  0.17824351  1  0.039941  0  -0.083972  -0.06187  0  4.001729  0
C  C146  1  0.25381777  0.44059756  0.67824576  1  0.038431  0  -0.084022  -0.062002  0  4.001693  0
C  C147  1  0.75381325  0.55940434  0.32175932  1  0.038395  0  -0.084011  -0.062076  0  4.00183  0
C  C148  1  0.97485415  0.96792335  0.83913555  1  -0.285621  0  -0.042303  -0.125445  0  4.032157  0
C  C149  1  0.47484346  0.03207436  0.16085374  1  -0.285555  0  -0.042222  -0.125167  0  4.032096  0
C  C150  1  0.47482409  0.46794133  0.66086440  1  -0.285125  0  -0.042116  -0.125173  0  4.031877  0
C  C151  1  0.97481261  0.53206061  0.33914490  1  -0.285283  0  -0.042236  -0.125081  0  4.031765  0
C  C152  1  0.12120571  0.92997229  0.87678235  1  -0.012738  0  -0.087599  -0.067187  0  4.023138  0
C  C153  1  0.62121473  0.07002104  0.12321168  1  -0.012832  0  -0.08764  -0.067514  0  4.023386  0
C  C154  1  0.62121701  0.42998900  0.62322052  1  -0.01344  0  -0.087646  -0.06739  0  4.022975  0
C  C155  1  0.12121060  0.57000644  0.37678543  1  -0.013439  0  -0.087629  -0.06751  0  4.023313  0
C  C156  1  0.04791285  0.86431725  0.89666131  1  -0.037731  0  -0.116836  -0.225545  0  3.96957  0
C  C157  1  0.54790557  0.13568135  0.10333870  1  -0.037644  0  -0.116806  -0.225421  0  3.969468  0
C  C158  1  0.54791478  0.36432876  0.60334966  1  -0.03785  0  -0.116792  -0.225345  0  3.969599  0
C  C159  1  0.04790902  0.63566879  0.39665375  1  -0.037477  0  -0.116757  -0.225294  0  3.969578  0
C  C160  1  0.96405397  0.18764221  0.97242622  1  0.499674  0  0.08996  0.335979  0  4.063972  0
C  C161  1  0.46404132  0.81235610  0.02757711  1  0.499982  0  0.089869  0.335868  0  4.063776  0
C  C162  1  0.46400401  0.68764690  0.52756680  1  0.499366  0  0.089737  0.335493  0  4.064631  0
C  C163  1  0.96401963  0.31236039  0.47243738  1  0.49972  0  0.089897  0.335866  0  4.064229  0
C  C164  1  0.17369690  0.14713457  0.96575745  1  -0.027333  0  -0.108516  -0.22517  0  3.977078  0
C  C165  1  0.67370616  0.85286685  0.03424381  1  -0.027406  0  -0.108593  -0.225307  0  3.977134  0
C  C166  1  0.67365479  0.64713888  0.53424068  1  -0.027972  0  -0.10847  -0.225115  0  3.977306  0
C  C167  1  0.17366587  0.35287152  0.46576484  1  -0.027952  0  -0.108591  -0.225362  0  3.977059  0
C  C168  1  0.20752711  0.10779477  0.91654778  1  -0.023156  0  -0.082911  -0.06302  0  4.019636  0
C  C169  1  0.70754351  0.89220588  0.08344709  1  -0.023151  0  -0.08292  -0.06282  0  4.01953  0
C  C170  1  0.70747982  0.60780154  0.58345152  1  -0.02257  0  -0.082986  -0.062977  0  4.019518  0
C  C171  1  0.20751557  0.39220756  0.41655740  1  -0.022913  0  -0.082919  -0.062759  0  4.019618  0
C  C172  1  0.03223272  0.10842652  0.87386481  1  -0.206274  0  -0.040083  -0.126855  0  4.03446  0
C  C173  1  0.53224980  0.89156268  0.12613052  1  -0.20576  0  -0.040141  -0.127097  0  4.034175  0
C  C174  1  0.53219145  0.60844370  0.62613452  1  -0.206486  0  -0.040055  -0.127073  0  4.034179  0
C  C175  1  0.03220688  0.39156083  0.37387401  1  -0.206152  0  -0.040165  -0.127353  0  4.03429  0
C  C176  1  0.82652514  0.15028135  0.87926920  1  -0.021387  0  -0.081414  -0.067874  0  3.999892  0
C  C177  1  0.32653104  0.84971371  0.12073587  1  -0.021286  0  -0.081356  -0.067846  0  4.000177  0
C  C178  1  0.32645981  0.65029467  0.62072458  1  -0.021806  0  -0.081579  -0.068433  0  3.999998  0
C  C179  1  0.82647278  0.34970672  0.37927793  1  -0.021116  0  -0.081483  -0.068062  0  3.999912  0
C  C180  1  0.79430524  0.19067078  0.92816936  1  -0.045712  0  -0.103628  -0.204195  0  3.946174  0
C  C181  1  0.29431477  0.80932186  0.07183784  1  -0.046264  0  -0.103739  -0.204169  0  3.946284  0
C  C182  1  0.29426656  0.69068112  0.57182237  1  -0.045393  0  -0.103425  -0.203557  0  3.946358  0
C  C183  1  0.79429434  0.30932368  0.42818143  1  -0.046285  0  -0.103541  -0.203735  0  3.94628  0
S  S184  1  0.84519561  0.95916664  0.63250319  1  2.448284  0  0.477432  1.006471  0  5.766524  0
S  S185  1  0.34518638  0.04083410  0.36748782  1  2.448048  0  0.477398  1.006255  0  5.766737  0
S  S186  1  0.34518000  0.45915424  0.86748971  1  2.447915  0  0.47747  1.006089  0  5.766046  0
S  S187  1  0.84518408  0.54083857  0.13251024  1  2.44819  0  0.477525  1.006369  0  5.766546  0
S  S188  1  0.06531676  0.05181369  0.81479491  1  2.421747  0  0.446488  0.959144  0  5.819913  0
S  S189  1  0.56533226  0.94819430  0.18520510  1  2.42199  0  0.446534  0.959265  0  5.819747  0
S  S190  1  0.56527859  0.55182060  0.68521104  1  2.421923  0  0.446649  0.959516  0  5.819016  0
S  S191  1  0.06528625  0.44818263  0.31479620  1  2.421833  0  0.446476  0.959056  0  5.819204  0
O  O192  1  0.03533094  0.83166157  0.40809804  1  -1.194051  0  -0.386162  -0.514616  0  2.38812  0
O  O193  1  0.53534389  0.16834188  0.59189984  1  -1.193977  0  -0.386262  -0.514823  0  2.387858  0
O  O194  1  0.53534618  0.33165832  0.09189956  1  -1.194081  0  -0.38623  -0.514803  0  2.388133  0
O  O195  1  0.03535014  0.66832927  0.90809705  1  -1.194409  0  -0.386053  -0.514634  0  2.38792  0
O  O196  1  0.94599098  0.19411352  0.65979718  1  -1.273302  0  -0.601327  -0.775866  0  2.009563  0
O  O197  1  0.44599834  0.80588174  0.34020275  1  -1.273588  0  -0.601254  -0.775915  0  2.009534  0
O  O198  1  0.44601264  0.69412126  0.84020466  1  -1.273738  0  -0.601292  -0.775822  0  2.00971  0
O  O199  1  0.94601787  0.30588881  0.15979229  1  -1.27364  0  -0.601453  -0.776278  0  2.009276  0
O  O200  1  0.59006371  0.97416054  0.63922255  1  -1.317585  0  -0.362917  -0.580052  0  2.212396  0
O  O201  1  0.09005391  0.02583670  0.36078597  1  -1.31776  0  -0.362965  -0.579995  0  2.212504  0
O  O202  1  0.09001811  0.47415452  0.86079353  1  -1.317753  0  -0.362896  -0.579987  0  2.212054  0
O  O203  1  0.59004399  0.52583903  0.13920349  1  -1.317703  0  -0.362923  -0.579982  0  2.212425  0
O  O204  1  0.01553078  0.01567196  0.64321189  1  -1.323868  0  -0.400389  -0.584744  0  2.272244  0
O  O205  1  0.51552009  0.98433004  0.35676769  1  -1.324033  0  -0.40042  -0.584638  0  2.272137  0
O  O206  1  0.51550588  0.51567029  0.85677306  1  -1.323698  0  -0.400457  -0.58469  0  2.271504  0
O  O207  1  0.01552170  0.48433065  0.14322823  1  -1.323878  0  -0.400554  -0.584787  0  2.271976  0
O  O208  1  0.08821506  0.70844763  0.77027627  1  -1.193684  0  -0.413182  -0.502566  0  2.379065  0
O  O209  1  0.58824128  0.29154805  0.22972459  1  -1.194658  0  -0.413017  -0.502574  0  2.378784  0
O  O210  1  0.58824590  0.20844703  0.72973431  1  -1.194619  0  -0.413094  -0.502252  0  2.379472  0
O  O211  1  0.08822656  0.79154072  0.27027336  1  -1.194693  0  -0.413015  -0.50255  0  2.379491  0
O  O212  1  0.91738108  0.22368229  0.02083221  1  -1.177869  0  -0.349191  -0.449809  0  2.370581  0
O  O213  1  0.41733522  0.77631424  0.97916772  1  -1.177915  0  -0.348963  -0.44992  0  2.370247  0
O  O214  1  0.41736989  0.72369162  0.47915804  1  -1.177635  0  -0.349014  -0.449675  0  2.370948  0
O  O215  1  0.91734820  0.27631812  0.52084190  1  -1.178004  0  -0.349028  -0.44983  0  2.37105  0
O  O216  1  0.32157885  0.04864064  0.80170632  1  -1.310916  0  -0.38156  -0.585911  0  2.239085  0
O  O217  1  0.82159508  0.95135920  0.19828980  1  -1.311133  0  -0.381517  -0.58595  0  2.239185  0
O  O218  1  0.82154874  0.54866442  0.69829921  1  -1.310624  0  -0.381627  -0.585976  0  2.238665  0
O  O219  1  0.32156250  0.45133648  0.30170968  1  -1.31069  0  -0.381558  -0.585845  0  2.238697  0
O  O220  1  0.90367047  0.07468776  0.76986172  1  -1.309794  0  -0.323787  -0.546811  0  2.209826  0
O  O221  1  0.40368468  0.92531415  0.23013439  1  -1.309742  0  -0.32382  -0.546872  0  2.209895  0
O  O222  1  0.40362806  0.57471124  0.73013904  1  -1.310478  0  -0.323918  -0.546997  0  2.209723  0
O  O223  1  0.90363574  0.42529912  0.26986771  1  -1.310004  0  -0.323828  -0.54683  0  2.209783  0
O  O224  1  0.75046698  0.77281706  0.89914958  1  -1.198071  0  -0.34009  -0.575138  0  2.3186  0
O  O225  1  0.25043435  0.22718645  0.10085124  1  -1.198218  0  -0.340133  -0.575082  0  2.318407  0
O  O226  1  0.25046972  0.27282417  0.60086100  1  -1.198861  0  -0.34011  -0.575257  0  2.318523  0
O  O227  1  0.75046386  0.72718093  0.39913855  1  -1.198882  0  -0.34003  -0.575174  0  2.318646  0
