# generated using pymatgen
data_CuH28C44(N3O7)2
_symmetry_space_group_name_H-M   'P 1'
_cell_length_a   8.87780075
_cell_length_b   10.10583481
_cell_length_c   15.37018792
_cell_angle_alpha   105.02063898
_cell_angle_beta   83.41267810
_cell_angle_gamma   111.08667774
_symmetry_Int_Tables_number   1
_chemical_formula_structural   CuH28C44(N3O7)2
_chemical_formula_sum   'Cu1 H28 C44 N6 O14'
_cell_volume   1242.32212384
_cell_formula_units_Z   1
loop_
 _symmetry_equiv_pos_site_id
 _symmetry_equiv_pos_as_xyz
  1  'x, y, z'
loop_
 _atom_site_type_symbol
 _atom_site_label
 _atom_site_symmetry_multiplicity
 _atom_site_fract_x
 _atom_site_fract_y
 _atom_site_fract_z
 _atom_site_occupancy
 _atom_site_hle17_ddec_charge
 _atom_site_hle17_ddec_spin_density
 _atom_site_hle17_ddec_sum_bond_order
 _atom_site_hle17_magmom
 _atom_site_hse06_10hf_ddec_charge
 _atom_site_hse06_10hf_ddec_spin_density
 _atom_site_hse06_10hf_ddec_sum_bond_order
 _atom_site_hse06_10hf_magmom
 _atom_site_hse06_ddec_charge
 _atom_site_hse06_ddec_spin_density
 _atom_site_hse06_ddec_sum_bond_order
 _atom_site_hse06_magmom
 _atom_site_pbe_cm5_charge
 _atom_site_pbe_ddec_charge
 _atom_site_pbe_ddec_spin_density
 _atom_site_pbe_ddec_sum_bond_order
 _atom_site_pbe_magmom
Cu  Cu0  1  0.49999286  0.50000634  0.00000202  1  0.756134  0.688226  1.823835  0.489  0.700434  0.749781  2.202152  0.583  0.77913  0.818033  2.149108  0.663  0.781875  0.654779  0.704202  2.238354  0.534
H  H1  1  0.30466775  0.56798809  0.16067770  1  0.099393  0.001201  0.988766  0.002  0.099813  0.000918  1.064194  0.002  0.102334  0.000621  1.061227  0.001  0.118007  0.098141  0.001147  1.065951  0.002
H  H2  1  0.69532190  0.43201080  0.83933371  1  0.099359  0.001202  0.988585  0.002  0.099789  0.000918  1.06401  0.002  0.102306  0.000621  1.061058  0.001  0.117993  0.098113  0.001147  1.065773  0.002
H  H3  1  0.20401666  0.47172300  0.29896550  1  0.128665  0.000502  0.943167  0.0  0.134888  0.000506  1.004423  0.001  0.139075  0.000365  1.001375  0.0  0.116469  0.13172  0.00061  1.006865  0.001
H  H4  1  0.79595640  0.52826007  0.70103288  1  0.128688  0.000505  0.94305  0.0  0.134871  0.000506  1.004355  0.001  0.139059  0.000366  1.001308  0.0  0.116448  0.1317  0.00061  1.006796  0.001
H  H5  1  0.33507890  0.09263488  0.16518000  1  0.131513  0.00056  0.982964  0.001  0.127001  0.00051  1.063262  0.001  0.132104  0.000365  1.058509  0.0  0.111234  0.123295  0.00062  1.06658  0.001
H  H6  1  0.66494021  0.90737151  0.83481275  1  0.131513  0.000557  0.982913  0.001  0.126998  0.00051  1.063221  0.001  0.132102  0.000365  1.058466  0.0  0.111211  0.123293  0.00062  1.066544  0.001
H  H7  1  0.42399405  0.20174561  0.03236961  1  0.099201  0.001189  0.970609  0.002  0.098155  0.000875  1.04488  0.002  0.100768  0.000597  1.04179  0.001  0.120487  0.095832  0.001071  1.047559  0.002
H  H8  1  0.57602977  0.79828361  0.96763306  1  0.099305  0.001187  0.970521  0.002  0.09823  0.000874  1.044843  0.002  0.100845  0.000597  1.041753  0.001  0.120507  0.095921  0.00107  1.047508  0.002
H  H9  1  0.47397878  0.24951677  0.47086495  1  0.122325  -1.3e-05  0.921843  0.0  0.136496  -1e-06  0.973402  0.0  0.139534  -1e-06  0.972249  0.0  0.114243  0.134324  -2e-06  0.974308  0.0
H  H10  1  0.52601846  0.75047363  0.52912143  1  0.122374  -1.3e-05  0.921796  0.0  0.136512  -1e-06  0.973364  0.0  0.139549  -1e-06  0.972211  0.0  0.114221  0.134338  -2e-06  0.97427  0.0
H  H11  1  0.58920663  0.25888323  0.61461526  1  0.097034  8e-06  0.946591  0.0  0.109229  7e-06  1.004771  0.0  0.112099  7e-06  1.003598  0.0  0.101258  0.107162  7e-06  1.005683  0.0
H  H12  1  0.41082188  0.74111810  0.38536794  1  0.097079  5e-06  0.9466  0.0  0.109301  7e-06  1.004746  0.0  0.112153  7e-06  1.003596  0.0  0.10128  0.107234  6e-06  1.005655  0.0
H  H13  1  0.58323625  0.14613156  0.73929227  1  0.094237  -0.0  0.96157  0.0  0.102007  1e-05  1.026773  0.0  0.103693  1.1e-05  1.027115  0.0  0.100167  0.100643  1e-05  1.026766  0.0
H  H14  1  0.41680792  0.85388545  0.26069093  1  0.094329  -1e-06  0.961325  0.0  0.102063  1e-05  1.026599  0.0  0.10375  1.1e-05  1.026941  0.0  0.100111  0.100709  1e-05  1.026573  0.0
H  H15  1  0.36393012  0.91591794  0.75393587  1  0.100701  1.3e-05  0.94368  0.0  0.111973  6e-06  1.00068  0.0  0.114872  6e-06  0.999259  0.0  0.102577  0.109873  5e-06  1.001736  0.0
H  H16  1  0.63611837  0.08411014  0.24606455  1  0.100684  1.3e-05  0.943808  0.0  0.112001  6e-06  1.000752  0.0  0.114901  6e-06  0.999328  0.0  0.102648  0.1099  5e-06  1.001801  0.0
H  H17  1  0.15140659  0.79023234  0.63723843  1  0.100422  -5e-06  0.946371  0.0  0.112344  -1e-06  1.001712  0.0  0.115133  -1e-06  1.000956  0.0  0.101698  0.110389  -0.0  1.002274  0.0
H  H18  1  0.84863149  0.20977498  0.36277018  1  0.10059  -5e-06  0.946553  0.0  0.112471  -0.0  1.001905  0.0  0.115259  -1e-06  1.001154  0.0  0.101745  0.110528  -0.0  1.002452  0.0
H  H19  1  0.03896313  0.77896121  0.49352458  1  0.135863  -8e-06  0.938406  0.0  0.147452  -4e-06  0.99467  0.0  0.151101  -3e-06  0.991923  0.0  0.113767  0.144824  -4e-06  0.996772  0.0
H  H20  1  0.96105609  0.22103038  0.50649260  1  0.135956  -5e-06  0.938434  0.0  0.147554  -3e-06  0.994661  0.0  0.151198  -2e-06  0.991923  0.0  0.113805  0.144926  -4e-06  0.996761  0.0
H  H21  1  0.79088399  0.43181520  0.02489355  1  0.101265  0.001173  0.971669  0.002  0.10368  0.000898  1.039201  0.002  0.10629  0.000625  1.036722  0.001  0.119681  0.101626  0.001127  1.041146  0.002
H  H22  1  0.20907752  0.56816740  0.97510577  1  0.101209  0.001171  0.971822  0.002  0.103657  0.000898  1.03931  0.002  0.106266  0.000624  1.036833  0.001  0.119693  0.101607  0.001126  1.041253  0.002
H  H23  1  0.00652487  0.52434548  0.14181723  1  0.116318  0.000485  0.939869  0.0  0.12425  0.000537  1.000963  0.001  0.127023  0.000391  1.000268  0.0  0.116928  0.12225  0.000657  1.001561  0.001
H  H24  1  0.99344616  0.47562127  0.85816760  1  0.116178  0.000486  0.940022  0.0  0.124184  0.000536  1.00104  0.001  0.126959  0.000391  1.000339  0.0  0.116857  0.122185  0.000657  1.001637  0.001
H  H25  1  0.80492997  0.85882562  0.27127572  1  0.115383  0.00048  0.984798  0.0  0.118079  0.000469  1.054367  0.001  0.120447  0.000339  1.055292  0.0  0.110695  0.116361  0.00058  1.053885  0.001
H  H26  1  0.19509244  0.14118303  0.72871467  1  0.115433  0.000486  0.9848  0.001  0.118143  0.000468  1.05433  0.001  0.120515  0.00034  1.055248  0.0  0.11073  0.116422  0.00058  1.053854  0.001
H  H27  1  0.60253751  0.75601210  0.14862022  1  0.08843  0.001199  0.987282  0.002  0.086152  0.000879  1.067577  0.002  0.088342  0.000591  1.065141  0.001  0.117091  0.084307  0.001117  1.069587  0.002
H  H28  1  0.39746676  0.24400021  0.85138304  1  0.088441  0.001201  0.987221  0.002  0.086207  0.000878  1.067467  0.002  0.088398  0.000591  1.06503  0.001  0.117087  0.084357  0.001117  1.069487  0.002
C  C29  1  0.30849337  0.46353279  0.16549144  1  0.107506  -0.013464  3.673527  -0.009  0.079419  -0.002442  3.933779  -0.001  0.08688  -0.004475  3.951879  -0.003  0.040471  0.074721  -0.000805  3.921533  0.0
C  C30  1  0.69149903  0.53647051  0.83451926  1  0.107531  -0.013459  3.673414  -0.009  0.079427  -0.002443  3.933624  -0.001  0.086887  -0.004476  3.95172  -0.003  0.040504  0.074736  -0.000805  3.92138  0.0
C  C31  1  0.25391520  0.40969866  0.24196154  1  -0.108311  0.012748  3.697411  0.013  -0.129967  0.004446  3.940647  0.005  -0.135133  0.004135  3.960995  0.005  -0.070514  -0.1266  0.004712  3.927177  0.006
C  C32  1  0.74606878  0.59029457  0.75804199  1  -0.108201  0.012736  3.697073  0.013  -0.129793  0.004446  3.940315  0.005  -0.13496  0.004136  3.960659  0.005  -0.070396  -0.126424  0.004712  3.926847  0.006
C  C33  1  0.26940853  0.27808397  0.24499260  1  -0.019151  -0.01465  3.760334  -0.01  -0.003433  -0.004674  3.99188  -0.003  -0.006583  -0.005491  4.013188  -0.003  0.004439  -0.001496  -0.003949  3.977657  -0.002
C  C34  1  0.73059082  0.72191307  0.75500648  1  -0.019231  -0.014652  3.760472  -0.01  -0.003523  -0.004673  3.992121  -0.003  -0.006672  -0.00549  4.01343  -0.003  0.00434  -0.001583  -0.003949  3.977912  -0.002
C  C35  1  0.32761117  0.19913478  0.16849548  1  -0.09255  0.013218  3.647363  0.014  -0.114643  0.004668  3.892363  0.006  -0.118889  0.004309  3.910431  0.005  -0.065496  -0.111551  0.004969  3.879915  0.006
C  C36  1  0.67239775  0.80086695  0.83150338  1  -0.092661  0.013227  3.647371  0.014  -0.114736  0.004666  3.892433  0.006  -0.118986  0.004309  3.910503  0.005  -0.065526  -0.111642  0.004968  3.879997  0.006
C  C37  1  0.37736131  0.25900763  0.09352010  1  0.133072  -0.013879  3.628589  -0.009  0.108053  -0.002459  3.881143  -0.001  0.115236  -0.004535  3.899921  -0.003  0.054324  0.103451  -0.000827  3.869078  0.0
C  C38  1  0.62264870  0.74100492  0.90648302  1  0.133019  -0.013876  3.628632  -0.009  0.107981  -0.002458  3.881227  -0.001  0.115162  -0.004537  3.900005  -0.003  0.054307  0.103377  -0.000827  3.869163  0.0
C  C39  1  0.22950954  0.23251655  0.33211183  1  0.593466  0.000483  3.771158  0.001  0.545527  1.2e-05  4.066348  0.0  0.57856  -3.5e-05  4.05567  0.0  0.247635  0.522802  9e-05  4.073469  0.0
C  C40  1  0.77047123  0.76747008  0.66788947  1  0.593639  0.000488  3.771094  0.001  0.545563  1.3e-05  4.066445  0.0  0.578594  -3.6e-05  4.055769  0.0  0.247657  0.522834  9e-05  4.073575  0.0
C  C41  1  0.26796769  0.07379838  0.41080851  1  0.18347  -4.6e-05  3.792084  0.0  0.165867  -2.4e-05  4.067289  0.0  0.173053  -1.2e-05  4.083838  0.0  0.075349  0.160839  -2e-05  4.056177  0.0
C  C42  1  0.73201433  0.92618940  0.58919554  1  0.183523  -4.5e-05  3.792248  0.0  0.165733  -2.5e-05  4.067649  0.0  0.172912  -1.4e-05  4.084193  0.0  0.075406  0.160694  -2e-05  4.056543  0.0
C  C43  1  0.37840040  0.14831198  0.47765677  1  -0.190006  0.000228  3.726073  0.0  -0.220574  1.2e-05  3.983087  0.0  -0.224011  -2e-06  4.00192  0.0  -0.088772  -0.218132  1e-05  3.970335  0.0
C  C44  1  0.62159248  0.85168797  0.52233840  1  -0.190115  0.000228  3.726012  0.0  -0.220553  1.2e-05  3.983011  0.0  -0.223987  1e-06  4.001843  0.0  -0.088738  -0.218109  1e-05  3.970254  0.0
C  C45  1  0.37347691  0.08937417  0.55255121  1  0.073465  -3.4e-05  3.778306  0.0  0.085176  1e-05  4.017038  0.0  0.085047  1e-05  4.041873  0.0  -0.005724  0.085207  1.6e-05  4.000204  0.0
C  C46  1  0.62652208  0.91063466  0.44744776  1  0.073613  -3.8e-05  3.778218  0.0  0.085319  1e-05  4.016924  0.0  0.085189  8e-06  4.041754  0.0  -0.005685  0.085349  1.6e-05  4.000089  0.0
C  C47  1  0.49196611  0.15768885  0.61995442  1  -0.12124  0.000171  3.740417  0.0  -0.140081  9e-06  3.993648  0.0  -0.142955  3e-06  4.015449  0.0  -0.089806  -0.137926  7e-06  3.978621  0.0
C  C48  1  0.50805664  0.84232734  0.38003648  1  -0.121295  0.000175  3.740596  0.0  -0.140171  8e-06  3.993842  0.0  -0.143031  6e-06  4.015658  0.0  -0.089818  -0.138019  7e-06  3.978806  0.0
C  C49  1  0.48844813  0.09430135  0.68980955  1  -0.065504  0.000122  3.77589  0.0  -0.084225  1.5e-05  4.040137  0.0  -0.086214  1.4e-05  4.063085  0.0  -0.095775  -0.082774  2.7e-05  4.024604  0.0
C  C50  1  0.51158869  0.90571861  0.31017824  1  -0.065867  0.000124  3.77568  0.0  -0.084565  1.6e-05  4.039978  0.0  -0.086532  1.2e-05  4.062862  0.0  -0.095846  -0.083137  2.7e-05  4.024473  0.0
C  C51  1  0.36452186  0.96190693  0.69705111  1  -0.068429  -6.4e-05  3.773195  0.0  -0.086956  1.2e-05  4.031691  0.0  -0.088481  9e-06  4.052839  0.0  -0.093706  -0.085889  1.1e-05  4.017353  0.0
C  C52  1  0.63552192  0.03811664  0.30294680  1  -0.06823  -6.9e-05  3.773026  0.0  -0.086793  1.3e-05  4.031455  0.0  -0.088316  8e-06  4.052606  0.0  -0.093702  -0.085726  1.1e-05  4.017109  0.0
C  C53  1  0.24712845  0.89277981  0.63273852  1  -0.128966  8.7e-05  3.735377  0.0  -0.144416  2.9e-05  3.984218  0.0  -0.147493  1.9e-05  4.00554  0.0  -0.093016  -0.142272  3.9e-05  3.969687  0.0
C  C54  1  0.75290370  0.10723583  0.36726830  1  -0.129189  8.9e-05  3.73544  0.0  -0.144595  2.8e-05  3.984281  0.0  -0.147674  2e-05  4.005604  0.0  -0.093036  -0.142462  3.9e-05  3.969749  0.0
C  C55  1  0.24941977  0.95316753  0.55846366  1  0.078358  -2.3e-05  3.761058  0.0  0.087989  7e-06  4.005116  0.0  0.088111  1e-06  4.029236  0.0  -0.006699  0.08792  1.3e-05  3.988807  0.0
C  C56  1  0.75059176  0.04684404  0.44154317  1  0.078515  -2.3e-05  3.760935  0.0  0.088138  8e-06  4.004991  0.0  0.088261  2e-06  4.029109  0.0  -0.006743  0.088066  1.3e-05  3.988689  0.0
C  C57  1  0.13541684  0.88074412  0.48897127  1  -0.188008  0.000134  3.702105  0.0  -0.223408  3e-06  3.965433  0.0  -0.226311  -3e-06  3.983024  0.0  -0.088824  -0.221311  1.9e-05  3.953532  0.0
C  C58  1  0.86458255  0.11925302  0.51103825  1  -0.188395  0.00013  3.702117  0.0  -0.223799  3e-06  3.965484  0.0  -0.226708  -6e-06  3.983075  0.0  -0.088968  -0.221704  1.9e-05  3.95358  0.0
C  C59  1  0.14655061  0.93962510  0.41639503  1  0.184946  1.5e-05  3.783741  0.0  0.169238  -2.1e-05  4.059031  0.0  0.175929  -1.8e-05  4.075807  0.0  0.075627  0.164519  -2.2e-05  4.047787  0.0
C  C60  1  0.85342212  0.06036663  0.58361383  1  0.18512  1.8e-05  3.783684  0.0  0.169445  -2.1e-05  4.059002  0.0  0.176153  -1.6e-05  4.075766  0.0  0.075704  0.164742  -2.2e-05  4.047742  0.0
C  C61  1  0.04160838  0.74770831  0.28796142  1  0.603455  0.000451  3.75359  0.001  0.553286  3e-06  4.050336  0.0  0.586851  -2.9e-05  4.038916  0.0  0.25418  0.530162  3.9e-05  4.058147  0.0
C  C62  1  0.95837623  0.25229354  0.71204343  1  0.603408  0.000456  3.75398  0.001  0.553251  3e-06  4.050707  0.0  0.586862  -3e-05  4.039223  0.0  0.254166  0.53014  3.9e-05  4.058505  0.0
C  C63  1  0.80014570  0.52562862  0.08125897  1  0.11385  -0.013458  3.654906  -0.009  0.08878  -0.002431  3.906928  -0.001  0.095083  -0.004399  3.926708  -0.003  0.046932  0.084685  -0.000958  3.894029  0.0
C  C64  1  0.19983044  0.47436638  0.91873921  1  0.113827  -0.01345  3.655027  -0.009  0.088725  -0.00243  3.907128  -0.001  0.095029  -0.0044  3.926913  -0.003  0.046924  0.084621  -0.000958  3.89425  0.0
C  C65  1  0.91708711  0.57655124  0.14622109  1  -0.090488  0.01287  3.684883  0.013  -0.113514  0.004511  3.930935  0.005  -0.117955  0.004299  3.950775  0.005  -0.063402  -0.110695  0.004682  3.917711  0.005
C  C66  1  0.08289903  0.42343877  0.85377275  1  -0.090389  0.01287  3.685061  0.013  -0.113483  0.00451  3.931111  0.005  -0.117924  0.004299  3.950953  0.005  -0.063436  -0.110658  0.004682  3.917888  0.005
C  C67  1  0.91901246  0.69636105  0.21695569  1  -0.002308  -0.01516  3.747514  -0.01  0.010143  -0.005006  3.984371  -0.003  0.007947  -0.005818  4.00268  -0.004  0.010879  0.011587  -0.004384  3.972259  -0.003
C  C68  1  0.08098984  0.30364039  0.78304073  1  -0.002277  -0.015166  3.747476  -0.01  0.010166  -0.005004  3.984363  -0.003  0.007959  -0.005817  4.002666  -0.004  0.010897  0.011607  -0.004382  3.972256  -0.003
C  C69  1  0.80617368  0.76387840  0.21854544  1  -0.095885  0.012755  3.671377  0.013  -0.117722  0.004445  3.912667  0.005  -0.121757  0.004199  3.932621  0.005  -0.067259  -0.115142  0.004616  3.899329  0.005
C  C70  1  0.19383307  0.23612535  0.78144859  1  -0.095988  0.012742  3.671409  0.013  -0.117866  0.004443  3.91274  0.005  -0.1219  0.004201  3.93269  0.005  -0.067307  -0.115282  0.004616  3.89941  0.005
C  C71  1  0.69316977  0.70757690  0.15089803  1  0.123094  -0.014884  3.660623  -0.01  0.097905  -0.003296  3.913439  -0.002  0.105026  -0.005311  3.932225  -0.003  0.050253  0.093367  -0.001794  3.901123  -0.001
C  C72  1  0.30682932  0.29242549  0.84909994  1  0.122948  -0.014886  3.660611  -0.01  0.097791  -0.003293  3.91337  -0.002  0.10491  -0.00531  3.932154  -0.003  0.050222  0.093256  -0.001792  3.901054  -0.001
N  N73  1  0.37308369  0.39109346  0.09372238  1  -0.277071  0.094873  3.316216  0.119  -0.230145  0.063081  3.607567  0.085  -0.259029  0.052296  3.631834  0.075  -0.337071  -0.212802  0.069145  3.592807  0.089
N  N74  1  0.62690584  0.60891078  0.90628660  1  -0.27711  0.094856  3.316539  0.119  -0.230123  0.063074  3.60784  0.085  -0.259003  0.052293  3.632104  0.075  -0.337046  -0.212785  0.069131  3.593094  0.089
N  N75  1  0.68892198  0.58947807  0.08462983  1  -0.271745  0.091797  3.315758  0.116  -0.222939  0.061472  3.603191  0.083  -0.251382  0.051465  3.627442  0.074  -0.334644  -0.205799  0.067265  3.588217  0.087
N  N76  1  0.31105614  0.41052026  0.91537142  1  -0.271496  0.091795  3.315591  0.116  -0.222745  0.061468  3.603073  0.083  -0.25119  0.051462  3.627329  0.074  -0.33454  -0.205601  0.067259  3.588092  0.087
N  N77  1  0.36957786  0.83264666  0.09305753  1  0.722569  -0.000286  4.116302  0.0  0.744947  -0.000227  4.426803  0.0  0.773665  -0.000173  4.430574  0.0  0.092082  0.725817  -0.000229  4.423347  0.0
N  N78  1  0.63040583  0.16733792  0.90694141  1  0.722705  -0.000288  4.116491  0.0  0.745077  -0.000227  4.426985  0.0  0.773797  -0.000173  4.43075  0.0  0.091991  0.725945  -0.000229  4.423531  0.0
O  O79  1  0.16367842  0.29067223  0.39675301  1  -0.493538  -0.002203  1.933853  -0.002  -0.460364  -0.000696  2.137802  -0.001  -0.478275  -0.000847  2.129704  -0.001  -0.262631  -0.44817  -0.000532  2.143395  0.0
O  O80  1  0.83631941  0.70930868  0.60324948  1  -0.493635  -0.00221  1.933711  -0.002  -0.460388  -0.0007  2.137701  -0.001  -0.478304  -0.000845  2.129607  -0.001  -0.262615  -0.448188  -0.000533  2.143291  0.0
O  O81  1  0.28281225  0.12089286  0.33123584  1  -0.307513  -0.000264  2.334989  0.0  -0.239985  -0.000131  2.564091  0.0  -0.260742  -0.000144  2.562875  0.0  -0.1309  -0.22545  -0.000126  2.56448  0.0
O  O82  1  0.71717071  0.87908955  0.66876278  1  -0.307491  -0.000264  2.335021  0.0  -0.239878  -0.00013  2.564243  0.0  -0.260619  -0.000147  2.56301  0.0  -0.130906  -0.225343  -0.000125  2.564637  0.0
O  O83  1  0.13382451  0.68566255  0.29349333  1  -0.493129  -0.002233  1.96196  -0.002  -0.453449  -0.000756  2.178047  -0.001  -0.473237  -0.000882  2.171457  -0.001  -0.252351  -0.439896  -0.000627  2.182493  -0.001
O  O84  1  0.86617733  0.31434967  0.70651129  1  -0.493047  -0.002231  1.962167  -0.002  -0.453355  -0.000755  2.178228  -0.001  -0.473154  -0.000885  2.171613  -0.001  -0.252313  -0.439807  -0.000626  2.182668  -0.001
O  O85  1  0.03557864  0.87340065  0.34684973  1  -0.310451  -0.000227  2.332407  0.0  -0.243639  -9.2e-05  2.561317  0.0  -0.263977  -0.000128  2.56035  0.0  -0.132031  -0.229373  -8.1e-05  2.561712  0.0
O  O86  1  0.96438636  0.12658973  0.65316372  1  -0.310471  -0.000232  2.332466  0.0  -0.243655  -9.3e-05  2.561358  0.0  -0.264017  -0.000126  2.560377  0.0  -0.132005  -0.229394  -8.1e-05  2.561744  0.0
O  O87  1  0.37593580  0.70224057  0.07370109  1  -0.569418  -0.001006  1.827899  0.0  -0.555486  -0.001382  2.080795  0.0  -0.572927  -0.001559  2.067832  0.0  -0.228254  -0.543729  -0.001043  2.08959  0.0
O  O88  1  0.62404679  0.29774829  0.92630115  1  -0.569463  -0.000998  1.827838  0.0  -0.555537  -0.001379  2.080777  0.0  -0.572978  -0.001563  2.067812  0.0  -0.228285  -0.543774  -0.001042  2.089568  0.0
O  O89  1  0.49925063  0.93949838  0.09517791  1  -0.465572  0.000671  1.690588  0.001  -0.453261  0.000392  1.890987  0.0  -0.466182  0.000263  1.883973  0.0  -0.195861  -0.443742  0.000615  1.895288  0.001
O  O90  1  0.50073160  0.06048728  0.90482776  1  -0.465577  0.00067  1.690588  0.001  -0.453301  0.000391  1.891006  0.0  -0.466217  0.000264  1.883983  0.0  -0.195812  -0.443779  0.000615  1.895304  0.001
O  O91  1  0.23426952  0.84866842  0.10961250  1  -0.466834  0.000377  1.689894  0.001  -0.459895  1.6e-05  1.889829  0.0  -0.472291  -8.7e-05  1.883688  0.0  -0.204722  -0.450506  8.5e-05  1.893504  0.0
O  O92  1  0.76571523  0.15131722  0.89038005  1  -0.466877  0.000371  1.690125  0.001  -0.459919  1.4e-05  1.890053  0.0  -0.472315  -8.3e-05  1.883911  0.0  -0.204617  -0.450532  8.6e-05  1.893732  0.0
