# generated using pymatgen
data_U2CuH20C18(NO8)2
_symmetry_space_group_name_H-M   'P 1'
_cell_length_a   7.68379686
_cell_length_b   8.38632312
_cell_length_c   11.53306589
_cell_angle_alpha   69.81556265
_cell_angle_beta   80.23403346
_cell_angle_gamma   74.06034765
_symmetry_Int_Tables_number   1
_chemical_formula_structural   U2CuH20C18(NO8)2
_chemical_formula_sum   'U2 Cu1 H20 C18 N2 O16'
_cell_volume   668.40508776
_cell_formula_units_Z   1
loop_
 _symmetry_equiv_pos_site_id
 _symmetry_equiv_pos_as_xyz
  1  'x, y, z'
loop_
 _atom_site_type_symbol
 _atom_site_label
 _atom_site_symmetry_multiplicity
 _atom_site_fract_x
 _atom_site_fract_y
 _atom_site_fract_z
 _atom_site_occupancy
 _atom_site_pbe_cm5_charge
 _atom_site_pbe_ddec_charge
 _atom_site_pbe_ddec_spin_density
 _atom_site_pbe_ddec_sum_bond_order
 _atom_site_pbe_magmom
U  U0  1  0.99661348  0.33890761  0.40858832  1  2.165982  2.476717  -0.008212  4.808753  -0.004
U  U1  1  0.00337434  0.66110206  0.59141102  1  2.165991  2.476928  -0.008211  4.808281  -0.004
Cu  Cu2  1  0.49999939  0.50000007  0.99999930  1  0.747816  0.81263  -0.727528  2.161831  -0.576
H  H3  1  0.32568337  0.65569109  0.33686994  1  0.124952  0.081791  0.000124  0.941732  0.0
H  H4  1  0.67431651  0.34430671  0.66313349  1  0.124921  0.081731  0.000124  0.941716  0.0
H  H5  1  0.42387889  0.63683527  0.73521822  1  0.124603  0.0999  -0.000957  1.016724  -0.002
H  H6  1  0.57612858  0.36316392  0.26477881  1  0.124588  0.099866  -0.000957  1.016772  -0.002
H  H7  1  0.49675388  0.85020389  0.99262002  1  0.114565  0.086713  -0.00097  1.051213  -0.002
H  H8  1  0.50324597  0.14979401  0.00737904  1  0.114561  0.08669  -0.00097  1.051204  -0.002
H  H9  1  0.98063270  0.89026152  0.21167447  1  0.115494  0.146176  -4.5e-05  0.961968  0.0
H  H10  1  0.01937278  0.10973495  0.78832864  1  0.115485  0.146153  -4.5e-05  0.961974  0.0
H  H11  1  0.20184426  0.92588657  0.16090174  1  0.111302  0.140744  -8.1e-05  0.979054  0.0
H  H12  1  0.79815499  0.07411389  0.83909939  1  0.111291  0.140723  -8.1e-05  0.979057  0.0
H  H13  1  0.36357283  0.92759232  0.57237607  1  0.121999  0.132023  -0.000591  1.000318  -0.001
H  H14  1  0.63642772  0.07240820  0.42762229  1  0.122004  0.132028  -0.000591  1.000285  -0.001
H  H15  1  0.36810682  0.19247794  0.62444320  1  0.121565  0.123156  -0.000146  0.999326  0.0
H  H16  1  0.63188581  0.80752260  0.37555693  1  0.121559  0.12313  -0.000146  0.999415  0.0
H  H17  1  0.43322187  0.15495379  0.83982810  1  0.106547  0.116311  -0.00061  1.032551  -0.001
H  H18  1  0.56677004  0.84504416  0.16017186  1  0.106525  0.116301  -0.00061  1.032468  -0.001
H  H19  1  0.13865025  0.39925033  0.98330877  1  0.312403  0.394546  2.7e-05  0.904559  0.0
H  H20  1  0.86135550  0.60074498  0.01668852  1  0.31243  0.394617  2.7e-05  0.904486  0.0
H  H21  1  0.21042991  0.45561090  0.84290917  1  0.298708  0.387238  -5e-06  0.939771  0.0
H  H22  1  0.78957491  0.54438832  0.15708728  1  0.29869  0.387244  -5e-06  0.93977  0.0
C  C23  1  0.23389017  0.58327205  0.20231871  1  0.227178  0.581453  -0.00075  4.124896  0.001
C  C24  1  0.76611377  0.41673095  0.79768300  1  0.227125  0.581447  -0.00075  4.124924  0.001
C  C25  1  0.09367299  0.97027840  0.33314613  1  0.250288  0.70154  1.9e-05  4.080341  0.0
C  C26  1  0.90632563  0.02972471  0.66685270  1  0.250243  0.701401  1.9e-05  4.080404  0.0
C  C27  1  0.19397963  0.67434013  0.30164240  1  0.003795  0.134403  -0.006835  3.967091  -0.008
C  C28  1  0.80602297  0.32566290  0.69835859  1  0.003903  0.134522  -0.006836  3.967044  -0.008
C  C29  1  0.42746257  0.75398621  0.75450408  1  0.058445  0.093653  0.001118  3.915398  0.0
C  C30  1  0.57253961  0.24601297  0.24549528  1  0.058437  0.093663  0.001118  3.915435  0.0
C  C31  1  0.46652014  0.87570506  0.89838066  1  0.04078  0.088556  0.001045  3.92681  0.0
C  C32  1  0.53347940  0.12429415  0.10161813  1  0.040803  0.088622  0.001045  3.926801  0.0
C  C33  1  0.11512675  0.87013002  0.24278073  1  -0.154168  -0.360915  0.000266  3.877628  0.0
C  C34  1  0.88487414  0.12986910  0.75722140  1  -0.154174  -0.360838  0.000266  3.877524  0.0
C  C35  1  0.39404383  0.91653633  0.66394839  1  -0.063302  -0.092418  -0.004127  3.9149  -0.005
C  C36  1  0.60595205  0.08346158  0.33605200  1  -0.063251  -0.092328  -0.004127  3.914834  -0.005
C  C37  1  0.39680771  0.06353913  0.69335075  1  -0.054645  -0.016406  0.004373  3.916252  0.002
C  C38  1  0.60318715  0.93645752  0.30664832  1  -0.054677  -0.016475  0.004373  3.916323  0.002
C  C39  1  0.43335688  0.04250375  0.81284583  1  -0.08695  -0.142079  -0.004018  3.979014  -0.005
C  C40  1  0.56664234  0.95749680  0.18715181  1  -0.086928  -0.142056  -0.004018  3.978871  -0.005
N  N41  1  0.46293643  0.73385256  0.86967822  1  -0.347557  -0.230922  -0.056347  3.612648  -0.074
N  N42  1  0.53706210  0.26614533  0.13032187  1  -0.347553  -0.230973  -0.056346  3.612628  -0.074
O  O43  1  0.22158094  0.22473299  0.45720684  1  -0.752299  -0.702628  7.1e-05  1.915892  0.0
O  O44  1  0.77842340  0.77527389  0.54279475  1  -0.752373  -0.702641  7.1e-05  1.916169  0.0
O  O45  1  0.77660122  0.45631624  0.34562937  1  -0.75828  -0.750795  -5.3e-05  1.80505  0.0
O  O46  1  0.22341226  0.54368546  0.65436896  1  -0.75822  -0.750965  -5.3e-05  1.804516  0.0
O  O47  1  0.13933720  0.47620306  0.21024028  1  -0.36035  -0.601084  -0.001376  2.287876  -0.003
O  O48  1  0.86065617  0.52379998  0.78976349  1  -0.36033  -0.601113  -0.001376  2.287976  -0.003
O  O49  1  0.13037522  0.88192202  0.44498270  1  -0.362915  -0.634792  -6.4e-05  2.335259  0.0
O  O50  1  0.86962475  0.11808100  0.55501947  1  -0.362872  -0.634725  -6.4e-05  2.335357  0.0
O  O51  1  0.07349997  0.59815151  0.39823085  1  -0.500743  -0.7547  -0.002586  2.444987  -0.003
O  O52  1  0.92649560  0.40184771  0.60176925  1  -0.500775  -0.754763  -0.002587  2.445106  -0.003
O  O53  1  0.04091681  0.13525792  0.29421926  1  -0.352471  -0.608448  -0.000117  2.23705  0.0
O  O54  1  0.95907909  0.86473997  0.70578200  1  -0.352461  -0.608383  -0.000117  2.237008  0.0
O  O55  1  0.36028381  0.62226390  0.12006975  1  -0.30167  -0.515226  -0.056261  2.424504  -0.081
O  O56  1  0.63971870  0.37773395  0.87993076  1  -0.301664  -0.515229  -0.056269  2.424415  -0.081
O  O57  1  0.24826742  0.40814461  0.92769030  1  -0.577175  -0.780795  0.000876  2.009987  0.0
O  O58  1  0.75173738  0.59185463  0.07230528  1  -0.577174  -0.780916  0.000877  2.0098  0.0
