# generated using pymatgen
data_ZnH6(C5N4)2
_symmetry_space_group_name_H-M   'P 1'
_cell_length_a   9.22454308
_cell_length_b   10.17406032
_cell_length_c   12.43847082
_cell_angle_alpha   89.99999893
_cell_angle_beta   90.00001514
_cell_angle_gamma   90.00002850
_symmetry_Int_Tables_number   1
_chemical_formula_structural   ZnH6(C5N4)2
_chemical_formula_sum   'Zn4 H24 C40 N32'
_cell_volume   1167.36364277
_cell_formula_units_Z   4
loop_
 _symmetry_equiv_pos_site_id
 _symmetry_equiv_pos_as_xyz
  1  'x, y, z'
loop_
 _atom_site_type_symbol
 _atom_site_label
 _atom_site_symmetry_multiplicity
 _atom_site_fract_x
 _atom_site_fract_y
 _atom_site_fract_z
 _atom_site_occupancy
 _atom_site_hle17_bader_spin_density
 _atom_site_hle17_ddec_charge
 _atom_site_hle17_ddec_spin_density
 _atom_site_hle17_ddec_sum_bond_order
 _atom_site_hle17_magmom
 _atom_site_hse06_10hf_bader_spin_density
 _atom_site_hse06_10hf_ddec_charge
 _atom_site_hse06_10hf_ddec_spin_density
 _atom_site_hse06_10hf_ddec_sum_bond_order
 _atom_site_hse06_10hf_magmom
 _atom_site_hse06_bader_spin_density
 _atom_site_hse06_ddec_charge
 _atom_site_hse06_ddec_spin_density
 _atom_site_hse06_ddec_sum_bond_order
 _atom_site_hse06_magmom
 _atom_site_pbe_bader_spin_density
 _atom_site_pbe_cm5_charge
 _atom_site_pbe_ddec_charge
 _atom_site_pbe_ddec_spin_density
 _atom_site_pbe_ddec_sum_bond_order
 _atom_site_pbe_magmom
Zn  Zn0  1  0.05947754  0.84074596  0.63540206  1  0  0.900077  0  1.987194  0  0  0.697814  0  2.464345  0  0  0.735657  0  2.423617  0  0  0.733336  0.671997  0  2.491759  0
Zn  Zn1  1  0.55947728  0.65925314  0.36459792  1  0  0.900068  0  1.987229  0  0  0.697772  0  2.464392  0  0  0.735607  0  2.423675  0  0  0.7333  0.671952  0  2.4918  0
Zn  Zn2  1  0.94052271  0.34074617  0.86459753  1  0  0.900101  0  1.987219  0  0  0.697778  0  2.464411  0  0  0.735606  0  2.423687  0  0  0.733301  0.671961  0  2.491821  0
Zn  Zn3  1  0.44052162  0.15925412  0.13540173  1  0  0.900106  0  1.987178  0  0  0.697847  0  2.464327  0  0  0.735689  0  2.423601  0  0  0.733331  0.672028  0  2.491736  0
H  H4  1  0.26693926  0.80568724  0.43397057  1  0  0.079584  0  0.966037  0  0  0.084568  0  1.03667  0  0  0.087185  0  1.033501  0  0  0.127119  0.082794  0  1.038466  0
H  H5  1  0.76693909  0.69431195  0.56603026  1  0  0.079716  0  0.96597  0  0  0.084686  0  1.036603  0  0  0.087316  0  1.033415  0  0  0.127188  0.08291  0  1.038398  0
H  H6  1  0.73306079  0.30568736  0.06602909  1  0  0.079611  0  0.966004  0  0  0.084596  0  1.036636  0  0  0.087211  0  1.033466  0  0  0.12713  0.082823  0  1.038432  0
H  H7  1  0.23306109  0.19431381  0.93397013  1  0  0.079621  0  0.966049  0  0  0.084611  0  1.036666  0  0  0.087227  0  1.033497  0  0  0.127141  0.082839  0  1.038467  0
H  H8  1  0.26332828  0.68188710  0.83132247  1  0  0.085612  0  0.979702  0  0  0.088109  0  1.05099  0  0  0.091429  0  1.048117  0  0  0.110817  0.086045  0  1.052355  0
H  H9  1  0.76332803  0.81811209  0.16867675  1  0  0.085619  0  0.979726  0  0  0.088124  0  1.051007  0  0  0.091446  0  1.048135  0  0  0.110809  0.086053  0  1.052375  0
H  H10  1  0.73667189  0.18188919  0.66867632  1  0  0.085641  0  0.979657  0  0  0.088112  0  1.050979  0  0  0.091431  0  1.048106  0  0  0.110807  0.086045  0  1.05234  0
H  H11  1  0.23667203  0.31811198  0.33132371  1  0  0.085633  0  0.979651  0  0  0.088127  0  1.050948  0  0  0.091448  0  1.048073  0  0  0.110816  0.08606  0  1.052318  0
H  H12  1  0.06145806  0.54090008  0.69303375  1  0  0.079512  0  0.991136  0  0  0.081381  0  1.065002  0  0  0.085184  0  1.060571  0  0  0.124577  0.078535  0  1.068287  0
H  H13  1  0.56145794  0.95910098  0.30696624  1  0  0.079504  0  0.991187  0  0  0.081382  0  1.065035  0  0  0.085183  0  1.060605  0  0  0.124598  0.078534  0  1.06832  0
H  H14  1  0.93854095  0.04089931  0.80696504  1  0  0.079567  0  0.991087  0  0  0.081405  0  1.064976  0  0  0.085207  0  1.060545  0  0  0.124597  0.078556  0  1.068254  0
H  H15  1  0.43854221  0.45909999  0.19303422  1  0  0.079521  0  0.991126  0  0  0.081394  0  1.064984  0  0  0.085196  0  1.060554  0  0  0.124596  0.078549  0  1.068269  0
H  H16  1  0.63873976  0.46758435  0.77274537  1  0  0.048226  0  0.956218  0  0  0.053373  0  1.027457  0  0  0.05491  0  1.025992  0  0  0.111172  0.052153  0  1.028589  0
H  H17  1  0.13873971  0.03241482  0.22725464  1  0  0.048213  0  0.956243  0  0  0.053372  0  1.027467  0  0  0.054898  0  1.026013  0  0  0.111164  0.052147  0  1.028604  0
H  H18  1  0.36126165  0.96758329  0.72725341  1  0  0.048202  0  0.956223  0  0  0.053354  0  1.027445  0  0  0.054896  0  1.025975  0  0  0.111179  0.052134  0  1.028577  0
H  H19  1  0.86125911  0.53241693  0.27274502  1  0  0.048234  0  0.956199  0  0  0.053352  0  1.02746  0  0  0.054913  0  1.025973  0  0  0.111154  0.052127  0  1.028589  0
H  H20  1  0.68787190  0.94688858  0.97869110  1  0  0.052444  0  0.946203  0  0  0.058624  0  1.013528  0  0  0.060216  0  1.012069  0  0  0.114795  0.057471  0  1.014564  0
H  H21  1  0.18787396  0.55311157  0.02130971  1  0  0.052458  0  0.946256  0  0  0.058647  0  1.013569  0  0  0.060241  0  1.012108  0  0  0.114806  0.057493  0  1.01461  0
H  H22  1  0.31212624  0.44688851  0.52130929  1  0  0.052423  0  0.946258  0  0  0.058612  0  1.013574  0  0  0.060203  0  1.012116  0  0  0.114799  0.05746  0  1.014614  0
H  H23  1  0.81212705  0.05311172  0.47869156  1  0  0.052452  0  0.946223  0  0  0.058632  0  1.013547  0  0  0.060223  0  1.012089  0  0  0.114794  0.057474  0  1.014591  0
H  H24  1  0.72125539  0.54264291  0.01518039  1  0  0.08182  0  0.945106  0  0  0.086379  0  1.016084  0  0  0.089672  0  1.011788  0  0  0.112398  0.08397  0  1.018983  0
H  H25  1  0.22125692  0.95735627  0.98481963  1  0  0.081811  0  0.945144  0  0  0.086367  0  1.01613  0  0  0.08966  0  1.011835  0  0  0.11239  0.083954  0  1.019028  0
H  H26  1  0.27874344  0.04264380  0.48481927  1  0  0.081779  0  0.94513  0  0  0.086343  0  1.016127  0  0  0.089636  0  1.011833  0  0  0.112375  0.083934  0  1.019026  0
H  H27  1  0.77874340  0.45735543  0.51518076  1  0  0.081796  0  0.945155  0  0  0.086345  0  1.016152  0  0  0.089638  0  1.011856  0  0  0.112385  0.083933  0  1.019049  0
C  C28  1  0.31496983  0.75687488  0.50323471  1  0  0.271306  0  3.693304  0  0  0.216948  0  3.957729  0  0  0.233579  0  3.969255  0  0  0.153485  0.20652  0  3.94907  0
C  C29  1  0.81496965  0.74312434  0.49676451  1  0  0.271175  0  3.693362  0  0  0.216832  0  3.957805  0  0  0.233461  0  3.969317  0  0  0.153413  0.206409  0  3.949145  0
C  C30  1  0.68502930  0.25687497  0.99676407  1  0  0.27128  0  3.693349  0  0  0.216928  0  3.957782  0  0  0.23356  0  3.969306  0  0  0.153462  0.206493  0  3.94913  0
C  C31  1  0.18502929  0.24312618  0.00323514  1  0  0.271164  0  3.69348  0  0  0.21681  0  3.957902  0  0  0.233441  0  3.969429  0  0  0.153415  0.206376  0  3.949259  0
C  C32  1  0.46118844  0.64154436  0.60082390  1  0  0.32101  0  3.856144  0  0  0.29725  0  4.114898  0  0  0.309478  0  4.133611  0  0  0.212639  0.289382  0  4.101543  0
C  C33  1  0.96118829  0.85845492  0.39917617  1  0  0.320876  0  3.856267  0  0  0.297244  0  4.114876  0  0  0.309474  0  4.133586  0  0  0.212638  0.289386  0  4.10151  0
C  C34  1  0.53881171  0.14154439  0.89917489  1  0  0.320962  0  3.856129  0  0  0.297287  0  4.114782  0  0  0.309517  0  4.133491  0  0  0.21266  0.289425  0  4.101422  0
C  C35  1  0.03881179  0.35845670  0.10082429  1  0  0.321118  0  3.855947  0  0  0.297291  0  4.114778  0  0  0.30952  0  4.133487  0  0  0.212681  0.289434  0  4.101405  0
C  C36  1  0.34538110  0.68670624  0.66595327  1  0  0.049625  0  3.83281  0  0  0.052564  0  4.0714  0  0  0.049173  0  4.097197  0  0  0.084855  0.054638  0  4.054039  0
C  C37  1  0.84538091  0.81329200  0.33404596  1  0  0.049739  0  3.832858  0  0  0.052641  0  4.071422  0  0  0.049248  0  4.097221  0  0  0.084858  0.054708  0  4.054057  0
C  C38  1  0.65461907  0.18670633  0.83404632  1  0  0.049709  0  3.832834  0  0  0.052636  0  4.071381  0  0  0.049243  0  4.097179  0  0  0.084878  0.0547  0  4.054028  0
C  C39  1  0.15461916  0.31329481  0.16595450  1  0  0.049588  0  3.832731  0  0  0.052561  0  4.071314  0  0  0.049171  0  4.097109  0  0  0.084857  0.054637  0  4.05395  0
C  C40  1  0.34528463  0.64895828  0.77368999  1  0  0.090234  0  3.701373  0  0  0.062206  0  3.957212  0  0  0.069862  0  3.971741  0  0  0.05424  0.057119  0  3.947207  0
C  C41  1  0.84528333  0.85103996  0.22631005  1  0  0.090202  0  3.701304  0  0  0.062172  0  3.957145  0  0  0.069826  0  3.971678  0  0  0.054262  0.057095  0  3.947129  0
C  C42  1  0.65471553  0.14895837  0.72630960  1  0  0.090181  0  3.70131  0  0  0.062169  0  3.957151  0  0  0.069826  0  3.971683  0  0  0.054227  0.057095  0  3.947138  0
C  C43  1  0.15471458  0.35104179  0.27368960  1  0  0.090207  0  3.701337  0  0  0.062179  0  3.957163  0  0  0.069834  0  3.971692  0  0  0.054216  0.057089  0  3.947169  0
C  C44  1  0.87519492  0.74922319  0.83096718  1  0  0.334192  0  3.838754  0  0  0.308353  0  4.098416  0  0  0.321586  0  4.116052  0  0  0.218198  0.299623  0  4.086552  0
C  C45  1  0.37519605  0.75077704  0.16903367  1  0  0.334334  0  3.838844  0  0  0.308421  0  4.098522  0  0  0.321655  0  4.116155  0  0  0.218202  0.299695  0  4.08665  0
C  C46  1  0.12480420  0.24922402  0.66903322  1  0  0.334332  0  3.838826  0  0  0.308422  0  4.098498  0  0  0.321656  0  4.116134  0  0  0.218209  0.299696  0  4.086637  0
C  C47  1  0.62480506  0.25077612  0.33096679  1  0  0.334174  0  3.838965  0  0  0.30836  0  4.098525  0  0  0.321595  0  4.116159  0  0  0.218204  0.299631  0  4.08666  0
C  C48  1  0.99086021  0.59339752  0.74897962  1  0  0.264891  0  3.693013  0  0  0.210507  0  3.959473  0  0  0.226709  0  3.970895  0  0  0.150955  0.200126  0  3.950625  0
C  C49  1  0.49086038  0.90660472  0.25102125  1  0  0.264898  0  3.693168  0  0  0.210513  0  3.959642  0  0  0.226717  0  3.971064  0  0  0.150909  0.200132  0  3.950793  0
C  C50  1  0.00913991  0.09339633  0.75101997  1  0  0.264836  0  3.693023  0  0  0.210495  0  3.959502  0  0  0.226698  0  3.970923  0  0  0.150921  0.200128  0  3.950633  0
C  C51  1  0.50914082  0.40660277  0.24897921  1  0  0.264855  0  3.693006  0  0  0.210476  0  3.959493  0  0  0.226681  0  3.970915  0  0  0.150902  0.200094  0  3.950645  0
C  C52  1  0.55508468  0.53218686  0.74035874  1  0  0.271453  0  3.764796  0  0  0.227444  0  4.049783  0  0  0.240241  0  4.063462  0  0  0.153742  0.219109  0  4.040247  0
C  C53  1  0.05508488  0.96781322  0.25964043  1  0  0.271486  0  3.764815  0  0  0.227467  0  4.049813  0  0  0.240274  0  4.063492  0  0  0.153726  0.219134  0  4.04028  0
C  C54  1  0.44491649  0.03218587  0.75964005  1  0  0.271533  0  3.764854  0  0  0.227519  0  4.049859  0  0  0.240316  0  4.063536  0  0  0.153735  0.219179  0  4.040328  0
C  C55  1  0.94491635  0.46781344  0.24035841  1  0  0.271473  0  3.764803  0  0  0.227486  0  4.049789  0  0  0.240268  0  4.063464  0  0  0.153733  0.219165  0  4.040236  0
C  C56  1  0.73354893  0.85517987  0.94841086  1  0  0.284258  0  3.7407  0  0  0.238735  0  4.026556  0  0  0.252336  0  4.038433  0  0  0.16148  0.229836  0  4.018286  0
C  C57  1  0.23355105  0.64482127  0.05158996  1  0  0.284199  0  3.740772  0  0  0.23867  0  4.026633  0  0  0.252268  0  4.038512  0  0  0.161471  0.229772  0  4.018368  0
C  C58  1  0.26645025  0.35517978  0.55158953  1  0  0.284303  0  3.740727  0  0  0.238776  0  4.026571  0  0  0.252376  0  4.03845  0  0  0.16148  0.229878  0  4.01831  0
C  C59  1  0.76645109  0.14481944  0.44841130  1  0  0.28426  0  3.740741  0  0  0.238737  0  4.0266  0  0  0.252336  0  4.038479  0  0  0.161498  0.229842  0  4.018334  0
C  C60  1  0.75112156  0.63059599  0.97031468  1  0  0.107365  0  3.707053  0  0  0.072804  0  3.970165  0  0  0.081934  0  3.983307  0  0  0.05999  0.067107  0  3.961134  0
C  C61  1  0.25112271  0.86940418  0.02968534  1  0  0.107461  0  3.707038  0  0  0.072862  0  3.970104  0  0  0.081993  0  3.983243  0  0  0.060009  0.06717  0  3.961067  0
C  C62  1  0.24887750  0.13059590  0.52968571  1  0  0.10752  0  3.707001  0  0  0.072878  0  3.970115  0  0  0.082009  0  3.983256  0  0  0.060004  0.06719  0  3.961083  0
C  C63  1  0.74887847  0.36940529  0.47031512  1  0  0.107476  0  3.707018  0  0  0.072883  0  3.970098  0  0  0.082014  0  3.983237  0  0  0.060003  0.067194  0  3.961063  0
C  C64  1  0.84533976  0.62808571  0.88284333  1  0  0.049374  0  3.829433  0  0  0.050967  0  4.072439  0  0  0.047524  0  4.097642  0  0  0.085504  0.052387  0  4.055811  0
C  C65  1  0.34534202  0.87191549  0.11715671  1  0  0.049137  0  3.82949  0  0  0.050885  0  4.072358  0  0  0.047442  0  4.097557  0  0  0.085475  0.052307  0  4.055725  0
C  C66  1  0.15465821  0.12808458  0.61715707  1  0  0.049127  0  3.829522  0  0  0.050892  0  4.072405  0  0  0.047448  0  4.097607  0  0  0.085468  0.05231  0  4.055784  0
C  C67  1  0.65466024  0.37191459  0.38284375  1  0  0.049264  0  3.829481  0  0  0.050958  0  4.072362  0  0  0.047515  0  4.097562  0  0  0.085518  0.052378  0  4.055731  0
N  N68  1  0.25370285  0.76058626  0.60149518  1  0  -0.439172  0  3.245235  0  0  -0.35767  0  3.538461  0  0  -0.378927  0  3.551156  0  0  -0.367383  -0.343362  0  3.529233  0
N  N69  1  0.75370373  0.73941292  0.39850404  1  0  -0.439242  0  3.245302  0  0  -0.357742  0  3.538547  0  0  -0.378998  0  3.551245  0  0  -0.367412  -0.343439  0  3.52932  0
N  N70  1  0.74629627  0.26058639  0.89850361  1  0  -0.439216  0  3.245247  0  0  -0.357717  0  3.538493  0  0  -0.378968  0  3.551182  0  0  -0.367388  -0.343407  0  3.529266  0
N  N71  1  0.24629738  0.23941381  0.10149562  1  0  -0.439202  0  3.245171  0  0  -0.357711  0  3.538407  0  0  -0.378967  0  3.551098  0  0  -0.367403  -0.343408  0  3.529186  0
N  N72  1  0.43972937  0.68753681  0.49781525  1  0  -0.480937  0  3.214077  0  0  -0.398055  0  3.51073  0  0  -0.42083  0  3.5189  0  0  -0.368171  -0.382956  0  3.504617  0
N  N73  1  0.93972924  0.81246345  0.50218481  1  0  -0.480885  0  3.21412  0  0  -0.39806  0  3.510756  0  0  -0.420839  0  3.518926  0  0  -0.368174  -0.382972  0  3.50465  0
N  N74  1  0.56027062  0.18753686  0.00218441  1  0  -0.480957  0  3.21408  0  0  -0.398121  0  3.510735  0  0  -0.420897  0  3.5189  0  0  -0.368193  -0.38302  0  3.504622  0
N  N75  1  0.06027100  0.31246424  0.99781478  1  0  -0.480855  0  3.214111  0  0  -0.397955  0  3.510799  0  0  -0.420728  0  3.518965  0  0  -0.368156  -0.382863  0  3.504692  0
N  N76  1  0.96758105  0.72477083  0.74604839  1  0  -0.478502  0  3.199207  0  0  -0.395416  0  3.499311  0  0  -0.418225  0  3.50646  0  0  -0.367684  -0.380218  0  3.493695  0
N  N77  1  0.46758331  0.77523042  0.25395248  1  0  -0.478521  0  3.199243  0  0  -0.395392  0  3.499323  0  0  -0.418199  0  3.506473  0  0  -0.367628  -0.380191  0  3.493699  0
N  N78  1  0.03241806  0.22477063  0.75395201  1  0  -0.478556  0  3.199204  0  0  -0.395449  0  3.499318  0  0  -0.418253  0  3.506461  0  0  -0.367668  -0.380254  0  3.493697  0
N  N79  1  0.53241890  0.27522947  0.24604798  1  0  -0.478483  0  3.19925  0  0  -0.395412  0  3.499343  0  0  -0.418223  0  3.506492  0  0  -0.367665  -0.380214  0  3.493726  0
N  N80  1  0.56926098  0.56535946  0.63646494  1  0  -0.422007  0  3.034985  0  0  -0.380279  0  3.302729  0  0  -0.396439  0  3.31577  0  0  -0.320871  -0.369222  0  3.293088  0
N  N81  1  0.06926120  0.93463964  0.36353504  1  0  -0.421972  0  3.034952  0  0  -0.380287  0  3.302668  0  0  -0.396447  0  3.315703  0  0  -0.320868  -0.369241  0  3.293031  0
N  N82  1  0.43073912  0.06535846  0.86353384  1  0  -0.42203  0  3.035009  0  0  -0.380333  0  3.302733  0  0  -0.396495  0  3.315777  0  0  -0.320882  -0.369277  0  3.293091  0
N  N83  1  0.93073893  0.43464281  0.13646542  1  0  -0.42202  0  3.03497  0  0  -0.380273  0  3.302729  0  0  -0.396435  0  3.31578  0  0  -0.320853  -0.369227  0  3.293084  0
N  N84  1  0.92119931  0.53040201  0.82889780  1  0  -0.433887  0  3.258195  0  0  -0.352104  0  3.557614  0  0  -0.373135  0  3.568851  0  0  -0.367299  -0.337821  0  3.549312  0
N  N85  1  0.42120056  0.96959922  0.17110306  1  0  -0.433804  0  3.258234  0  0  -0.352126  0  3.557695  0  0  -0.373162  0  3.568933  0  0  -0.367315  -0.337845  0  3.549391  0
N  N86  1  0.07879969  0.03040085  0.67110179  1  0  -0.433756  0  3.258166  0  0  -0.352084  0  3.557606  0  0  -0.373121  0  3.568849  0  0  -0.367297  -0.337806  0  3.549304  0
N  N87  1  0.57880067  0.46959829  0.32889820  1  0  -0.433783  0  3.258132  0  0  -0.352078  0  3.55758  0  0  -0.373115  0  3.568823  0  0  -0.367287  -0.337796  0  3.549276  0
N  N88  1  0.82039550  0.86468445  0.86240030  1  0  -0.408133  0  3.034581  0  0  -0.365227  0  3.296338  0  0  -0.381358  0  3.308905  0  0  -0.315849  -0.354575  0  3.287755  0
N  N89  1  0.32039872  0.63531673  0.13760054  1  0  -0.408127  0  3.034608  0  0  -0.365224  0  3.296392  0  0  -0.381355  0  3.30896  0  0  -0.315845  -0.354576  0  3.287811  0
N  N90  1  0.17960260  0.36468334  0.63760010  1  0  -0.408176  0  3.034655  0  0  -0.365264  0  3.296432  0  0  -0.381396  0  3.309001  0  0  -0.315858  -0.354609  0  3.287853  0
N  N91  1  0.67960341  0.13531486  0.36240072  1  0  -0.408117  0  3.03471  0  0  -0.36524  0  3.29646  0  0  -0.38137  0  3.309027  0  0  -0.315863  -0.354583  0  3.287872  0
N  N92  1  0.69572138  0.74585970  0.00279301  1  0  -0.354316  0  3.056376  0  0  -0.316631  0  3.328929  0  0  -0.331562  0  3.342701  0  0  -0.326469  -0.306596  0  3.319279  0
N  N93  1  0.19572390  0.75413946  0.99720700  1  0  -0.354315  0  3.056418  0  0  -0.316634  0  3.328987  0  0  -0.331563  0  3.342757  0  0  -0.326464  -0.3066  0  3.319336  0
N  N94  1  0.30427756  0.24586061  0.49720665  1  0  -0.354357  0  3.056372  0  0  -0.31666  0  3.328953  0  0  -0.331589  0  3.342722  0  0  -0.326413  -0.306623  0  3.319305  0
N  N95  1  0.80427848  0.25413962  0.50279339  1  0  -0.354372  0  3.056341  0  0  -0.316681  0  3.328899  0  0  -0.331611  0  3.34267  0  0  -0.326477  -0.306651  0  3.319255  0
N  N96  1  0.45075433  0.56954557  0.80985843  1  0  -0.35405  0  3.026775  0  0  -0.322619  0  3.298879  0  0  -0.336172  0  3.312276  0  0  -0.335549  -0.314029  0  3.289883  0
N  N97  1  0.95075524  0.93045469  0.19014082  1  0  -0.354048  0  3.026752  0  0  -0.322623  0  3.298866  0  0  -0.336177  0  3.312259  0  0  -0.33554  -0.314037  0  3.289864  0
N  N98  1  0.54924577  0.06954462  0.69014035  1  0  -0.354052  0  3.026738  0  0  -0.322619  0  3.298834  0  0  -0.336173  0  3.312231  0  0  -0.335537  -0.314035  0  3.289838  0
N  N99  1  0.04924489  0.43045549  0.30985963  1  0  -0.354078  0  3.026709  0  0  -0.322647  0  3.298799  0  0  -0.336203  0  3.312205  0  0  -0.335537  -0.314063  0  3.289802  0
