# generated using pymatgen
data_ZnH22C36(NO3)2
_symmetry_space_group_name_H-M   'P 1'
_cell_length_a   12.43033974
_cell_length_b   13.19672356
_cell_length_c   27.32752291
_cell_angle_alpha   88.03588659
_cell_angle_beta   79.99534810
_cell_angle_gamma   81.29891467
_symmetry_Int_Tables_number   1
_chemical_formula_structural   ZnH22C36(NO3)2
_chemical_formula_sum   'Zn2 H44 C72 N4 O12'
_cell_volume   4363.67821638
_cell_formula_units_Z   2
loop_
 _symmetry_equiv_pos_site_id
 _symmetry_equiv_pos_as_xyz
  1  'x, y, z'
loop_
 _atom_site_type_symbol
 _atom_site_label
 _atom_site_symmetry_multiplicity
 _atom_site_fract_x
 _atom_site_fract_y
 _atom_site_fract_z
 _atom_site_occupancy
 _atom_site_pbe_bader_charge
 _atom_site_pbe_bader_spin_density
 _atom_site_pbe_cm5_charge
 _atom_site_pbe_ddec_charge
 _atom_site_pbe_ddec_spin_density
 _atom_site_pbe_ddec_sum_bond_order
 _atom_site_pbe_magmom
Zn  Zn0  1  0.89447913  0.47734649  0.48707068  1  1.293522  0  0.673443  0.837899  0  2.361474  0
Zn  Zn1  1  0.09902800  0.52245366  0.51411445  1  1.299757  0  0.679609  0.855518  0  2.323326  0
H  H2  1  0.69424257  0.50495018  0.63584624  1  0.104805  0  0.101879  0.102718  0  1.006724  0
H  H3  1  0.11608085  0.73723591  0.45732871  1  0.082481  0  0.102556  0.115062  0  1.032872  0
H  H4  1  0.64224292  0.28934861  0.39888982  1  0.062945  0  0.114396  0.128422  0  0.979654  0
H  H5  1  0.67129560  0.54510999  0.52019044  1  0.096217  0  0.122885  0.09486  0  1.009976  0
H  H6  1  0.52569476  0.76293699  0.86711661  1  0.114822  0  0.113981  0.122609  0  0.986548  0
H  H7  1  0.52642562  0.63075272  0.55649205  1  0.09911  0  0.117721  0.117822  0  0.982015  0
H  H8  1  0.34653169  0.72068952  0.59839552  1  0.083851  0  0.113347  0.122297  0  0.984742  0
H  H9  1  0.26850144  0.43758842  0.45302771  1  0.159476  0  0.115332  0.133959  0  1.05088  0
H  H10  1  0.15942073  0.66269549  0.35692357  1  0.092  0  0.106282  0.110036  0  0.992206  0
H  H11  1  0.25374991  0.67102737  0.26872147  1  0.072002  0  0.108998  0.118515  0  0.981626  0
H  H12  1  0.29388646  0.71549025  0.01339328  1  0.076475  0  0.105868  0.107239  0  1.025095  0
H  H13  1  0.93832440  0.51203454  0.76151374  1  0.078117  0  0.108969  0.116803  0  0.982694  0
H  H14  1  0.01780847  0.50302387  0.67065183  1  0.089483  0  0.105977  0.107651  0  1.003862  0
H  H15  1  0.69118908  0.33520079  0.06404699  1  0.069871  0  0.106899  0.106836  0  1.002104  0
H  H16  1  0.19518569  0.24782785  0.32507872  1  0.014803  0  0.090639  0.122613  0  0.999903  0
H  H17  1  0.14976936  0.30044209  0.38563815  1  0.069707  0  0.093  0.136204  0  1.001799  0
H  H18  1  0.05504127  0.30210480  0.34459761  1  0.05022  0  0.093906  0.133691  0  1.007731  0
H  H19  1  0.26635584  0.26274702  0.53750404  1  0.081927  0  0.092987  0.142314  0  1.013109  0
H  H20  1  0.35592998  0.14360342  0.53562810  1  0.024456  0  0.087831  0.119801  0  1.008368  0
H  H21  1  0.35728992  0.22452050  0.48244848  1  0.027254  0  0.08487  0.116824  0  1.025627  0
H  H22  1  0.36873754  0.92436834  0.50833465  1  0.023096  0  0.088592  0.118557  0  1.001782  0
H  H23  1  0.38127920  0.94492739  0.44347025  1  0.049452  0  0.092411  0.125332  0  0.997392  0
H  H24  1  0.79659330  0.29437340  0.90064039  1  0.123675  0  0.115243  0.12075  0  0.981338  0
H  H25  1  0.41739657  0.03637244  0.48091618  1  0.038363  0  0.090629  0.123785  0  1.025973  0
H  H26  1  0.61385678  0.51279751  0.72675978  1  0.095778  0  0.107726  0.114456  0  0.982737  0
H  H27  1  0.72036654  0.80183311  0.48815200  1  0.05889  0  0.10054  0.102962  0  1.001753  0
H  H28  1  0.82065134  0.09905776  0.49190842  1  0.034395  0  0.100599  0.10056  0  1.020176  0
H  H29  1  0.92154442  0.30693889  0.42998647  1  0.114678  0  0.102238  0.155009  0  1.042713  0
H  H30  1  0.84081965  0.21420597  0.41623179  1  0.057847  0  0.096612  0.136764  0  0.998429  0
H  H31  1  0.86843986  0.31508601  0.37362144  1  0.070987  0  0.103227  0.149315  0  0.977762  0
H  H32  1  0.43888964  0.34153912  0.40804431  1  0.068404  0  0.115269  0.117654  0  0.971767  0
H  H33  1  0.15521935  0.74223752  0.61548376  1  0.020512  0  0.097595  0.140235  0  0.988478  0
H  H34  1  0.09366796  0.73189767  0.56167746  1  0.114641  0  0.105812  0.1695  0  1.008607  0
H  H35  1  0.59993233  0.33939167  0.15243388  1  0.09209  0  0.116085  0.122018  0  0.979959  0
H  H36  1  0.09122919  0.63301451  0.60628476  1  0.076125  0  0.104132  0.1618  0  1.007788  0
H  H37  1  0.19383172  0.69921056  0.09895864  1  0.072773  0  0.115255  0.121299  0  0.980798  0
H  H38  1  0.45454704  0.86532443  0.93587917  1  0.042661  0  0.100003  0.138443  0  0.982642  0
H  H39  1  0.33213052  0.81092317  0.95321350  1  0.062221  0  0.098827  0.134105  0  0.985518  0
H  H40  1  0.41899370  0.81863021  0.99762457  1  0.069907  0  0.096938  0.134032  0  1.000804  0
H  H41  1  0.24349059  0.34941822  0.25413319  1  0.068002  0  0.10586  0.11696  0  0.991915  0
H  H42  1  0.71983707  0.30230700  0.99087004  1  0.07171  0  0.10654  0.106101  0  1.003173  0
H  H43  1  0.26372588  0.83795075  0.45815513  1  0.083405  0  0.098365  0.098239  0  1.019471  0
H  H44  1  0.94009369  0.17876258  0.49633693  1  0.118422  0  0.102822  0.109708  0  1.042847  0
H  H45  1  0.67411937  0.99357598  0.49159798  1  0.088544  0  0.097721  0.094695  0  1.002342  0
C  C46  1  0.91686238  0.68901998  0.48887327  1  1.577977  0  0.214535  0.598028  0  4.168844  0
C  C47  1  0.43573876  0.60458514  0.02257380  1  0.022616  0  0.00525  0.048576  0  3.966288  0
C  C48  1  0.57255090  0.45490917  0.03991962  1  -0.040235  0  0.004662  0.042076  0  3.985936  0
C  C49  1  0.90905319  0.50176761  0.59364535  1  1.547994  0  0.218272  0.601896  0  4.154732  0
C  C50  1  0.47752319  0.52860076  0.05593665  1  0.001222  0  0.003958  0.000101  0  3.9157  0
C  C51  1  0.33248076  0.66308475  0.03889660  1  -0.034947  0  -0.083855  -0.128223  0  3.973744  0
C  C52  1  0.27455852  0.65388264  0.08713845  1  0.033324  0  -0.070958  -0.071634  0  3.977575  0
C  C53  1  0.31920238  0.58741885  0.12127975  1  -0.064018  0  -0.01192  -0.073396  0  4.012293  0
C  C54  1  0.42138322  0.52410504  0.10610416  1  0.024101  0  0.002755  0.038042  0  4.007683  0
C  C55  1  0.46688644  0.45509454  0.14049993  1  -0.084362  0  -0.013042  -0.074067  0  4.004267  0
C  C56  1  0.41228118  0.45161291  0.19302277  1  1.31891  0  0.239067  0.431923  0  4.100663  0
C  C57  1  0.70226129  0.51083468  0.71412549  1  -0.096841  0  -0.083328  -0.148956  0  3.981467  0
C  C58  1  0.25689718  0.58085313  0.17229273  1  1.337647  0  0.240327  0.432825  0  4.100292  0
C  C59  1  0.22975079  0.59944065  0.28478547  1  0.00688  0  -0.090115  -0.161394  0  4.003329  0
C  C60  1  0.17646609  0.59463510  0.33372644  1  -0.071059  0  -0.082773  -0.077426  0  3.996174  0
C  C61  1  0.06943169  0.30649254  0.50483028  1  1.517976  0  0.214367  0.594059  0  4.153644  0
C  C62  1  0.16780390  0.41261470  0.32575462  1  0.010578  0  -0.000354  0.165398  0  3.941786  0
C  C63  1  0.22232152  0.41855503  0.27661634  1  0.011627  0  -0.089371  -0.217705  0  3.940525  0
C  C64  1  0.25216702  0.51062109  0.25634261  1  0.309224  0  0.084145  0.193411  0  4.03385  0
C  C65  1  0.49948866  0.61471260  0.97266338  1  -0.025765  0  0.004002  -0.02345  0  3.909105  0
C  C66  1  0.58209987  0.52990859  0.95463446  1  0.011728  0  0.003085  0.004265  0  3.930917  0
C  C67  1  0.61761272  0.44886784  0.98693456  1  -0.041411  0  0.003089  0.037315  0  3.981492  0
C  C68  1  0.77183435  0.51338852  0.74886237  1  0.339497  0  0.088926  0.193067  0  4.012357  0
C  C69  1  0.48468110  0.70196888  0.94158816  1  0.003256  0  0.001761  0.133662  0  3.918195  0
C  C70  1  0.73832245  0.36020258  0.91618343  1  -0.01266  0  -0.071174  -0.071424  0  3.980178  0
C  C71  1  0.61597440  0.38895487  0.07523894  1  0.017301  0  -0.082803  -0.125077  0  3.973704  0
C  C72  1  0.56513823  0.39020541  0.12502643  1  0.011723  0  -0.068935  -0.069033  0  3.973918  0
C  C73  1  0.08676923  0.50418449  0.40728271  1  1.573707  0  0.218681  0.601586  0  4.167137  0
C  C74  1  0.69442511  0.36561693  0.96677861  1  -0.016268  0  -0.081942  -0.123077  0  3.976796  0
C  C75  1  0.24069507  0.03874445  0.48582075  1  0.021873  0  -0.014341  0.049832  0  3.90591  0
C  C76  1  0.10543134  0.19273307  0.49991140  1  -0.057482  0  -0.022395  -0.098671  0  3.957423  0
C  C77  1  0.78533184  0.84978506  0.48542613  1  -0.065933  0  -0.089027  -0.098356  0  4.009008  0
C  C78  1  0.75996750  0.95708747  0.48781229  1  -0.144819  0  -0.100917  -0.097423  0  4.076181  0
C  C79  1  0.63239445  0.52615691  0.90347555  1  -0.000603  0  2.9e-05  0.028143  0  4.024884  0
C  C80  1  0.84298006  0.01642466  0.48751030  1  -0.070607  0  -0.090571  -0.129903  0  4.000893  0
C  C81  1  0.95518168  0.97150400  0.48233332  1  0.012637  0  -0.000975  0.03825  0  3.944536  0
C  C82  1  0.98150091  0.86301620  0.47694772  1  0.031367  0  -0.002657  0.058423  0  3.956179  0
C  C83  1  0.04374409  0.03106330  0.48435169  1  0.035072  0  -0.011634  0.024611  0  4.000308  0
C  C84  1  0.15564369  0.98223624  0.47851605  1  -0.036917  0  -0.011487  0.020795  0  4.002404  0
C  C85  1  0.65516874  0.60864313  0.81842701  1  1.340828  0  0.24024  0.434565  0  4.100996  0
C  C86  1  0.17841468  0.87549427  0.46653789  1  -0.093873  0  -0.100322  -0.13929  0  4.027562  0
C  C87  1  0.09557915  0.81841562  0.46617215  1  -0.050323  0  -0.091087  -0.12401  0  3.999939  0
C  C88  1  0.02301110  0.13660594  0.49333278  1  -0.069339  0  -0.08919  -0.144992  0  3.998996  0
C  C89  1  0.21571583  0.14235303  0.49919706  1  0.011326  0  -0.003749  0.100619  0  3.904067  0
C  C90  1  0.60659749  0.61010731  0.87186608  1  -0.032919  0  -0.012916  -0.067477  0  4.03484  0
C  C91  1  0.89404904  0.80273069  0.48159278  1  0.058369  0  -0.011747  -0.066263  0  3.925816  0
C  C92  1  0.64541154  0.34685391  0.42615327  1  -0.01182  0  -0.08291  -0.24024  0  3.924632  0
C  C93  1  0.24961449  0.63676114  0.56070228  1  0.543133  0  0.139861  0.34712  0  3.926676  0
C  C94  1  0.34988884  0.66189633  0.57093162  1  -0.10389  0  -0.083907  -0.192292  0  3.966932  0
C  C95  1  0.44993049  0.61186953  0.54728028  1  -0.01522  0  -0.062117  -0.068997  0  3.98514  0
C  C96  1  0.45215558  0.53700087  0.51144811  1  0.037076  0  0.00346  -0.004217  0  3.976422  0
C  C97  1  0.75657916  0.43307540  0.83103839  1  1.33253  0  0.240326  0.431533  0  4.107113  0
C  C98  1  0.34867324  0.51807209  0.50090423  1  0.437814  0  0.12096  0.214346  0  3.946644  0
C  C99  1  0.55291875  0.47884388  0.48535371  1  0.035316  0  -0.000999  -0.018247  0  3.977954  0
C  C100  1  0.54708411  0.40577391  0.44910568  1  0.027649  0  0.006649  0.110421  0  4.058702  0
C  C101  1  0.53824477  0.69683418  0.89168678  1  0.004619  0  -0.069746  -0.131751  0  3.929154  0
C  C102  1  0.44222734  0.39440310  0.43740201  1  -0.05618  0  -0.074083  -0.110778  0  3.972225  0
C  C103  1  0.34730943  0.44785931  0.46228630  1  -0.028169  0  -0.070354  -0.125327  0  3.930918  0
C  C104  1  0.65888065  0.48966669  0.49376188  1  0.482586  0  0.06301  0.070235  0  3.898372  0
C  C105  1  0.74657729  0.36040067  0.43753694  1  0.489177  0  0.125655  0.322444  0  3.939494  0
C  C106  1  0.88528418  0.51091326  0.73379340  1  -0.070824  0  -0.085036  -0.152791  0  3.9855  0
C  C107  1  0.92934626  0.50607011  0.68338849  1  0.020645  0  -0.080873  -0.076191  0  3.975431  0
C  C108  1  0.74678655  0.50677692  0.66371658  1  -0.004387  0  -0.081176  -0.077532  0  3.978356  0
C  C109  1  0.14088613  0.31039893  0.34642854  1  -0.055264  0  -0.237569  -0.406797  0  3.965093  0
C  C110  1  0.30330098  0.19607648  0.51458225  1  -0.057291  0  -0.245723  -0.404131  0  3.987674  0
C  C111  1  0.35791855  0.98377689  0.47955464  1  -0.082434  0  -0.240311  -0.399616  0  4.000943  0
C  C112  1  0.70861628  0.44010376  0.88446238  1  -0.049238  0  -0.012512  -0.069357  0  4.006543  0
C  C113  1  0.85053345  0.29572779  0.41337120  1  -0.113336  0  -0.235435  -0.457695  0  3.930247  0
C  C114  1  0.14197609  0.68928519  0.58785197  1  -0.039884  0  -0.239561  -0.475265  0  3.913671  0
C  C115  1  0.41891501  0.80409942  0.95833982  1  -0.100536  0  -0.230954  -0.410114  0  3.971753  0
C  C116  1  0.86054826  0.50463467  0.64796245  1  0.01412  0  -0.015241  -0.03282  0  3.953877  0
C  C117  1  0.14385371  0.50289257  0.35419725  1  -0.017235  0  -0.014829  -0.088669  0  3.920489  0
N  N118  1  0.72593911  0.51836217  0.80108368  1  -1.194679  0  -0.230022  -0.20876  0  3.566594  0
N  N119  1  0.30866311  0.51401495  0.20564210  1  -1.159238  0  -0.228571  -0.204376  0  3.55329  0
N  N120  1  0.75167737  0.43385954  0.47078332  1  -1.216734  0  -0.317704  -0.254457  0  3.451323  0
N  N121  1  0.24987549  0.56584019  0.52641862  1  -1.223697  0  -0.302435  -0.309421  0  3.351951  0
O  O122  1  0.85881611  0.63195742  0.47146719  1  -1.166626  0  -0.321791  -0.546939  0  2.274687  0
O  O123  1  0.00120306  0.46067121  0.41841532  1  -1.17181  0  -0.306715  -0.538925  0  2.320879  0
O  O124  1  0.12991885  0.54993210  0.43767156  1  -1.176669  0  -0.316825  -0.56687  0  2.355214  0
O  O125  1  0.63578371  0.68099696  0.79011227  1  -1.099882  0  -0.28403  -0.442899  0  2.066673  0
O  O126  1  0.16480930  0.63034917  0.18550774  1  -1.107796  0  -0.282516  -0.442129  0  2.071738  0
O  O127  1  0.81924546  0.35744195  0.81291469  1  -1.10039  0  -0.282304  -0.44077  0  2.06987  0
O  O128  1  0.45374776  0.39742951  0.22445235  1  -1.106708  0  -0.284061  -0.444853  0  2.072195  0
O  O129  1  0.99177173  0.65818151  0.51463512  1  -1.180706  0  -0.31367  -0.560713  0  2.411512  0
O  O130  1  0.84257837  0.50807772  0.56278953  1  -1.182735  0  -0.318045  -0.554425  0  2.318099  0
O  O131  1  0.01433157  0.49372503  0.58299428  1  -1.148811  0  -0.322108  -0.559441  0  2.335981  0
O  O132  1  0.96611147  0.33735056  0.50894819  1  -1.168909  0  -0.321027  -0.553918  0  2.380008  0
O  O133  1  0.14211099  0.36628783  0.50213436  1  -1.151819  0  -0.308741  -0.546566  0  2.370276  0
