# generated using pymatgen
data_ZnH19C19(NO)5
_symmetry_space_group_name_H-M   'P 1'
_cell_length_a   10.29545421
_cell_length_b   14.75586770
_cell_length_c   19.05824538
_cell_angle_alpha   90.00016748
_cell_angle_beta   90.00051925
_cell_angle_gamma   96.27699988
_symmetry_Int_Tables_number   1
_chemical_formula_structural   ZnH19C19(NO)5
_chemical_formula_sum   'Zn4 H76 C76 N20 O20'
_cell_volume   2877.93986409
_cell_formula_units_Z   4
loop_
 _symmetry_equiv_pos_site_id
 _symmetry_equiv_pos_as_xyz
  1  'x, y, z'
loop_
 _atom_site_type_symbol
 _atom_site_label
 _atom_site_symmetry_multiplicity
 _atom_site_fract_x
 _atom_site_fract_y
 _atom_site_fract_z
 _atom_site_occupancy
 _atom_site_pbe_bader_charge
 _atom_site_pbe_bader_spin_density
 _atom_site_pbe_cm5_charge
 _atom_site_pbe_ddec_charge
 _atom_site_pbe_ddec_spin_density
 _atom_site_pbe_ddec_sum_bond_order
 _atom_site_pbe_magmom
Zn  Zn0  1  0.48952338  0.14265690  0.24995616  1  1.249908  0  0.687482  0.767586  0  2.413757  0
Zn  Zn1  1  0.51043638  0.35732988  0.74996103  1  1.250193  0  0.687603  0.767735  0  2.413719  0
Zn  Zn2  1  0.51042402  0.85732953  0.75003925  1  1.250033  0  0.687585  0.767664  0  2.413878  0
Zn  Zn3  1  0.48954081  0.64266060  0.25004435  1  1.249794  0  0.687552  0.767684  0  2.413623  0
H  H4  1  0.76956487  0.06876907  0.09078261  1  0.119576  0  0.109713  0.116198  0  1.043766  0
H  H5  1  0.23039075  0.43126327  0.59079573  1  0.119777  0  0.109796  0.116255  0  1.043804  0
H  H6  1  0.23037386  0.93126647  0.90921018  1  0.120205  0  0.1098  0.116193  0  1.043954  0
H  H7  1  0.76958735  0.56876335  0.40921438  1  0.120094  0  0.109734  0.116165  0  1.043713  0
H  H8  1  0.99677065  0.15961903  0.27185503  1  0.111305  0  0.110142  0.122519  0  1.003359  0
H  H9  1  0.00322563  0.34035690  0.77186735  1  0.110706  0  0.110171  0.122672  0  1.00333  0
H  H10  1  0.00322723  0.84035505  0.72813094  1  0.110652  0  0.110151  0.122638  0  1.003342  0
H  H11  1  0.99678284  0.65962262  0.22814222  1  0.111076  0  0.110204  0.122597  0  1.003355  0
H  H12  1  0.18999204  0.07225385  0.08824424  1  0.139937  0  0.110792  0.126467  0  1.033564  0
H  H13  1  0.80996627  0.42780779  0.58829638  1  0.139837  0  0.110802  0.126506  0  1.033397  0
H  H14  1  0.80995019  0.92781578  0.91169240  1  0.139916  0  0.110773  0.126468  0  1.033375  0
H  H15  1  0.19001293  0.57223179  0.41174205  1  0.139952  0  0.11075  0.126505  0  1.033352  0
H  H16  1  0.63621611  0.22758528  0.38061502  1  0.165963  0  0.137921  0.11173  0  0.994983  0
H  H17  1  0.36376040  0.27238920  0.88062056  1  0.148888  0  0.137919  0.111694  0  0.994969  0
H  H18  1  0.36375328  0.77238680  0.61938091  1  0.148841  0  0.137928  0.111621  0  0.995039  0
H  H19  1  0.63622562  0.72758967  0.11938849  1  0.165992  0  0.137936  0.111755  0  0.995011  0
H  H20  1  0.33562701  0.99848521  0.67260583  1  0.146683  0  0.140707  0.11673  0  1.001726  0
H  H21  1  0.66437627  0.50151060  0.17261724  1  0.146529  0  0.140802  0.116759  0  1.001791  0
H  H22  1  0.66436982  0.00151275  0.32738643  1  0.146679  0  0.140745  0.116725  0  1.001699  0
H  H23  1  0.33563070  0.49848392  0.82739392  1  0.146732  0  0.140708  0.116741  0  1.001729  0
H  H24  1  0.64231137  0.45349105  0.45807782  1  0.046652  0  0.108434  0.084339  0  1.021746  0
H  H25  1  0.35771744  0.04649262  0.95807916  1  0.046567  0  0.108411  0.084246  0  1.021755  0
H  H26  1  0.35771900  0.54649186  0.54191969  1  0.046576  0  0.108435  0.084271  0  1.021748  0
H  H27  1  0.64231034  0.95349233  0.04192413  1  0.046671  0  0.108427  0.084329  0  1.021692  0
H  H28  1  0.66170726  0.33896876  0.47791273  1  0.056968  0  0.113362  0.0911  0  0.972805  0
H  H29  1  0.33830474  0.16101094  0.97791737  1  0.056282  0  0.113254  0.091039  0  0.972529  0
H  H30  1  0.33830412  0.66101076  0.52208163  1  0.056388  0  0.113262  0.091051  0  0.972527  0
H  H31  1  0.66170674  0.83896926  0.02208906  1  0.057017  0  0.113395  0.091116  0  0.972767  0
H  H32  1  0.39293653  0.35130170  0.24032043  1  0.086101  0  0.120567  0.115056  0  0.998772  0
H  H33  1  0.60706862  0.14870883  0.74032111  1  0.086172  0  0.120575  0.115081  0  0.998764  0
H  H34  1  0.60706140  0.64870920  0.75968337  1  0.086135  0  0.120537  0.11501  0  0.998808  0
H  H35  1  0.39293805  0.85130206  0.25968007  1  0.08611  0  0.120579  0.115089  0  0.998753  0
H  H36  1  0.37070663  0.25579126  0.46484881  1  0.049681  0  0.092356  0.08777  0  0.980256  0
H  H37  1  0.62930429  0.24420134  0.96484719  1  0.049651  0  0.09236  0.087799  0  0.98036  0
H  H38  1  0.62930487  0.74420122  0.53515447  1  0.049792  0  0.092338  0.087772  0  0.980385  0
H  H39  1  0.37070904  0.75579045  0.03515242  1  0.049604  0  0.092389  0.087781  0  0.980331  0
H  H40  1  0.30627305  0.29187266  0.54448404  1  0.038918  0  0.094701  0.094644  0  0.988154  0
H  H41  1  0.69374839  0.20812661  0.04448241  1  0.038613  0  0.094669  0.094524  0  0.988405  0
H  H42  1  0.69374742  0.70812731  0.45551924  1  0.038651  0  0.09467  0.094557  0  0.988307  0
H  H43  1  0.30627250  0.79186994  0.95551720  1  0.038935  0  0.09472  0.094669  0  0.98816  0
H  H44  1  0.72722991  0.95062763  0.64184734  1  0.16406  0  0.124047  0.134872  0  1.016142  0
H  H45  1  0.27276903  0.54935030  0.14184173  1  0.164795  0  0.12404  0.134764  0  1.016268  0
H  H46  1  0.27276344  0.04934851  0.35816118  1  0.164716  0  0.124052  0.134847  0  1.016247  0
H  H47  1  0.72723263  0.45062923  0.85815473  1  0.163929  0  0.124053  0.134869  0  1.016122  0
H  H48  1  0.50450138  0.40690749  0.55951017  1  0.044065  0  0.099552  0.108171  0  0.984758  0
H  H49  1  0.49552539  0.09308707  0.05951466  1  0.043897  0  0.099536  0.108158  0  0.98479  0
H  H50  1  0.49552437  0.59308905  0.44048471  1  0.043881  0  0.09952  0.108143  0  0.984761  0
H  H51  1  0.50449712  0.90690743  0.94049177  1  0.044055  0  0.099572  0.108234  0  0.984733  0
H  H52  1  0.40372672  0.42586504  0.48660764  1  0.028792  0  0.095753  0.093331  0  1.008427  0
H  H53  1  0.59630034  0.07412901  0.98661073  1  0.028458  0  0.095675  0.093177  0  1.008518  0
H  H54  1  0.59630064  0.57412946  0.51338829  1  0.028461  0  0.095681  0.093184  0  1.00848  0
H  H55  1  0.40372486  0.92586413  0.01339465  1  0.028751  0  0.095758  0.093329  0  1.008415  0
H  H56  1  0.57153550  0.21609305  0.53198450  1  0.027918  0  0.087414  0.070757  0  1.011042  0
H  H57  1  0.42848345  0.28390411  0.03198647  1  0.028204  0  0.087416  0.070827  0  1.011061  0
H  H58  1  0.42848270  0.78390487  0.46801511  1  0.028152  0  0.087408  0.070792  0  1.011049  0
H  H59  1  0.57153755  0.71609313  0.96801786  1  0.027874  0  0.087416  0.070752  0  1.011033  0
H  H60  1  0.49873367  0.24851499  0.61054039  1  0.057261  0  0.09628  0.101539  0  0.995874  0
H  H61  1  0.50128914  0.25147985  0.11053949  1  0.057007  0  0.096292  0.10161  0  0.995864  0
H  H62  1  0.50128830  0.75148225  0.38946237  1  0.057053  0  0.09628  0.101616  0  0.99588  0
H  H63  1  0.49873207  0.74851261  0.88946169  1  0.057331  0  0.096279  0.10154  0  0.995922  0
H  H64  1  0.44549052  0.46630675  0.35437579  1  0.150175  0  0.127208  0.133318  0  1.012888  0
H  H65  1  0.55456379  0.03370158  0.85437910  1  0.150498  0  0.127247  0.133514  0  1.012756  0
H  H66  1  0.55456859  0.53370407  0.64562067  1  0.150475  0  0.127252  0.133536  0  1.012758  0
H  H67  1  0.44548301  0.96630517  0.14562366  1  0.150333  0  0.127202  0.133345  0  1.012859  0
H  H68  1  0.31174104  0.12690090  0.59185864  1  0.062009  0  0.121195  0.103137  0  0.945068  0
H  H69  1  0.68827767  0.37309452  0.09186418  1  0.062143  0  0.121126  0.103043  0  0.945245  0
H  H70  1  0.68827608  0.87309634  0.40814044  1  0.061896  0  0.121163  0.103086  0  0.945266  0
H  H71  1  0.31174041  0.62689658  0.90814383  1  0.062056  0  0.121203  0.103139  0  0.945088  0
H  H72  1  0.38038825  0.09754961  0.51044467  1  0.059414  0  0.103414  0.076327  0  1.003659  0
H  H73  1  0.61963604  0.40244675  0.01044941  1  0.059383  0  0.103428  0.076273  0  1.003601  0
H  H74  1  0.61963761  0.90244762  0.48955546  1  0.059283  0  0.103451  0.076343  0  1.003451  0
H  H75  1  0.38039133  0.59754774  0.98955807  1  0.059333  0  0.103415  0.076306  0  1.003549  0
H  H76  1  0.66664559  0.08650632  0.54829039  1  0.10481  0  0.127216  0.127335  0  0.997442  0
H  H77  1  0.33338162  0.41348614  0.04827907  1  0.105595  0  0.127213  0.127302  0  0.997475  0
H  H78  1  0.33338274  0.91348818  0.45172548  1  0.105539  0  0.127209  0.127318  0  0.997503  0
H  H79  1  0.66664606  0.58650427  0.95171424  1  0.105667  0  0.127203  0.127329  0  0.997449  0
C  C80  1  0.86997260  0.11648468  0.18520136  1  -0.033089  0  -0.018702  -0.021837  0  3.988172  0
C  C81  1  0.13000807  0.38352424  0.68521545  1  -0.034064  0  -0.018582  -0.02167  0  3.988258  0
C  C82  1  0.13000375  0.88352489  0.81478618  1  -0.03411  0  -0.018644  -0.02188  0  3.988509  0
C  C83  1  0.86999126  0.61648326  0.31479412  1  -0.032969  0  -0.018681  -0.021843  0  3.988377  0
C  C84  1  0.86343620  0.08232127  0.11693427  1  -0.055471  0  -0.076056  -0.14916  0  3.941421  0
C  C85  1  0.13652495  0.41770641  0.61695267  1  0.000934  0  -0.076234  -0.149336  0  3.941445  0
C  C86  1  0.13651439  0.91770948  0.88304803  1  0.000707  0  -0.076279  -0.149304  0  3.94171  0
C  C87  1  0.86345908  0.58231474  0.38306059  1  -0.055819  0  -0.076094  -0.14909  0  3.941256  0
C  C88  1  0.99140378  0.13452718  0.21808875  1  0.027048  0  -0.066424  -0.089046  0  3.898923  0
C  C89  1  0.00858047  0.36547031  0.71810589  1  0.028447  0  -0.066385  -0.089447  0  3.899058  0
C  C90  1  0.00857741  0.86547012  0.78189301  1  0.028652  0  -0.066392  -0.089404  0  3.89907  0
C  C91  1  0.99141734  0.63452764  0.28190684  1  0.026637  0  -0.066557  -0.089257  0  3.899193  0
C  C92  1  0.10602154  0.11986991  0.18253766  1  -0.00403  0  -0.017201  -0.020524  0  3.98038  0
C  C93  1  0.89395661  0.38014786  0.68256807  1  -0.004982  0  -0.017059  -0.019978  0  3.980214  0
C  C94  1  0.89395170  0.88015058  0.81742522  1  -0.005166  0  -0.017038  -0.019954  0  3.979958  0
C  C95  1  0.10603722  0.61986169  0.31745568  1  -0.003907  0  -0.01719  -0.020559  0  3.980363  0
C  C96  1  0.97801872  0.06470668  0.08266904  1  0.287523  0  0.082031  0.100561  0  4.001836  0
C  C97  1  0.02193397  0.43533857  0.58269952  1  0.23221  0  0.0823  0.100895  0  4.001611  0
C  C98  1  0.02191982  0.93534591  0.91729699  1  0.231873  0  0.082373  0.101077  0  4.002  0
C  C99  1  0.97803788  0.56469147  0.41732266  1  0.288206  0  0.082219  0.100762  0  4.001348  0
C  C100  1  0.74729514  0.13032009  0.22459400  1  1.53595  0  0.193469  0.560699  0  4.231006  0
C  C101  1  0.25269063  0.36968016  0.72459764  1  1.536509  0  0.193474  0.560614  0  4.231296  0
C  C102  1  0.25268476  0.86968129  0.77540876  1  1.536129  0  0.193528  0.560748  0  4.231157  0
C  C103  1  0.74730686  0.63032188  0.27540511  1  1.536527  0  0.193506  0.560692  0  4.231148  0
C  C104  1  0.10024069  0.08464704  0.11439177  1  0.022919  0  -0.077565  -0.146234  0  3.936033  0
C  C105  1  0.89971795  0.41539564  0.61443278  1  0.02316  0  -0.077872  -0.146832  0  3.936245  0
C  C106  1  0.89970798  0.91540213  0.88555956  1  0.02293  0  -0.077853  -0.1468  0  3.936263  0
C  C107  1  0.10026328  0.58463234  0.38559673  1  0.022792  0  -0.077499  -0.146249  0  3.93569  0
C  C108  1  0.23471996  0.13709040  0.21994385  1  1.539251  0  0.194078  0.557338  0  4.225488  0
C  C109  1  0.76526701  0.36289960  0.71997569  1  1.538088  0  0.19425  0.557831  0  4.225116  0
C  C110  1  0.76526056  0.86289666  0.78001798  1  1.538232  0  0.194219  0.557802  0  4.224577  0
C  C111  1  0.23473370  0.63709221  0.28005120  1  1.539117  0  0.194102  0.557571  0  4.225301  0
C  C112  1  0.57567091  0.27586069  0.35821832  1  0.962763  0  0.14391  0.091033  0  3.919131  0
C  C113  1  0.42431439  0.22412252  0.85822090  1  0.980015  0  0.143959  0.091283  0  3.91903  0
C  C114  1  0.42430875  0.72412092  0.64178076  1  0.98026  0  0.143919  0.091369  0  3.919109  0
C  C115  1  0.57567963  0.77586384  0.14178448  1  0.96279  0  0.143922  0.090934  0  3.919033  0
C  C116  1  0.43481045  0.00471245  0.65272747  1  1.024353  0  0.145053  0.08776  0  3.920739  0
C  C117  1  0.56519108  0.49527854  0.15273268  1  1.024517  0  0.144953  0.087652  0  3.920645  0
C  C118  1  0.56518648  0.99528004  0.34727109  1  1.024219  0  0.145061  0.08782  0  3.920493  0
C  C119  1  0.43481329  0.50471190  0.84727323  1  1.024389  0  0.145085  0.087884  0  3.920746  0
C  C120  1  0.59104411  0.38430602  0.45953211  1  0.312736  0  -0.048279  -0.063534  0  3.884551  0
C  C121  1  0.40897880  0.11567698  0.95953437  1  0.313762  0  -0.048187  -0.063189  0  3.884364  0
C  C122  1  0.40897860  0.61567757  0.54046540  1  0.313661  0  -0.048254  -0.063334  0  3.884429  0
C  C123  1  0.59104186  0.88430594  0.04046996  1  0.31267  0  -0.048352  -0.063568  0  3.884619  0
C  C124  1  0.45192969  0.34272636  0.28644549  1  0.400414  0  0.002011  -0.01824  0  3.997031  0
C  C125  1  0.54807498  0.15727623  0.78644904  1  0.400819  0  0.001973  -0.018243  0  3.996817  0
C  C126  1  0.54806985  0.65727637  0.71355360  1  0.401042  0  0.002022  -0.018086  0  3.996743  0
C  C127  1  0.45193136  0.84272648  0.21355476  1  0.400263  0  0.001991  -0.018335  0  3.99707  0
C  C128  1  0.39836902  0.28504615  0.51670206  1  -0.025324  0  -0.163958  -0.140661  0  3.931596  0
C  C129  1  0.60164641  0.21494889  0.01669999  1  -0.025258  0  -0.164028  -0.140748  0  3.931921  0
C  C130  1  0.60164626  0.71495177  0.48330122  1  -0.025458  0  -0.163973  -0.140736  0  3.931823  0
C  C131  1  0.39836811  0.78504427  0.98329961  1  -0.025345  0  -0.163984  -0.140662  0  3.931602  0
C  C132  1  0.63781016  0.98195363  0.63400961  1  0.36531  0  -0.000262  -0.036833  0  3.996593  0
C  C133  1  0.36219048  0.51802971  0.13400646  1  0.365234  0  -0.000173  -0.036667  0  3.996697  0
C  C134  1  0.36218525  0.01802933  0.36599840  1  0.3652  0  -0.000145  -0.036689  0  3.996662  0
C  C135  1  0.63781583  0.48195459  0.86599420  1  0.365695  0  -0.000161  -0.036691  0  3.996468  0
C  C136  1  0.47165447  0.38021600  0.50781748  1  0.00403  0  -0.161144  -0.175872  0  3.922474  0
C  C137  1  0.52836459  0.11977831  0.00781956  1  0.004421  0  -0.161016  -0.175663  0  3.922593  0
C  C138  1  0.52836513  0.61977851  0.49218003  1  0.004445  0  -0.160995  -0.175579  0  3.92246  0
C  C139  1  0.47165198  0.88021553  0.99218477  1  0.004169  0  -0.161163  -0.175989  0  3.922458  0
C  C140  1  0.47672596  0.22072490  0.55777102  1  -0.053997  0  -0.163382  -0.167571  0  3.950193  0
C  C141  1  0.52328912  0.27926967  0.05777291  1  -0.053933  0  -0.163316  -0.167593  0  3.949995  0
C  C142  1  0.52328986  0.77927030  0.44222912  1  -0.053904  0  -0.16328  -0.167525  0  3.950006  0
C  C143  1  0.47672648  0.72072416  0.94222985  1  -0.05411  0  -0.163353  -0.16751  0  3.950256  0
C  C144  1  0.47592121  0.39982131  0.34295606  1  0.342613  0  0.006376  -0.09736  0  3.887844  0
C  C145  1  0.52410765  0.10018085  0.84296042  1  0.34184  0  0.006361  -0.097436  0  3.887895  0
C  C146  1  0.52410854  0.60018205  0.65704040  1  0.341717  0  0.006342  -0.097518  0  3.887874  0
C  C147  1  0.47591886  0.89982047  0.15704444  1  0.342497  0  0.006316  -0.097432  0  3.88789  0
C  C148  1  0.40400166  0.12539534  0.56311960  1  0.302825  0  -0.046838  -0.054738  0  3.890683  0
C  C149  1  0.59602280  0.37460266  0.06312311  1  0.3026  0  -0.04685  -0.054711  0  3.890451  0
C  C150  1  0.59602258  0.87460394  0.43688106  1  0.30318  0  -0.046983  -0.054946  0  3.890432  0
C  C151  1  0.40400273  0.62539252  0.93688279  1  0.30287  0  -0.046876  -0.05468  0  3.890638  0
C  C152  1  0.60840950  0.04834542  0.58788410  1  0.327453  0  -0.004362  -0.122981  0  3.954868  0
C  C153  1  0.39160557  0.45164590  0.08788101  1  0.325459  0  -0.00447  -0.123086  0  3.954957  0
C  C154  1  0.39160319  0.95164842  0.41212496  1  0.325497  0  -0.004446  -0.123066  0  3.954703  0
C  C155  1  0.60841218  0.54834315  0.91211965  1  0.326603  0  -0.004332  -0.122832  0  3.954831  0
N  N156  1  0.52840349  0.95525375  0.67406914  1  -1.255208  0  -0.35401  -0.284906  0  3.601555  0
N  N157  1  0.47158772  0.54473321  0.17407445  1  -1.255493  0  -0.354017  -0.284957  0  3.601347  0
N  N158  1  0.47158189  0.04473330  0.32592837  1  -1.255407  0  -0.354075  -0.28512  0  3.601422  0
N  N159  1  0.52840845  0.45525451  0.82593145  1  -1.25562  0  -0.354132  -0.285159  0  3.601544  0
N  N160  1  0.51495139  0.26584677  0.29654827  1  -1.232056  0  -0.360507  -0.28849  0  3.627105  0
N  N161  1  0.48502700  0.23414227  0.79655012  1  -1.232053  0  -0.360496  -0.288436  0  3.626874  0
N  N162  1  0.48501856  0.73414099  0.70345239  1  -1.232461  0  -0.360464  -0.288523  0  3.626971  0
N  N163  1  0.51496001  0.76584888  0.20345474  1  -1.232002  0  -0.360485  -0.288398  0  3.626873  0
N  N164  1  0.55427324  0.35616217  0.38804744  1  -1.222172  0  -0.241993  0.044109  0  3.771412  0
N  N165  1  0.44574366  0.14382729  0.88805100  1  -1.222436  0  -0.242055  0.043554  0  3.771759  0
N  N166  1  0.44574365  0.64382757  0.61194902  1  -1.222248  0  -0.242035  0.043662  0  3.77169  0
N  N167  1  0.55427528  0.85616313  0.11195333  1  -1.222211  0  -0.241932  0.044274  0  3.771245  0
N  N168  1  0.95949222  0.02943404  0.01230938  1  -0.033004  0  0.006347  0.261652  0  3.880852  0
N  N169  1  0.04045135  0.47061632  0.51234423  1  -0.056078  0  0.00628  0.261605  0  3.880691  0
N  N170  1  0.04043036  0.97062812  0.98765140  1  -0.055757  0  0.006243  0.261425  0  3.880909  0
N  N171  1  0.95951370  0.52941987  0.48768162  1  -0.032634  0  0.006173  0.261362  0  3.880788  0
N  N172  1  0.47955875  0.06203215  0.60053659  1  -1.238196  0  -0.242763  0.036644  0  3.793891  0
N  N173  1  0.52045676  0.43796059  0.10053673  1  -1.237262  0  -0.242648  0.03694  0  3.793485  0
N  N174  1  0.52045621  0.93796373  0.39946827  1  -1.237343  0  -0.242644  0.03696  0  3.793288  0
N  N175  1  0.47956121  0.56202983  0.89946603  1  -1.238037  0  -0.2428  0.036361  0  3.793983  0
O  O176  1  0.64021367  0.12319106  0.18783064  1  -1.164815  0  -0.340191  -0.560441  0  2.290772  0
O  O177  1  0.35976552  0.37680833  0.68782643  1  -1.165154  0  -0.340225  -0.56049  0  2.29087  0
O  O178  1  0.35976160  0.87681170  0.81217789  1  -1.164773  0  -0.340193  -0.560377  0  2.290805  0
O  O179  1  0.64022916  0.62319440  0.31217108  1  -1.16513  0  -0.340248  -0.560496  0  2.290782  0
O  O180  1  0.33897163  0.12578505  0.18339561  1  -1.171575  0  -0.345647  -0.565595  0  2.261856  0
O  O181  1  0.66101956  0.37421089  0.68343011  1  -1.170769  0  -0.345678  -0.565798  0  2.262092  0
O  O182  1  0.66101592  0.87420951  0.81656360  1  -1.170719  0  -0.34567  -0.565854  0  2.262316  0
O  O183  1  0.33898504  0.62578705  0.31660150  1  -1.171422  0  -0.345692  -0.565709  0  2.261696  0
O  O184  1  0.75331196  0.14562247  0.28920649  1  -1.165663  0  -0.334838  -0.569287  0  2.126338  0
O  O185  1  0.24669124  0.35437672  0.78920797  1  -1.165737  0  -0.334779  -0.569161  0  2.126532  0
O  O186  1  0.24668951  0.85437411  0.71079627  1  -1.165569  0  -0.334819  -0.569264  0  2.126376  0
O  O187  1  0.75331833  0.64562189  0.21079374  1  -1.165672  0  -0.33481  -0.569237  0  2.126505  0
O  O188  1  0.23667116  0.15919077  0.28328916  1  -1.177483  0  -0.325017  -0.545683  0  2.12748  0
O  O189  1  0.76332822  0.34077907  0.78331308  1  -1.177774  0  -0.325328  -0.546155  0  2.127327  0
O  O190  1  0.76332314  0.84077308  0.71668001  1  -1.178048  0  -0.3253  -0.54609  0  2.126704  0
O  O191  1  0.23668455  0.65919703  0.21670857  1  -1.177581  0  -0.3251  -0.545846  0  2.127498  0
O  O192  1  0.86242385  0.05075115  0.97668022  1  -0.521724  0  -0.192314  -0.403553  0  1.945199  0
O  O193  1  0.13752920  0.44929137  0.47670842  1  -0.521929  0  -0.192539  -0.403869  0  1.944671  0
O  O194  1  0.13750638  0.94930418  0.02329001  1  -0.521711  0  -0.192562  -0.403838  0  1.944847  0
O  O195  1  0.86244384  0.55074003  0.52330956  1  -0.522331  0  -0.192294  -0.403448  0  1.945105  0
