# generated using pymatgen
data_Cd3H60(C11O3)8
_symmetry_space_group_name_H-M   'P 1'
_cell_length_a   15.32615291
_cell_length_b   15.52948996
_cell_length_c   17.24657687
_cell_angle_alpha   67.20142697
_cell_angle_beta   83.23849867
_cell_angle_gamma   64.22323795
_symmetry_Int_Tables_number   1
_chemical_formula_structural   Cd3H60(C11O3)8
_chemical_formula_sum   'Cd3 H60 C88 O24'
_cell_volume   3401.19807565
_cell_formula_units_Z   1
loop_
 _symmetry_equiv_pos_site_id
 _symmetry_equiv_pos_as_xyz
  1  'x, y, z'
loop_
 _atom_site_type_symbol
 _atom_site_label
 _atom_site_symmetry_multiplicity
 _atom_site_fract_x
 _atom_site_fract_y
 _atom_site_fract_z
 _atom_site_occupancy
 _atom_site_pbe_bader_charge
 _atom_site_pbe_bader_spin_density
 _atom_site_pbe_cm5_charge
 _atom_site_pbe_ddec_charge
 _atom_site_pbe_ddec_spin_density
 _atom_site_pbe_ddec_sum_bond_order
 _atom_site_pbe_magmom
Cd  Cd0  1  0.99999291  0.00000192  0.00000899  1  1.38849  0  0.803013  1.115632  0  2.145284  0
Cd  Cd1  1  0.85078399  0.19036220  0.09464182  1  1.320251  0  0.774105  1.00867  0  2.065198  0
Cd  Cd2  1  0.14923309  0.80963770  0.90537636  1  1.320295  0  0.774144  1.008695  0  2.064998  0
H  H3  1  0.59652610  0.28695941  0.95795675  1  0.098309  0  0.110498  0.119212  0  0.98637  0
H  H4  1  0.40343399  0.71309835  0.04204677  1  0.100516  0  0.110572  0.119225  0  0.986742  0
H  H5  1  0.44525112  0.34252499  0.87515530  1  0.088015  0  0.10575  0.109495  0  0.991444  0
H  H6  1  0.55473020  0.65752071  0.12483326  1  0.087592  0  0.105756  0.109482  0  0.991512  0
H  H7  1  0.61871718  0.21366484  0.69807677  1  0.076518  0  0.101728  0.105823  0  1.000426  0
H  H8  1  0.38129608  0.78632102  0.30196018  1  0.076551  0  0.101918  0.106188  0  1.000212  0
H  H9  1  0.76853513  0.15174064  0.78514559  1  0.122998  0  0.103694  0.109965  0  1.017783  0
H  H10  1  0.23146637  0.84825985  0.21490664  1  0.124679  0  0.103711  0.110197  0  1.017628  0
H  H11  1  0.36877625  0.25149694  0.85218944  1  0.058618  0  0.108961  0.113892  0  0.998754  0
H  H12  1  0.63123531  0.74849488  0.14780615  1  0.062257  0  0.109004  0.11395  0  0.998691  0
H  H13  1  0.08775190  0.44093691  0.75720495  1  0.076343  0  0.103367  0.106142  0  0.994977  0
H  H14  1  0.91224446  0.55905599  0.24276997  1  0.076249  0  0.103429  0.106264  0  0.994943  0
H  H15  1  0.97193330  0.40777642  0.86788207  1  0.093412  0  0.110142  0.114909  0  0.985813  0
H  H16  1  0.02805955  0.59222653  0.13209198  1  0.092506  0  0.11026  0.115024  0  0.985756  0
H  H17  1  0.17278743  0.08816883  0.97486471  1  0.12482  0  0.111415  0.123115  0  0.991291  0
H  H18  1  0.82721507  0.91183774  0.02515508  1  0.125302  0  0.111395  0.123117  0  0.991396  0
H  H19  1  0.29150809  0.12212514  0.86876489  1  0.069324  0  0.106117  0.109475  0  0.987307  0
H  H20  1  0.70849066  0.87787426  0.13124570  1  0.069577  0  0.106118  0.10951  0  0.987192  0
H  H21  1  0.28754006  0.55639203  0.27165875  1  0.091174  0  0.112001  0.120757  0  1.000445  0
H  H22  1  0.71246805  0.44360367  0.72834629  1  0.091064  0  0.111985  0.120671  0  1.000488  0
H  H23  1  0.47040918  0.21514720  0.38600092  1  0.076966  0  0.102161  0.100324  0  1.020626  0
H  H24  1  0.52954219  0.78486169  0.61395839  1  0.077132  0  0.1021  0.100261  0  1.020755  0
H  H25  1  0.60349743  0.15004056  0.29782779  1  0.061235  0  0.107749  0.112066  0  0.989406  0
H  H26  1  0.39648110  0.84995583  0.70215200  1  0.061126  0  0.107729  0.112094  0  0.989204  0
H  H27  1  0.57009639  0.45928699  0.15217078  1  0.102198  0  0.110358  0.115115  0  0.990999  0
H  H28  1  0.42996408  0.54068117  0.84784850  1  0.10194  0  0.110384  0.115149  0  0.990846  0
H  H29  1  0.43396117  0.52636032  0.23592495  1  0.032064  0  0.1003  0.097637  0  1.04385  0
H  H30  1  0.56608007  0.47362681  0.76407818  1  0.032501  0  0.100293  0.09759  0  1.043688  0
H  H31  1  0.51479351  0.44365237  0.66978900  1  0.056889  0  0.091349  0.085556  0  1.070252  0
H  H32  1  0.48522622  0.55631713  0.33022752  1  0.057393  0  0.091429  0.08579  0  1.070201  0
H  H33  1  0.43908964  0.53518389  0.57579991  1  0.061052  0  0.099716  0.107679  0  0.971593  0
H  H34  1  0.56091181  0.46480319  0.42422869  1  0.061618  0  0.099793  0.107724  0  0.971612  0
H  H35  1  0.56546942  0.45940240  0.56906989  1  0.073664  0  0.101464  0.108944  0  1.014787  0
H  H36  1  0.43453487  0.54059481  0.43094201  1  0.073608  0  0.101507  0.109044  0  1.014838  0
H  H37  1  0.09871428  0.30031499  0.59005653  1  0.066751  0  0.103607  0.110572  0  0.997592  0
H  H38  1  0.90127431  0.69968491  0.40994752  1  0.066547  0  0.103685  0.110678  0  0.997601  0
H  H39  1  0.11244205  0.26969848  0.70036594  1  0.102356  0  0.09497  0.09969  0  1.05022  0
H  H40  1  0.88761772  0.73024071  0.29964170  1  0.102391  0  0.095114  0.100055  0  1.049928  0
H  H41  1  0.21215935  0.20555836  0.64744791  1  0.046748  0  0.09923  0.09898  0  0.989496  0
H  H42  1  0.78786376  0.79443115  0.35250369  1  0.04705  0  0.099379  0.099249  0  0.989525  0
H  H43  1  0.05358766  0.59595661  0.58387017  1  0.058849  0  0.110807  0.120773  0  0.966399  0
H  H44  1  0.94641346  0.40407476  0.41612296  1  0.058408  0  0.11079  0.120761  0  0.966598  0
H  H45  1  0.06144394  0.54685762  0.50367941  1  0.059399  0  0.099564  0.100139  0  1.006783  0
H  H46  1  0.93858244  0.45312143  0.49634164  1  0.059619  0  0.099522  0.099985  0  1.006742  0
H  H47  1  0.04636187  0.67743664  0.47498550  1  0.077066  0  0.093261  0.090459  0  1.042894  0
H  H48  1  0.95363192  0.32255621  0.52499321  1  0.077096  0  0.093203  0.090426  0  1.043047  0
H  H49  1  0.49055549  0.11934385  0.55799968  1  0.100294  0  0.109654  0.112559  0  0.968477  0
H  H50  1  0.50941608  0.88064844  0.44197367  1  0.100904  0  0.109652  0.112615  0  0.96872  0
H  H51  1  0.36962416  0.20064785  0.57484163  1  0.063668  0  0.103834  0.105344  0  1.00201  0
H  H52  1  0.63033491  0.79935806  0.42510974  1  0.063711  0  0.10385  0.105381  0  1.001768  0
H  H53  1  0.47234749  0.18710671  0.62654381  1  0.083356  0  0.103855  0.108931  0  1.007278  0
H  H54  1  0.52759687  0.81284302  0.37347625  1  0.083753  0  0.103811  0.10891  0  1.007693  0
H  H55  1  0.06292227  0.91977278  0.33671757  1  0.092939  0  0.109902  0.117015  0  0.990106  0
H  H56  1  0.93708638  0.08022598  0.66327472  1  0.092651  0  0.109907  0.117029  0  0.990311  0
H  H57  1  0.18045210  0.73997283  0.42210393  1  0.054055  0  0.106439  0.111731  0  0.987483  0
H  H58  1  0.81953760  0.26001612  0.57789114  1  0.054323  0  0.106455  0.111887  0  0.987395  0
H  H59  1  0.11345567  0.62984077  0.25268096  1  0.066586  0  0.10243  0.104175  0  1.006019  0
H  H60  1  0.88654188  0.37015305  0.74731321  1  0.0668  0  0.102453  0.104231  0  1.006038  0
H  H61  1  0.99574627  0.80856406  0.17016940  1  0.102489  0  0.101779  0.097774  0  1.056071  0
H  H62  1  0.00427467  0.19144738  0.82980478  1  0.102676  0  0.101674  0.097649  0  1.056128  0
C  C63  1  0.69136227  0.21553973  0.87668140  1  -0.003016  0  -0.011859  -0.020172  0  3.940687  0
C  C64  1  0.30861844  0.78451470  0.12333427  1  -0.002672  0  -0.011803  -0.020383  0  3.941096  0
C  C65  1  0.60010525  0.27037080  0.90144965  1  0.005599  0  -0.079971  -0.087141  0  3.972655  0
C  C66  1  0.39987071  0.72968342  0.09854867  1  0.003829  0  -0.079735  -0.086642  0  3.972627  0
C  C67  1  0.51620482  0.30118025  0.85507113  1  -0.12442  0  -0.090374  -0.141519  0  3.982191  0
C  C68  1  0.48377945  0.69885698  0.14492533  1  -0.124024  0  -0.090473  -0.141668  0  3.982176  0
C  C69  1  0.52141848  0.28116922  0.78124992  1  -0.047151  0  -0.006899  0.082946  0  4.011877  0
C  C70  1  0.47858602  0.71885608  0.21875890  1  -0.04798  0  -0.006832  0.083034  0  4.011365  0
C  C71  1  0.61357435  0.22932293  0.75524550  1  -0.023126  0  -0.091108  -0.133413  0  3.969987  0
C  C72  1  0.38642857  0.77068759  0.24477979  1  -0.023791  0  -0.091172  -0.133583  0  3.96926  0
C  C73  1  0.69735643  0.19530799  0.80327531  1  -0.074532  0  -0.082226  -0.086435  0  3.968971  0
C  C74  1  0.30263198  0.80472480  0.19674603  1  -0.075794  0  -0.082467  -0.086962  0  3.969466  0
C  C75  1  0.43112151  0.30859269  0.73640664  1  -0.00413  0  -0.016124  -0.038261  0  4.024031  0
C  C76  1  0.56887562  0.69141679  0.26359649  1  -0.004105  0  -0.01628  -0.038524  0  4.023939  0
C  C77  1  0.41402293  0.35505534  0.64772976  1  0.487569  0  0.088628  0.17485  0  3.997301  0
C  C78  1  0.58598001  0.64494336  0.35227655  1  0.4886  0  0.088766  0.175046  0  3.997481  0
C  C79  1  0.32937579  0.37170979  0.60906833  1  0.057038  0  -0.025232  -0.111423  0  4.036498  0
C  C80  1  0.67062346  0.62829266  0.39092547  1  0.056658  0  -0.025168  -0.111481  0  4.036797  0
C  C81  1  0.25860805  0.34494972  0.65925707  1  0.484888  0  0.091471  0.173652  0  4.009979  0
C  C82  1  0.74140487  0.65503750  0.34074812  1  0.484811  0  0.091374  0.173389  0  4.009815  0
C  C83  1  0.27105663  0.30443022  0.74789926  1  0.044304  0  -0.017644  -0.040593  0  4.023387  0
C  C84  1  0.72893993  0.69556590  0.25209188  1  0.044678  0  -0.017658  -0.040353  0  4.0226  0
C  C85  1  0.35790085  0.28574202  0.78365285  1  -0.029819  0  -0.080752  -0.143982  0  3.98092  0
C  C86  1  0.64210002  0.71425813  0.21634274  1  -0.033332  0  -0.080655  -0.143879  0  3.980713  0
C  C87  1  0.19734527  0.28361996  0.80633477  1  -0.047819  0  -0.004893  0.086503  0  4.01461  0
C  C88  1  0.80265476  0.71636920  0.19365208  1  -0.021466  0  -0.004912  0.086263  0  4.014572  0
C  C89  1  0.10621254  0.36381075  0.80509133  1  -0.088225  0  -0.089503  -0.136919  0  3.977107  0
C  C90  1  0.89378475  0.63617049  0.19488880  1  -0.089249  0  -0.089545  -0.137  0  3.977021  0
C  C91  1  0.04167306  0.34574250  0.86635599  1  -0.008326  0  -0.077819  -0.08582  0  3.975109  0
C  C92  1  0.95831327  0.65425719  0.13361999  1  -0.008015  0  -0.077978  -0.085909  0  3.975624  0
C  C93  1  0.06578634  0.24646760  0.92777284  1  -0.03374  0  -0.014011  -0.028623  0  3.968461  0
C  C94  1  0.93419979  0.75352981  0.07221614  1  -0.032629  0  -0.014104  -0.028929  0  3.968608  0
C  C95  1  0.15558306  0.16551286  0.92793162  1  -0.053614  0  -0.075446  -0.075955  0  3.951999  0
C  C96  1  0.84440322  0.83449552  0.07206272  1  -0.054517  0  -0.075326  -0.075735  0  3.951822  0
C  C97  1  0.22122634  0.18458783  0.86845955  1  -0.003944  0  -0.087125  -0.133631  0  3.973341  0
C  C98  1  0.77876925  0.81540594  0.13153428  1  -0.029624  0  -0.087123  -0.133638  0  3.973301  0
C  C99  1  0.31586603  0.41704836  0.51567782  1  0.03501  0  -0.025667  -0.126871  0  4.03781  0
C  C100  1  0.68413687  0.58296431  0.48431423  1  0.034681  0  -0.025576  -0.126699  0  4.037687  0
C  C101  1  0.37913004  0.36726385  0.46468435  1  0.535279  0  0.108293  0.195652  0  3.970001  0
C  C102  1  0.62088185  0.63273499  0.53530697  1  0.535763  0  0.108175  0.195486  0  3.969385  0
C  C103  1  0.37122074  0.41809017  0.37479364  1  0.003543  0  -0.006208  -0.019829  0  3.970292  0
C  C104  1  0.62878794  0.58189150  0.62521517  1  0.032297  0  -0.006163  -0.019562  0  3.970026  0
C  C105  1  0.29482910  0.51603375  0.33988196  1  -0.041356  0  -0.0841  -0.159866  0  3.987541  0
C  C106  1  0.70516600  0.48396631  0.66012186  1  -0.04156  0  -0.083946  -0.159714  0  3.987381  0
C  C107  1  0.22863724  0.56702364  0.38785472  1  -0.009952  0  -0.011165  -0.030148  0  4.003731  0
C  C108  1  0.77136520  0.43296797  0.61214142  1  -0.010069  0  -0.011173  -0.030014  0  4.00325  0
C  C109  1  0.24010753  0.51589682  0.47696815  1  0.523713  0  0.103374  0.196275  0  3.981888  0
C  C110  1  0.75989675  0.48410038  0.52304260  1  0.523966  0  0.103265  0.196182  0  3.981582  0
C  C111  1  0.44415240  0.37539634  0.32024310  1  0.002399  0  0.003485  0.09682  0  3.950296  0
C  C112  1  0.55585265  0.62460154  0.67974818  1  -0.026069  0  0.003324  0.096684  0  3.950187  0
C  C113  1  0.49225476  0.26886109  0.33539647  1  -0.046632  0  -0.086073  -0.121592  0  3.985136  0
C  C114  1  0.50771856  0.73113829  0.66458169  1  -0.046372  0  -0.086  -0.12157  0  3.985129  0
C  C115  1  0.56653224  0.23214086  0.28621815  1  0.026723  0  -0.081035  -0.095987  0  3.972647  0
C  C116  1  0.43344922  0.76785328  0.71376442  1  0.026406  0  -0.081106  -0.096355  0  3.972482  0
C  C117  1  0.59693619  0.30010601  0.22135150  1  -0.029483  0  0.002219  0.011714  0  3.92493  0
C  C118  1  0.40309028  0.69987059  0.77864954  1  -0.029287  0  0.002303  0.012253  0  3.924381  0
C  C119  1  0.54674676  0.40664408  0.20284597  1  -0.037798  0  -0.075412  -0.085345  0  3.954729  0
C  C120  1  0.45329614  0.59333610  0.79716582  1  -0.037628  0  -0.075384  -0.085419  0  3.954934  0
C  C121  1  0.47067311  0.44353908  0.25047936  1  -0.011106  0  -0.084053  -0.124663  0  3.948251  0
C  C122  1  0.52936073  0.55645491  0.74952681  1  -0.011414  0  -0.08403  -0.124584  0  3.948142  0
C  C123  1  0.50092123  0.45949646  0.60371873  1  0.363728  0  -0.143743  -0.17323  0  3.884544  0
C  C124  1  0.49908302  0.54049606  0.39629368  1  0.362817  0  -0.14379  -0.173481  0  3.884368  0
C  C125  1  0.14928175  0.27876779  0.64127685  1  0.33406  0  -0.137904  -0.172598  0  3.890768  0
C  C126  1  0.85074176  0.72121728  0.35871456  1  0.334239  0  -0.13811  -0.173165  0  3.8907  0
C  C127  1  0.07956345  0.59811045  0.52143624  1  0.382678  0  -0.135924  -0.174124  0  3.895589  0
C  C128  1  0.92045011  0.40188611  0.47856033  1  0.38278  0  -0.135788  -0.173833  0  3.895742  0
C  C129  1  0.44519935  0.19069933  0.56872554  1  0.334631  0  -0.127303  -0.16489  0  3.874134  0
C  C130  1  0.55476282  0.80929198  0.43125214  1  0.333763  0  -0.127029  -0.164738  0  3.874302  0
C  C131  1  0.78102607  0.17787025  0.93008714  1  1.592667  0  0.21284  0.590603  0  4.211302  0
C  C132  1  0.21896052  0.82217966  0.06993237  1  1.592339  0  0.213322  0.591494  0  4.209584  0
C  C133  1  0.99587033  0.22519768  0.99190454  1  1.548327  0  0.201434  0.572884  0  4.212747  0
C  C134  1  0.00411569  0.77482083  0.00808737  1  1.54865  0  0.201523  0.573049  0  4.212337  0
C  C135  1  0.02262395  0.87466733  0.24833508  1  -0.035009  0  -0.008973  -0.015372  0  3.940372  0
C  C136  1  0.97736910  0.12533574  0.75165747  1  -0.034687  0  -0.009018  -0.015337  0  3.940161  0
C  C137  1  0.07406705  0.85499020  0.31997435  1  -0.031778  0  -0.07918  -0.09091  0  3.973062  0
C  C138  1  0.92593274  0.14500131  0.68001748  1  -0.031565  0  -0.07899  -0.090733  0  3.972912  0
C  C139  1  0.13929318  0.75493053  0.36723072  1  -0.027932  0  -0.089168  -0.138806  0  3.986175  0
C  C140  1  0.86070242  0.24506323  0.63276311  1  -0.028636  0  -0.08929  -0.13913  0  3.986195  0
C  C141  1  0.15499235  0.67249429  0.34325681  1  -0.014208  0  -0.005181  0.083192  0  4.010855  0
C  C142  1  0.84500348  0.32749244  0.65673486  1  -0.013826  0  -0.004933  0.083491  0  4.010451  0
C  C143  1  0.10275497  0.69303538  0.27152098  1  -0.036381  0  -0.087745  -0.132572  0  3.965354  0
C  C144  1  0.89724621  0.30696087  0.72847481  1  -0.03666  0  -0.08789  -0.132908  0  3.965211  0
C  C145  1  0.03682833  0.79266513  0.22524468  1  -0.016212  0  -0.081055  -0.080702  0  3.979006  0
C  C146  1  0.96317960  0.20733512  0.77473963  1  -0.016233  0  -0.080917  -0.080435  0  3.978911  0
C  C147  1  0.68305419  0.25889162  0.17442389  1  1.568217  0  0.193032  0.541712  0  4.255471  0
C  C148  1  0.31697175  0.74106171  0.82560638  1  1.568637  0  0.193157  0.541239  0  4.255856  0
C  C149  1  0.95583177  0.98218423  0.19428570  1  1.555739  0  0.201797  0.581716  0  4.187564  0
C  C150  1  0.04416677  0.01781351  0.80570696  1  1.555374  0  0.20175  0.581517  0  4.187396  0
O  O151  1  0.48159566  0.38027386  0.59575562  1  -1.080257  0  -0.200651  -0.190553  0  2.579077  0
O  O152  1  0.51841409  0.61972888  0.40424499  1  -1.080657  0  -0.200746  -0.190576  0  2.579215  0
O  O153  1  0.17920550  0.36143595  0.61653505  1  -1.076098  0  -0.192511  -0.178871  0  2.598405  0
O  O154  1  0.82080372  0.63854879  0.38346102  1  -1.076431  0  -0.192475  -0.178765  0  2.598648  0
O  O155  1  0.18354271  0.56022975  0.53044309  1  -1.088681  0  -0.186421  -0.162865  0  2.57004  0
O  O156  1  0.81646644  0.43978854  0.46955030  1  -1.088775  0  -0.186382  -0.163022  0  2.569828  0
O  O157  1  0.45350035  0.27189031  0.49570635  1  -1.072582  0  -0.166995  -0.134692  0  2.617175  0
O  O158  1  0.54650428  0.72810458  0.50430866  1  -1.072722  0  -0.167074  -0.134725  0  2.616984  0
O  O159  1  0.85332389  0.09727189  0.92776690  1  -1.156767  0  -0.321018  -0.561549  0  2.27613  0
O  O160  1  0.14666692  0.90279755  0.07223705  1  -1.157069  0  -0.321186  -0.561852  0  2.27547  0
O  O161  1  0.77516592  0.23121259  0.97229116  1  -1.14062  0  -0.319256  -0.545297  0  2.263961  0
O  O162  1  0.22481121  0.76882076  0.02774113  1  -1.139583  0  -0.319555  -0.545737  0  2.263276  0
O  O163  1  0.70054679  0.17775188  0.16193171  1  -1.082119  0  -0.303929  -0.500725  0  2.048876  0
O  O164  1  0.29945186  0.82221948  0.83809121  1  -1.082141  0  -0.304063  -0.500637  0  2.049081  0
O  O165  1  0.73750111  0.30669092  0.14933531  1  -1.089156  0  -0.31383  -0.51278  0  2.090292  0
O  O166  1  0.26254641  0.69324121  0.85071917  1  -1.089762  0  -0.313929  -0.512632  0  2.090518  0
O  O167  1  0.91806599  0.99631649  0.12518450  1  -1.162675  0  -0.335653  -0.595129  0  2.277996  0
O  O168  1  0.08191935  0.00368489  0.87481939  1  -1.162693  0  -0.335641  -0.595035  0  2.277585  0
O  O169  1  0.00614268  0.13157387  0.02829917  1  -1.172065  0  -0.336659  -0.600296  0  2.367621  0
O  O170  1  0.99384034  0.86844782  0.97171458  1  -1.172482  0  -0.336735  -0.600446  0  2.367558  0
O  O171  1  0.92886091  0.29790563  0.00950659  1  -1.112431  0  -0.308974  -0.507852  0  2.081639  0
O  O172  1  0.07112478  0.70212764  0.99047372  1  -1.112392  0  -0.308987  -0.507846  0  2.081712  0
O  O173  1  0.93899105  0.05549842  0.21802189  1  -1.126195  0  -0.321957  -0.531732  0  2.125258  0
O  O174  1  0.06101889  0.94449259  0.78197533  1  -1.125866  0  -0.321904  -0.531658  0  2.125221  0
