# generated using pymatgen
data_MnH24C26(SN7)2
_symmetry_space_group_name_H-M   'P 1'
_cell_length_a   8.36519133
_cell_length_b   8.78932975
_cell_length_c   9.75628168
_cell_angle_alpha   97.24979155
_cell_angle_beta   97.62163039
_cell_angle_gamma   97.17085073
_symmetry_Int_Tables_number   1
_chemical_formula_structural   MnH24C26(SN7)2
_chemical_formula_sum   'Mn1 H24 C26 S2 N14'
_cell_volume   697.95505462
_cell_formula_units_Z   1
loop_
 _symmetry_equiv_pos_site_id
 _symmetry_equiv_pos_as_xyz
  1  'x, y, z'
loop_
 _atom_site_type_symbol
 _atom_site_label
 _atom_site_symmetry_multiplicity
 _atom_site_fract_x
 _atom_site_fract_y
 _atom_site_fract_z
 _atom_site_occupancy
 _atom_site_pbe_cm5_charge
 _atom_site_pbe_ddec_charge
 _atom_site_pbe_ddec_spin_density
 _atom_site_pbe_ddec_sum_bond_order
 _atom_site_pbe_magmom
Mn  Mn0  1  0.00000223  0.50000300  0.50000429  1  0.67637  0.50797  -0.998931  3.625436  -0.947
H  H1  1  0.34954651  0.94257429  0.26381424  1  0.083424  0.079973  -3.9e-05  1.083314  0.0
H  H2  1  0.65046012  0.05742295  0.73618460  1  0.083404  0.079933  -3.9e-05  1.083369  0.0
H  H3  1  0.16236989  0.74180223  0.09244111  1  0.094441  0.089994  5.5e-05  1.041412  0.0
H  H4  1  0.83763465  0.25819730  0.90755878  1  0.094456  0.089979  5.5e-05  1.041404  0.0
H  H5  1  0.06514730  0.80374383  0.85482042  1  0.097213  0.091041  0.000111  1.033607  0.0
H  H6  1  0.93485119  0.19625563  0.14518082  1  0.097216  0.091058  0.000111  1.033582  0.0
H  H7  1  0.16436829  0.05529827  0.78788892  1  0.091882  0.093751  0.000179  1.052073  0.0
H  H8  1  0.83563037  0.94470237  0.21211145  1  0.091895  0.093789  0.000179  1.052078  0.0
H  H9  1  0.44376313  0.37711543  0.02470628  1  0.116378  0.09791  3e-05  1.012457  0.0
H  H10  1  0.55623432  0.62288518  0.97529497  1  0.116421  0.098007  3e-05  1.012482  0.0
H  H11  1  0.46907494  0.26728194  0.86584381  1  0.118906  0.110126  5.4e-05  0.986613  0.0
H  H12  1  0.53092373  0.73271870  0.13415656  1  0.118917  0.110155  5.4e-05  0.986568  0.0
H  H13  1  0.52793458  0.16817659  0.31588662  1  0.103264  0.0969  -0.000194  1.039146  0.0
H  H14  1  0.47206684  0.83182640  0.68411333  1  0.103267  0.096908  -0.000194  1.039118  0.0
H  H15  1  0.57233394  0.29447467  0.19432352  1  0.122164  0.116749  1e-05  0.973339  0.0
H  H16  1  0.42766593  0.70552598  0.80567597  1  0.122176  0.116795  1e-05  0.973318  0.0
H  H17  1  0.96168780  0.55359090  0.85003893  1  0.131856  0.08802  0.00015  1.05041  0.0
H  H18  1  0.03831120  0.44641206  0.14996074  1  0.131872  0.088041  0.00015  1.050407  0.0
H  H19  1  0.29284566  0.31732609  0.64765553  1  0.134242  0.104979  4.7e-05  1.041663  0.0
H  H20  1  0.70715131  0.68267108  0.35234218  1  0.134232  0.104958  4.7e-05  1.041679  0.0
H  H21  1  0.32087464  0.68657332  0.38978599  1  0.133498  0.10581  0.000133  1.009801  0.0
H  H22  1  0.67912386  0.31342617  0.61021320  1  0.133498  0.10584  0.000133  1.009758  0.0
H  H23  1  0.18586216  0.20481946  0.36935999  1  0.135373  0.116608  -0.000339  1.026299  0.0
H  H24  1  0.81413891  0.79518118  0.63064168  1  0.135376  0.116609  -0.000339  1.026319  0.0
C  C25  1  0.31413153  0.14203979  0.98644975  1  -0.013135  0.041797  7.5e-05  3.939097  0.0
C  C26  1  0.68586801  0.85795853  0.01355045  1  -0.013161  0.04183  7.5e-05  3.939007  0.0
C  C27  1  0.36488547  0.11016995  0.12191469  1  -0.015716  0.037216  0.000207  3.945937  0.0
C  C28  1  0.63511803  0.88983074  0.87808420  1  -0.0157  0.037202  0.000207  3.945814  0.0
C  C29  1  0.30982852  0.96547364  0.15812738  1  -0.098315  -0.135513  7.8e-05  4.00028  0.0
C  C30  1  0.69017465  0.03452474  0.84187119  1  -0.098323  -0.135466  7.8e-05  4.00026  0.0
C  C31  1  0.20382000  0.85398886  0.06296035  1  -0.096607  -0.080543  0.000107  4.004826  0.0
C  C32  1  0.79618091  0.14601064  0.93703912  1  -0.09657  -0.080464  0.000107  4.004776  0.0
C  C33  1  0.14985712  0.88799905  0.93020247  1  -0.090132  -0.064855  8.6e-05  3.997263  0.0
C  C34  1  0.85014137  0.11200042  0.06979877  1  -0.090151  -0.064897  8.6e-05  3.997252  0.0
C  C35  1  0.20507798  0.03077699  0.89258504  1  -0.093936  -0.126257  0.000158  3.980717  0.0
C  C36  1  0.79492052  0.96922248  0.10741517  1  -0.093983  -0.126373  0.000158  3.980807  0.0
C  C37  1  0.38108698  0.29044669  0.93731301  1  -0.04059  -0.133966  0.000143  3.905256  0.0
C  C38  1  0.61891032  0.70955279  0.06268501  1  -0.040654  -0.134105  0.000143  3.90538  0.0
C  C39  1  0.47264479  0.22782948  0.23315335  1  -0.045764  -0.134146  0.000106  3.871438  0.0
C  C40  1  0.52735630  0.77217119  0.76684525  1  -0.045801  -0.134241  0.000106  3.871417  0.0
C  C41  1  0.06041795  0.48955217  0.82902723  1  0.147162  0.129606  0.000927  3.973887  0.0
C  C42  1  0.93958089  0.51044965  0.17097125  1  0.147168  0.129634  0.000927  3.973913  0.0
C  C43  1  0.22592848  0.36934047  0.72391571  1  0.166493  0.077274  0.001139  3.904976  0.001
C  C44  1  0.77406985  0.63065785  0.27608435  1  0.166513  0.077398  0.001139  3.90506  0.001
C  C45  1  0.31885698  0.56215138  0.36796853  1  0.143475  0.128293  0.003058  3.953926  0.001
C  C46  1  0.68114289  0.43784927  0.63203198  1  0.143481  0.128276  0.003058  3.953938  0.001
C  C47  1  0.24659333  0.31827900  0.35854230  1  0.157691  0.063935  0.007418  3.839102  0.004
C  C48  1  0.75340774  0.68172165  0.64145836  1  0.157688  0.063885  0.007417  3.839101  0.004
C  C49  1  0.82814880  0.16062710  0.45542601  1  0.138223  0.243271  -0.015513  4.3092  -0.014
C  C50  1  0.17185573  0.83937241  0.54457593  1  0.138275  0.243322  -0.015515  4.309128  -0.014
S  S51  1  0.71205645  0.00004057  0.46022193  1  -0.165582  -0.357124  -0.024419  2.380528  -0.019
S  S52  1  0.28795063  0.99996106  0.53977883  1  -0.16562  -0.357219  -0.02442  2.380548  -0.019
N  N53  1  0.25654928  0.36279023  0.86162004  1  -0.136414  0.167713  0.000632  3.757776  0.0
N  N54  1  0.74344873  0.63720578  0.13837867  1  -0.136367  0.16765  0.000632  3.757818  0.0
N  N55  1  0.15199319  0.43876914  0.93057448  1  -0.224472  -0.2701  5.5e-05  3.121595  0.0
N  N56  1  0.84800530  0.56123032  0.06942676  1  -0.224466  -0.270029  5.5e-05  3.121693  0.0
N  N57  1  0.10236809  0.45018822  0.69953637  1  -0.324593  -0.243739  0.008855  3.520952  0.009
N  N58  1  0.89763091  0.54981474  0.30046330  1  -0.324618  -0.243889  0.008854  3.521016  0.009
N  N59  1  0.38045570  0.34302002  0.29663836  1  -0.131281  0.17226  0.001774  3.724915  0.001
N  N60  1  0.61954418  0.65698066  0.70335909  1  -0.131268  0.172336  0.001774  3.72494  0.001
N  N61  1  0.42724652  0.49748882  0.30091914  1  -0.224415  -0.283733  -9.9e-05  3.163734  -0.001
N  N62  1  0.57275078  0.50251067  0.69907889  1  -0.224435  -0.283792  -9.8e-05  3.16376  -0.001
N  N63  1  0.20424416  0.45600107  0.40572942  1  -0.33043  -0.242593  0.008217  3.545121  0.009
N  N64  1  0.79575554  0.54399842  0.59427094  1  -0.33042  -0.242568  0.008218  3.545087  0.009
N  N65  1  0.90488065  0.28412537  0.45504204  1  -0.422476  -0.434606  0.006265  3.458672  0.013
N  N66  1  0.09512558  0.71587763  0.54496052  1  -0.422517  -0.434586  0.006267  3.458612  0.013
