# generated using pymatgen
data_Zn5H42C68(N2O9)2
_symmetry_space_group_name_H-M   'P 1'
_cell_length_a   7.26141095
_cell_length_b   13.70473309
_cell_length_c   15.57370000
_cell_angle_alpha   84.16808130
_cell_angle_beta   88.52920904
_cell_angle_gamma   84.53065227
_symmetry_Int_Tables_number   1
_chemical_formula_structural   Zn5H42C68(N2O9)2
_chemical_formula_sum   'Zn5 H42 C68 N4 O18'
_cell_volume   1534.58690183
_cell_formula_units_Z   1
loop_
 _symmetry_equiv_pos_site_id
 _symmetry_equiv_pos_as_xyz
  1  'x, y, z'
loop_
 _atom_site_type_symbol
 _atom_site_label
 _atom_site_symmetry_multiplicity
 _atom_site_fract_x
 _atom_site_fract_y
 _atom_site_fract_z
 _atom_site_occupancy
 _atom_site_hle17_bader_spin_density
 _atom_site_hle17_ddec_charge
 _atom_site_hle17_ddec_spin_density
 _atom_site_hle17_ddec_sum_bond_order
 _atom_site_hle17_magmom
 _atom_site_hse06_10hf_bader_spin_density
 _atom_site_hse06_10hf_ddec_charge
 _atom_site_hse06_10hf_ddec_spin_density
 _atom_site_hse06_10hf_ddec_sum_bond_order
 _atom_site_hse06_10hf_magmom
 _atom_site_hse06_bader_spin_density
 _atom_site_hse06_ddec_charge
 _atom_site_hse06_ddec_spin_density
 _atom_site_hse06_ddec_sum_bond_order
 _atom_site_hse06_magmom
 _atom_site_pbe_bader_charge
 _atom_site_pbe_bader_spin_density
 _atom_site_pbe_cm5_charge
 _atom_site_pbe_ddec_charge
 _atom_site_pbe_ddec_spin_density
 _atom_site_pbe_ddec_sum_bond_order
 _atom_site_pbe_magmom
Zn  Zn0  1  0.49999859  0.00000074  0.99999928  1  0  1.186796  0  1.77028  0  0  1.029191  0  2.215328  0  0  1.077957  0  2.152791  0  1.358772  0  0.653544  0.994993  0  2.258403  0
Zn  Zn1  1  0.83578886  0.97850774  0.86384281  1  0  1.135526  0  1.779268  0  0  0.967118  0  2.225232  0  0  1.015357  0  2.167659  0  1.354829  0  0.673181  0.933078  0  2.264859  0
Zn  Zn2  1  0.16420905  0.02149113  0.13615565  1  0  1.135551  0  1.779178  0  0  0.967121  0  2.225141  0  0  1.015357  0  2.167566  0  1.354837  0  0.673168  0.933079  0  2.264772  0
Zn  Zn3  1  0.86140683  0.83167585  0.06553511  1  0  1.12298  0  1.736306  0  0  0.945574  0  2.188713  0  0  0.995931  0  2.129668  0  1.325601  0  0.677323  0.910178  0  2.229445  0
Zn  Zn4  1  0.13859220  0.16832450  0.93446385  1  0  1.122961  0  1.736297  0  0  0.945562  0  2.188688  0  0  0.995921  0  2.129646  0  1.325609  0  0.677329  0.910166  0  2.229419  0
H  H5  1  0.03329109  0.65700486  0.85152959  1  0  0.096623  0  0.9545  0  0  0.10736  0  1.018837  0  0  0.110389  0  1.017336  0  0.088213  0  0.10115  0.105131  0  1.020098  0
H  H6  1  0.96670668  0.34299475  0.14847202  1  0  0.096625  0  0.954538  0  0  0.107361  0  1.018871  0  0  0.110391  0  1.017368  0  0.088235  0  0.101156  0.105133  0  1.020133  0
H  H7  1  0.06535692  0.49484931  0.79006587  1  0  0.094318  0  0.947672  0  0  0.106258  0  1.007198  0  0  0.109614  0  1.005319  0  0.065791  0  0.099776  0.103779  0  1.008743  0
H  H8  1  0.93464288  0.50514661  0.20993733  1  0  0.094321  0  0.947636  0  0  0.106253  0  1.007163  0  0  0.10961  0  1.005283  0  0.065871  0  0.099785  0.103748  0  1.008736  0
H  H9  1  0.26231352  0.36509143  0.72360733  1  0  0.095917  0  0.945066  0  0  0.106488  0  1.005011  0  0  0.10944  0  1.003468  0  0.086009  0  0.100307  0.104323  0  1.006196  0
H  H10  1  0.73768701  0.63490818  0.27639488  1  0  0.095851  0  0.945185  0  0  0.106458  0  1.005081  0  0  0.10941  0  1.003539  0  0.086005  0  0.100309  0.104293  0  1.006266  0
H  H11  1  0.59418701  0.38655162  0.68764997  1  0  0.086091  0  0.981526  0  0  0.096254  0  1.043161  0  0  0.097915  0  1.044231  0  0.081252  0  0.095181  0.095035  0  1.042508  0
H  H12  1  0.40580913  0.61344946  0.31235088  1  0  0.086092  0  0.981486  0  0  0.096245  0  1.043131  0  0  0.097908  0  1.044203  0  0.081221  0  0.095174  0.095026  0  1.042478  0
H  H13  1  0.73267191  0.53492906  0.72438027  1  0  0.089217  0  0.945626  0  0  0.102603  0  1.001648  0  0  0.105765  0  0.999917  0  0.055719  0  0.100109  0.100295  0  1.003014  0
H  H14  1  0.26732699  0.46507202  0.27562118  1  0  0.089189  0  0.945611  0  0  0.102574  0  1.001637  0  0  0.105737  0  0.999904  0  0.055707  0  0.10008  0.100266  0  1.003003  0
H  H15  1  0.70068378  0.69406791  0.79155018  1  0  0.099822  0  0.947733  0  0  0.109961  0  1.011085  0  0  0.113787  0  1.00786  0  0.095976  0  0.102316  0.107118  0  1.013561  0
H  H16  1  0.29931413  0.30593096  0.20845084  1  0  0.099849  0  0.947807  0  0  0.110011  0  1.011118  0  0  0.113826  0  1.007906  0  0.095945  0  0.102372  0.107167  0  1.013595  0
H  H17  1  0.01993592  0.74367882  0.34338006  1  0  0.102907  0  0.936943  0  0  0.115479  0  0.995604  0  0  0.118883  0  0.993417  0  0.072855  0  0.106558  0.11296  0  0.997364  0
H  H18  1  0.98006888  0.25632005  0.65662216  1  0  0.102877  0  0.93698  0  0  0.11543  0  0.995663  0  0  0.118833  0  0.993478  0  0.072856  0  0.10656  0.112913  0  0.997422  0
H  H19  1  0.02215220  0.71378070  0.50426999  1  0  0.09105  0  0.944235  0  0  0.104665  0  0.999694  0  0  0.107968  0  0.998033  0  0.07021  0  0.10095  0.102305  0  1.000964  0
H  H20  1  0.97785548  0.28621743  0.49572906  1  0  0.091056  0  0.944233  0  0  0.104679  0  0.99969  0  0  0.107983  0  0.998028  0  0.070246  0  0.100938  0.102319  0  1.000959  0
H  H21  1  0.19268659  0.70735834  0.64150385  1  0  0.091454  0  0.95556  0  0  0.102415  0  1.013315  0  0  0.104803  0  1.013167  0  0.070761  0  0.100308  0.100695  0  1.013524  0
H  H22  1  0.80731833  0.29263980  0.35849523  1  0  0.091418  0  0.955521  0  0  0.10239  0  1.01328  0  0  0.104779  0  1.013132  0  0.070724  0  0.100297  0.10067  0  1.01349  0
H  H23  1  0.51670916  0.75053509  0.64007406  1  0  0.087968  0  0.973521  0  0  0.097774  0  1.035166  0  0  0.100065  0  1.034942  0  0.076679  0  0.096786  0.096149  0  1.03536  0
H  H24  1  0.48329727  0.24946231  0.35992571  1  0  0.087938  0  0.973516  0  0  0.097777  0  1.03513  0  0  0.100068  0  1.034906  0  0.076719  0  0.096778  0.096151  0  1.035325  0
H  H25  1  0.67621002  0.79910654  0.50129613  1  0  0.082433  0  0.966501  0  0  0.09348  0  1.029845  0  0  0.096483  0  1.028451  0  0.045143  0  0.095028  0.091298  0  1.030995  0
H  H26  1  0.32379603  0.20089307  0.49870474  1  0  0.082369  0  0.966587  0  0  0.093441  0  1.029902  0  0  0.096443  0  1.028508  0  0.045179  0  0.094997  0.091259  0  1.031052  0
H  H27  1  0.66449243  0.83598394  0.34088020  1  0  0.095842  0  0.962216  0  0  0.105308  0  1.029602  0  0  0.108478  0  1.027714  0  0.083967  0  0.101637  0.102953  0  1.031166  0
H  H28  1  0.33551335  0.16401714  0.65911732  1  0  0.095865  0  0.962272  0  0  0.105337  0  1.029647  0  0  0.108507  0  1.02776  0  0.084014  0  0.10165  0.102982  0  1.031213  0
H  H29  1  0.16504298  0.00966228  0.74428389  1  0  0.101985  0  0.931179  0  0  0.107175  0  0.995136  0  0  0.110287  0  0.992427  0  0.151662  0  0.121745  0.104754  0  0.997336  0
H  H30  1  0.83495644  0.99033585  0.25571269  1  0  0.102093  0  0.931015  0  0  0.107241  0  0.995065  0  0  0.110343  0  0.992367  0  0.151619  0  0.121793  0.104841  0  0.997242  0
H  H31  1  0.25240044  0.02138652  0.58882768  1  0  0.096193  0  0.967383  0  0  0.108184  0  1.026992  0  0  0.110919  0  1.026562  0  0.085074  0  0.104486  0.106261  0  1.027412  0
H  H32  1  0.74759833  0.97861529  0.41116986  1  0  0.096176  0  0.967428  0  0  0.108149  0  1.02706  0  0  0.110883  0  1.02663  0  0.085127  0  0.104473  0.106225  0  1.027479  0
H  H33  1  0.69281101  0.96119652  0.53734397  1  0  0.09383  0  0.974899  0  0  0.104645  0  1.037409  0  0  0.107423  0  1.036864  0  0.080696  0  0.103179  0.102672  0  1.037912  0
H  H34  1  0.30718750  0.03880677  0.46265152  1  0  0.093842  0  0.974891  0  0  0.10464  0  1.037416  0  0  0.107417  0  1.036873  0  0.080789  0  0.103159  0.102667  0  1.03792  0
H  H35  1  0.63699198  0.94442234  0.69515184  1  0  0.084583  0  0.926056  0  0  0.093505  0  0.985551  0  0  0.095919  0  0.98385  0  0.098701  0  0.118452  0.091711  0  0.986861  0
H  H36  1  0.36301221  0.05557211  0.30484501  1  0  0.084626  0  0.926067  0  0  0.093571  0  0.985511  0  0  0.095986  0  0.98381  0  0.098712  0  0.11848  0.091777  0  0.98682  0
H  H37  1  0.46367143  0.76648566  0.08612627  1  0  0.083088  0  0.966743  0  0  0.093842  0  1.026752  0  0  0.095356  0  1.025384  0  0.102111  0  0.12037  0.092586  0  1.027916  0
H  H38  1  0.53632970  0.23351837  0.91387490  1  0  0.08314  0  0.966695  0  0  0.093897  0  1.026707  0  0  0.095413  0  1.025333  0  0.102172  0  0.120401  0.092641  0  1.027875  0
H  H39  1  0.30209370  0.62583598  0.06163729  1  0  0.118942  0  0.954912  0  0  0.127245  0  1.017942  0  0  0.130979  0  1.015971  0  0.09137  0  0.111676  0.124509  0  1.019608  0
H  H40  1  0.69790356  0.37416658  0.93836662  1  0  0.118933  0  0.954926  0  0  0.127192  0  1.018008  0  0  0.130925  0  1.016038  0  0.09135  0  0.111676  0.124457  0  1.019671  0
H  H41  1  0.82234378  0.48957617  0.96744408  1  0  0.101872  0  0.967345  0  0  0.115271  0  1.024154  0  0  0.117819  0  1.023985  0  0.078357  0  0.108819  0.113414  0  1.024505  0
H  H42  1  0.17765150  0.51042197  0.03256025  1  0  0.101907  0  0.967239  0  0  0.115283  0  1.024079  0  0  0.117833  0  1.023901  0  0.078306  0  0.108811  0.113426  0  1.024428  0
H  H43  1  0.96501783  0.63817461  0.00198104  1  0  0.082386  0  0.984667  0  0  0.08816  0  1.054006  0  0  0.091283  0  1.050696  0  0.108314  0  0.115759  0.085885  0  1.056366  0
H  H44  1  0.03497870  0.36182426  0.99802000  1  0  0.082372  0  0.984644  0  0  0.088161  0  1.053977  0  0  0.091286  0  1.050666  0  0.108285  0  0.115741  0.085885  0  1.056339  0
H  H45  1  0.83098440  0.01313130  0.03152330  1  0  0.416336  0  0.874153  0  0  0.387303  0  0.946391  0  0  0.397431  0  0.932465  0  0.614125  0  0.286994  0.380055  0  0.953898  0
H  H46  1  0.16901213  0.98686757  0.96847453  1  0  0.416302  0  0.874169  0  0  0.387273  0  0.946399  0  0  0.397399  0  0.932498  0  0.61435  0  0.286966  0.380025  0  0.953904  0
C  C47  1  0.13533848  0.81764948  0.91125499  1  0  0.703572  0  3.853903  0  0  0.642932  0  4.157323  0  0  0.679694  0  4.144909  0  1.631381  0  0.22373  0.617764  0  4.165186  0
C  C48  1  0.86465891  0.18235234  0.08874578  1  0  0.70372  0  3.853953  0  0  0.643023  0  4.157471  0  0  0.679796  0  4.145056  0  1.63151  0  0.223765  0.61783  0  4.165376  0
C  C49  1  0.25731523  0.74565312  0.86288203  1  0  -0.045417  0  3.715436  0  0  -0.032151  0  3.954854  0  0  -0.035168  0  3.974215  0  -0.042559  0  -0.009084  -0.030187  0  3.941904  0
C  C50  1  0.74268354  0.25434870  0.13711808  1  0  -0.045479  0  3.715356  0  0  -0.032276  0  3.954893  0  0  -0.035296  0  3.974256  0  -0.042454  0  -0.009123  -0.030306  0  3.941953  0
C  C51  1  0.17950428  0.66509801  0.83761886  1  0  -0.140085  0  3.719861  0  0  -0.170171  0  3.97056  0  0  -0.172468  0  3.989514  0  -0.111138  0  -0.090943  -0.168617  0  3.957832  0
C  C52  1  0.82049487  0.33490159  0.16238208  1  0  -0.140044  0  3.719812  0  0  -0.170099  0  3.970513  0  0  -0.172396  0  3.989469  0  -0.111174  0  -0.09091  -0.168545  0  3.957786  0
C  C53  1  0.28553652  0.59092329  0.79583106  1  0  0.057475  0  3.811729  0  0  0.073368  0  4.041864  0  0  0.074161  0  4.06616  0  0.001819  0  -0.009844  0.072923  0  4.025319  0
C  C54  1  0.71446263  0.40907632  0.20416989  1  0  0.057407  0  3.811742  0  0  0.073308  0  4.041878  0  0  0.0741  0  4.066175  0  0.001778  0  -0.009857  0.072864  0  4.025326  0
C  C55  1  0.21030254  0.50477680  0.77435800  1  0  -0.123326  0  3.748954  0  0  -0.143312  0  3.997905  0  0  -0.146863  0  4.019037  0  -0.019096  0  -0.092057  -0.140887  0  3.983546  0
C  C56  1  0.78969549  0.49522134  0.22564501  1  0  -0.123288  0  3.74891  0  0  -0.143268  0  3.99785  0  0  -0.146818  0  4.018981  0  -0.019129  0  -0.092079  -0.140821  0  3.983498  0
C  C57  1  0.32021557  0.43252923  0.73670557  1  0  -0.054829  0  3.759691  0  0  -0.070572  0  4.012331  0  0  -0.071204  0  4.032893  0  -0.072033  0  -0.088834  -0.069956  0  3.998149  0
C  C58  1  0.67978358  0.56747038  0.26329730  1  0  -0.054768  0  3.75963  0  0  -0.070526  0  4.01225  0  0  -0.071157  0  4.03281  0  -0.071986  0  -0.088804  -0.069908  0  3.99806  0
C  C59  1  0.50900922  0.44405899  0.71736827  1  0  -0.062851  0  3.773402  0  0  -0.077728  0  4.023607  0  0  -0.079134  0  4.045319  0  -0.030686  0  -0.092762  -0.076753  0  4.00871  0
C  C60  1  0.49098718  0.55594062  0.28263335  1  0  -0.062868  0  3.773409  0  0  -0.077746  0  4.023623  0  0  -0.079154  0  4.045334  0  -0.030714  0  -0.092768  -0.076771  0  4.008727  0
C  C61  1  0.58630968  0.52664069  0.73778692  1  0  -0.112142  0  3.748935  0  0  -0.130964  0  3.994284  0  0  -0.133539  0  4.01493  0  -0.059895  0  -0.08977  -0.12909  0  3.980229  0
C  C62  1  0.41368948  0.47335892  0.26221531  1  0  -0.112146  0  3.749005  0  0  -0.130949  0  3.994354  0  0  -0.133522  0  4.015  0  -0.059994  0  -0.08977  -0.129074  0  3.9803  0
C  C63  1  0.47804378  0.60149537  0.77800088  1  0  0.0456  0  3.805318  0  0  0.061768  0  4.035575  0  0  0.060249  0  4.060548  0  0.001986  0  -0.011383  0.062725  0  4.018573  0
C  C64  1  0.52195249  0.39850497  0.22200196  1  0  0.045659  0  3.805074  0  0  0.061787  0  4.035403  0  0  0.060269  0  4.060373  0  0.002128  0  -0.011379  0.062745  0  4.018402  0
C  C65  1  0.55387044  0.68548413  0.80305782  1  0  -0.116448  0  3.73147  0  0  -0.147506  0  3.985704  0  0  -0.146347  0  4.003418  0  -0.04379  0  -0.08441  -0.147981  0  3.973682  0
C  C66  1  0.44612733  0.31451548  0.19694314  1  0  -0.116494  0  3.731428  0  0  -0.147572  0  3.985695  0  0  -0.146404  0  4.003412  0  -0.043807  0  -0.084464  -0.148046  0  3.973675  0
C  C67  1  0.44853742  0.75593273  0.84529886  1  0  -0.082934  0  3.748796  0  0  -0.071227  0  3.989396  0  0  -0.078442  0  4.011092  0  -0.05711  0  -0.020519  -0.06661  0  3.974859  0
C  C68  1  0.55146174  0.24406687  0.15470080  1  0  -0.082904  0  3.748719  0  0  -0.071161  0  3.989329  0  0  -0.078376  0  4.011026  0  -0.057231  0  -0.020495  -0.066546  0  3.974795  0
C  C69  1  0.54082168  0.83645468  0.88016979  1  0  0.673443  0  3.881149  0  0  0.618781  0  4.176476  0  0  0.654439  0  4.168422  0  1.59277  0  0.212819  0.594604  0  4.181131  0
C  C70  1  0.45917584  0.16354640  0.11982911  1  0  0.673472  0  3.88127  0  0  0.6188  0  4.176605  0  0  0.654461  0  4.168551  0  1.5928  0  0.212831  0.59462  0  4.181266  0
C  C71  1  0.12306637  0.79927966  0.18802275  1  0  0.660551  0  3.856324  0  0  0.607719  0  4.152819  0  0  0.64145  0  4.145666  0  1.571391  0  0.211113  0.584767  0  4.156907  0
C  C72  1  0.87693304  0.20071848  0.81197832  1  0  0.660535  0  3.856225  0  0  0.607823  0  4.152575  0  0  0.641557  0  4.14542  0  1.571446  0  0.211217  0.584861  0  4.156672  0
C  C73  1  0.23935874  0.80245179  0.26660382  1  0  -0.057981  0  3.71531  0  0  -0.04641  0  3.958851  0  0  -0.049771  0  3.978443  0  -0.009985  0  -0.008473  -0.04434  0  3.945798  0
C  C74  1  0.76064304  0.19754855  0.73339575  1  0  -0.057982  0  3.715299  0  0  -0.046454  0  3.958848  0  0  -0.049815  0  3.978435  0  -0.009934  0  -0.008503  -0.04437  0  3.945798  0
C  C75  1  0.15874841  0.76794281  0.34406194  1  0  -0.124569  0  3.710291  0  0  -0.155349  0  3.961833  0  0  -0.156575  0  3.979705  0  -0.058578  0  -0.082873  -0.154452  0  3.949833  0
C  C76  1  0.84125639  0.23205606  0.65594029  1  0  -0.124462  0  3.710418  0  0  -0.155304  0  3.961944  0  0  -0.156514  0  3.979824  0  -0.058724  0  -0.082865  -0.154419  0  3.949949  0
C  C77  1  0.25010852  0.76317871  0.42371073  1  0  0.060168  0  3.801732  0  0  0.077214  0  4.028887  0  0  0.077792  0  4.052923  0  -0.018831  0  -0.007711  0.076868  0  4.012528  0
C  C78  1  0.74990028  0.23682090  0.57629010  1  0  0.060114  0  3.801908  0  0  0.077355  0  4.02878  0  0  0.077885  0  4.052883  0  -0.018747  0  -0.007677  0.077009  0  4.012422  0
C  C79  1  0.16436909  0.73363641  0.50393311  1  0  -0.119708  0  3.745468  0  0  -0.139163  0  3.990612  0  0  -0.142462  0  4.011064  0  -0.010914  0  -0.090368  -0.13692  0  3.976702  0
C  C80  1  0.83563846  0.26636246  0.49606588  1  0  -0.119775  0  3.745498  0  0  -0.139298  0  3.990624  0  0  -0.142583  0  4.011089  0  -0.011416  0  -0.090379  -0.137054  0  3.976712  0
C  C81  1  0.25885611  0.73007751  0.58005537  1  0  -0.053302  0  3.762994  0  0  -0.067744  0  4.012905  0  0  -0.068354  0  4.033576  0  -0.10242  0  -0.088884  -0.067198  0  3.99874  0
C  C82  1  0.74114744  0.26992062  0.41994437  1  0  -0.053161  0  3.762849  0  0  -0.067644  0  4.012827  0  0  -0.068254  0  4.033495  0  -0.102049  0  -0.088865  -0.067099  0  3.998662  0
C  C83  1  0.44417543  0.75462955  0.57926302  1  0  -0.066023  0  3.781619  0  0  -0.080521  0  4.030972  0  0  -0.081708  0  4.052086  0  0.019977  0  -0.09458  -0.079657  0  4.016519  0
C  C84  1  0.55583087  0.24536859  0.42073797  1  0  -0.066024  0  3.781591  0  0  -0.080539  0  4.030968  0  0  -0.081725  0  4.052082  0  0.020007  0  -0.094585  -0.079674  0  4.016515  0
C  C85  1  0.53220260  0.78201853  0.50232582  1  0  -0.129445  0  3.768923  0  0  -0.146533  0  4.012439  0  0  -0.149579  0  4.033336  0  -0.098869  0  -0.096255  -0.144364  0  3.998254  0
C  C86  1  0.46780194  0.21798181  0.49767371  1  0  -0.129356  0  3.76898  0  0  -0.146489  0  4.012478  0  0  -0.149533  0  4.033372  0  -0.098862  0  -0.096199  -0.144319  0  3.998289  0
C  C87  1  0.43775820  0.78803278  0.42294760  1  0  0.052554  0  3.816825  0  0  0.069936  0  4.041693  0  0  0.06916  0  4.066332  0  -0.023549  0  -0.012273  0.070393  0  4.024931  0
C  C88  1  0.56224771  0.21196756  0.57705255  1  0  0.052475  0  3.816983  0  0  0.069861  0  4.041752  0  0  0.069099  0  4.066399  0  -0.023585  0  -0.012305  0.070321  0  4.024986  0
C  C89  1  0.52050545  0.81903886  0.34306293  1  0  -0.12241  0  3.72831  0  0  -0.154165  0  3.980719  0  0  -0.153995  0  3.998954  0  -0.025554  0  -0.08651  -0.154078  0  3.968374  0
C  C90  1  0.47949909  0.18096149  0.65693660  1  0  -0.122434  0  3.728556  0  0  -0.154225  0  3.980958  0  0  -0.154054  0  3.99919  0  -0.025553  0  -0.086558  -0.154139  0  3.968616  0
C  C91  1  0.42377309  0.83082719  0.26658228  1  0  -0.080867  0  3.73922  0  0  -0.069252  0  3.984754  0  0  -0.075446  0  4.005974  0  -0.027981  0  -0.016823  -0.065285  0  3.970555  0
C  C92  1  0.57622843  0.16917462  0.73341651  1  0  -0.080901  0  3.739214  0  0  -0.069269  0  3.98475  0  0  -0.075463  0  4.00597  0  -0.027983  0  -0.016826  -0.06531  0  3.970558  0
C  C93  1  0.52380214  0.87196850  0.18727649  1  0  0.664484  0  3.886139  0  0  0.610467  0  4.184543  0  0  0.645216  0  4.175747  0  1.559564  0  0.214271  0.58685  0  4.189843  0
C  C94  1  0.47619813  0.12803258  0.81272303  1  0  0.664528  0  3.886012  0  0  0.610491  0  4.184444  0  0  0.645243  0  4.17565  0  1.559589  0  0.214303  0.586875  0  4.189743  0
C  C95  1  0.06619976  0.99832145  0.69558834  1  0  0.142313  0  3.682822  0  0  0.110725  0  3.939127  0  0  0.117859  0  3.956238  0  0.487764  0  0.052959  0.106136  0  3.92763  0
C  C96  1  0.93379927  0.00167889  0.30440805  1  0  0.142249  0  3.682633  0  0  0.110642  0  3.939035  0  0  0.117783  0  3.956149  0  0.487685  0  0.052919  0.106034  0  3.927539  0
C  C97  1  0.11231584  0.00571810  0.60816978  1  0  -0.160841  0  3.707357  0  0  -0.179543  0  3.956566  0  0  -0.188061  0  3.979079  0  -0.076058  0  -0.082819  -0.174011  0  3.941415  0
C  C98  1  0.88768017  0.99428371  0.39182651  1  0  -0.160931  0  3.707299  0  0  -0.179588  0  3.956511  0  0  -0.188107  0  3.97902  0  -0.075989  0  -0.082849  -0.174058  0  3.941367  0
C  C99  1  0.97927964  0.99429771  0.54696100  1  0  0.097848  0  3.750405  0  0  0.107734  0  3.984179  0  0  0.111586  0  4.006833  0  -0.048621  0  0.01386  0.105358  0  3.968672  0
C  C100  1  0.02072025  0.00570558  0.45303447  1  0  0.098097  0  3.750329  0  0  0.10796  0  3.984111  0  0  0.111813  0  4.006765  0  -0.008516  0  0.013936  0.105585  0  3.968603  0
C  C101  1  0.80456641  0.97184669  0.57964285  1  0  -0.160225  0  3.7124  0  0  -0.17874  0  3.960615  0  0  -0.187082  0  3.983404  0  0.006177  0  -0.082441  -0.173272  0  3.945231  0
C  C102  1  0.19543111  0.02815439  0.42035349  1  0  -0.160247  0  3.712565  0  0  -0.178744  0  3.96077  0  0  -0.187087  0  3.983559  0  0.005788  0  -0.082428  -0.173278  0  3.945387  0
C  C103  1  0.77053819  0.96335793  0.66819491  1  0  0.138618  0  3.712233  0  0  0.108914  0  3.965697  0  0  0.115685  0  3.984186  0  0.496794  0  0.05212  0.104564  0  3.953126  0
C  C104  1  0.22945972  0.03664093  0.33180098  1  0  0.138508  0  3.712249  0  0  0.108812  0  3.965676  0  0  0.115582  0  3.98417  0  0.497154  0  0.052083  0.104462  0  3.953105  0
C  C105  1  0.54120966  0.70279829  0.06252596  1  0  0.160184  0  3.679185  0  0  0.124632  0  3.933968  0  0  0.132788  0  3.95215  0  0.516307  0  0.055576  0.119282  0  3.921695  0
C  C106  1  0.45879174  0.29720426  0.93747598  1  0  0.160082  0  3.679102  0  0  0.124503  0  3.9339  0  0  0.13266  0  3.952081  0  0.517057  0  0.055494  0.119152  0  3.921628  0
C  C107  1  0.44946586  0.62236033  0.04659993  1  0  -0.137584  0  3.660005  0  0  -0.158026  0  3.912508  0  0  -0.165989  0  3.933601  0  0.034504  0  -0.071838  -0.152906  0  3.898459  0
C  C108  1  0.55053166  0.37764075  0.95340411  1  0  -0.137469  0  3.660061  0  0  -0.157874  0  3.912493  0  0  -0.165834  0  3.933585  0  0.03408  0  -0.071759  -0.152754  0  3.898444  0
C  C109  1  0.54644817  0.54271208  0.01059038  1  0  0.101742  0  3.746922  0  0  0.112807  0  3.976813  0  0  0.116877  0  3.998652  0  -0.007468  0  0.018017  0.11027  0  3.961836  0
C  C110  1  0.45354922  0.45728974  0.98941359  1  0  0.101575  0  3.747132  0  0  0.112746  0  3.976901  0  0  0.116815  0  3.99874  0  -0.053299  0  0.017967  0.110208  0  3.961923  0
C  C111  1  0.73668665  0.54842871  0.99500722  1  0  -0.160358  0  3.714809  0  0  -0.179402  0  3.963847  0  0  -0.18795  0  3.987056  0  0.016758  0  -0.082115  -0.173837  0  3.9482  0
C  C112  1  0.26331100  0.45157164  0.00499432  1  0  -0.160259  0  3.714601  0  0  -0.179308  0  3.963604  0  0  -0.187854  0  3.986815  0  0.016766  0  -0.082044  -0.173741  0  3.947955  0
C  C113  1  0.81866051  0.63064502  0.01401502  1  0  0.123934  0  3.714001  0  0  0.091701  0  3.966586  0  0  0.098358  0  3.985432  0  0.439906  0  0.042917  0.087415  0  3.95377  0
C  C114  1  0.18133740  0.36935385  0.98598665  1  0  0.12388  0  3.713966  0  0  0.09161  0  3.96657  0  0  0.098267  0  3.985419  0  0.439895  0  0.042871  0.087325  0  3.953754  0
N  N115  1  0.89747044  0.97792723  0.72551551  1  0  -0.312046  0  3.259489  0  0  -0.240594  0  3.523049  0  0  -0.258248  0  3.539741  0  -1.216003  0  -0.311203  -0.228693  0  3.511682  0
N  N116  1  0.10252746  0.02207164  0.27448102  1  0  -0.312011  0  3.259276  0  0  -0.240559  0  3.522874  0  0  -0.258217  0  3.539564  0  -1.216076  0  -0.311215  -0.228663  0  3.511523  0
N  N117  1  0.72277455  0.70826445  0.04630232  1  0  -0.330435  0  3.271374  0  0  -0.24796  0  3.540999  0  0  -0.267965  0  3.557085  0  -1.238646  0  -0.319799  -0.234477  0  3.530015  0
N  N118  1  0.27722434  0.29173663  0.95369850  1  0  -0.330428  0  3.271361  0  0  -0.24793  0  3.540985  0  0  -0.267939  0  3.557073  0  -1.23881  0  -0.31977  -0.234447  0  3.530001  0
O  O119  1  0.10251542  0.90625722  0.87758459  1  0  -0.659327  0  2.086178  0  0  -0.590411  0  2.346203  0  0  -0.617991  0  2.331395  0  -1.202483  0  -0.317775  -0.570935  0  2.355583  0
O  O120  1  0.89748085  0.09374313  0.12241440  1  0  -0.659319  0  2.086186  0  0  -0.590372  0  2.346274  0  0  -0.617933  0  2.331399  0  -1.202464  0  -0.317698  -0.570874  0  2.355632  0
O  O121  1  0.06754328  0.78070503  0.98144271  1  0  -0.63222  0  2.105034  0  0  -0.565384  0  2.376734  0  0  -0.593581  0  2.36327  0  -1.179063  0  -0.304521  -0.545621  0  2.385409  0
O  O122  1  0.93245037  0.21929457  0.01855573  1  0  -0.632354  0  2.105072  0  0  -0.565472  0  2.376766  0  0  -0.593681  0  2.363307  0  -1.179186  0  -0.304616  -0.545701  0  2.385455  0
O  O123  1  0.45981864  0.87387060  0.94396479  1  0  -0.638719  0  2.130098  0  0  -0.56566  0  2.391114  0  0  -0.595229  0  2.379974  0  -1.17218  0  -0.302861  -0.545144  0  2.398268  0
O  O124  1  0.54017737  0.12613121  0.05603343  1  0  -0.6387  0  2.130116  0  0  -0.565681  0  2.391193  0  0  -0.595256  0  2.380053  0  -1.172218  0  -0.302836  -0.545148  0  2.398325  0
O  O125  1  0.69431820  0.85813662  0.84539502  1  0  -0.646355  0  2.064253  0  0  -0.584997  0  2.331292  0  0  -0.613286  0  2.319416  0  -1.182505  0  -0.319184  -0.565135  0  2.338719  0
O  O126  1  0.30567932  0.14186446  0.15460324  1  0  -0.646418  0  2.064331  0  0  -0.585034  0  2.331357  0  0  -0.613324  0  2.319478  0  -1.182509  0  -0.319225  -0.565174  0  2.338788  0
O  O127  1  0.06504238  0.88084843  0.14241550  1  0  -0.669926  0  2.15435  0  0  -0.58257  0  2.432402  0  0  -0.615077  0  2.41726  0  -1.163709  0  -0.315472  -0.55963  0  2.441852  0
O  O128  1  0.93495729  0.11914823  0.85758634  1  0  -0.669823  0  2.154388  0  0  -0.582563  0  2.432438  0  0  -0.615065  0  2.417282  0  -1.163795  0  -0.3155  -0.559627  0  2.441915  0
O  O129  1  0.07333686  0.71810795  0.17295593  1  0  -0.578012  0  1.869879  0  0  -0.531923  0  2.089353  0  0  -0.555649  0  2.081819  0  -1.144216  0  -0.306364  -0.51491  0  2.093763  0
O  O130  1  0.92666431  0.28188797  0.82704789  1  0  -0.578048  0  1.869842  0  0  -0.531957  0  2.089212  0  0  -0.555686  0  2.081681  0  -1.14422  0  -0.306399  -0.514941  0  2.093628  0
O  O131  1  0.43103141  0.93122842  0.13173212  1  0  -0.666121  0  2.154743  0  0  -0.590577  0  2.430787  0  0  -0.619068  0  2.414781  0  -1.191934  0  -0.30732  -0.570711  0  2.441175  0
O  O132  1  0.56897012  0.06877339  0.86826796  1  0  -0.666128  0  2.154653  0  0  -0.590542  0  2.430632  0  0  -0.619042  0  2.414634  0  -1.191912  0  -0.307318  -0.570675  0  2.44102  0
O  O133  1  0.69458363  0.84565212  0.18073317  1  0  -0.616766  0  2.050535  0  0  -0.558916  0  2.315952  0  0  -0.585637  0  2.304641  0  -1.173985  0  -0.306385  -0.540189  0  2.323038  0
O  O134  1  0.30541415  0.15434749  0.81926651  1  0  -0.616751  0  2.050542  0  0  -0.55891  0  2.315964  0  0  -0.585628  0  2.304645  0  -1.173996  0  -0.306397  -0.54018  0  2.323048  0
O  O135  1  0.78211552  0.96320839  0.99929095  1  0  -0.966048  0  1.934098  0  0  -0.861973  0  2.236408  0  0  -0.894811  0  2.195825  0  -1.227206  0  -0.5618  -0.838802  0  2.261917  0
O  O136  1  0.21788101  0.03679048  0.00070816  1  0  -0.966004  0  1.934079  0  0  -0.861926  0  2.236385  0  0  -0.894762  0  2.195822  0  -1.227455  0  -0.561775  -0.838754  0  2.261891  0
