# generated using pymatgen
data_CdH18C24(BrN2)2
_symmetry_space_group_name_H-M   'P 1'
_cell_length_a   9.21062160
_cell_length_b   9.98749677
_cell_length_c   13.60319909
_cell_angle_alpha   101.94358636
_cell_angle_beta   106.64305278
_cell_angle_gamma   99.93496744
_symmetry_Int_Tables_number   1
_chemical_formula_structural   CdH18C24(BrN2)2
_chemical_formula_sum   'Cd2 H36 C48 Br4 N8'
_cell_volume   1136.56292580
_cell_formula_units_Z   2
loop_
 _symmetry_equiv_pos_site_id
 _symmetry_equiv_pos_as_xyz
  1  'x, y, z'
loop_
 _atom_site_type_symbol
 _atom_site_label
 _atom_site_symmetry_multiplicity
 _atom_site_fract_x
 _atom_site_fract_y
 _atom_site_fract_z
 _atom_site_occupancy
 _atom_site_hle17_bader_spin_density
 _atom_site_hle17_ddec_charge
 _atom_site_hle17_ddec_spin_density
 _atom_site_hle17_ddec_sum_bond_order
 _atom_site_hle17_magmom
 _atom_site_hse06_10hf_bader_spin_density
 _atom_site_hse06_10hf_ddec_charge
 _atom_site_hse06_10hf_ddec_spin_density
 _atom_site_hse06_10hf_ddec_sum_bond_order
 _atom_site_hse06_10hf_magmom
 _atom_site_hse06_bader_spin_density
 _atom_site_hse06_ddec_charge
 _atom_site_hse06_ddec_spin_density
 _atom_site_hse06_ddec_sum_bond_order
 _atom_site_hse06_magmom
 _atom_site_pbe_bader_spin_density
 _atom_site_pbe_cm5_charge
 _atom_site_pbe_ddec_charge
 _atom_site_pbe_ddec_spin_density
 _atom_site_pbe_ddec_sum_bond_order
 _atom_site_pbe_magmom
Cd  Cd0  1  0.64444775  0.16155918  0.24503067  1  0  0.900736  0  1.940656  0  0  0.715392  0  2.413305  0  0  0.7657  0  2.371458  0  0  0.604934  0.680947  0  2.440538  0
Cd  Cd1  1  0.35555168  0.83845196  0.75496999  1  0  0.900814  0  1.940578  0  0  0.715467  0  2.413259  0  0  0.765776  0  2.371408  0  0  0.604958  0.681022  0  2.440497  0
H  H2  1  0.73078349  0.90530948  0.78060702  1  0  0.069081  0  0.97531  0  0  0.074388  0  1.046876  0  0  0.077108  0  1.044401  0  0  0.098303  0.072381  0  1.048741  0
H  H3  1  0.26922125  0.09469642  0.21939981  1  0  0.069053  0  0.975342  0  0  0.074409  0  1.046859  0  0  0.077127  0  1.044387  0  0  0.098311  0.072402  0  1.048723  0
H  H4  1  0.98731217  0.87805956  0.89816524  1  0  0.109431  0  0.989807  0  0  0.116042  0  1.055109  0  0  0.119869  0  1.053759  0  0  0.089007  0.113276  0  1.056227  0
H  H5  1  0.01269173  0.12194317  0.10184022  1  0  0.109435  0  0.989827  0  0  0.116033  0  1.055143  0  0  0.119861  0  1.05378  0  0  0.089036  0.113268  0  1.056259  0
H  H6  1  0.98321656  0.75719977  0.03909718  1  0  0.096353  0  0.932829  0  0  0.109516  0  0.989384  0  0  0.112694  0  0.986935  0  0  0.106253  0.107114  0  0.991301  0
H  H7  1  0.01678735  0.24279451  0.96090555  1  0  0.096351  0  0.932835  0  0  0.10945  0  0.989459  0  0  0.112619  0  0.987019  0  0  0.106246  0.107049  0  0.991376  0
H  H8  1  0.47894974  0.67873816  0.92523780  1  0  0.072512  0  0.984842  0  0  0.079037  0  1.055934  0  0  0.080942  0  1.054979  0  0  0.101662  0.077647  0  1.05661  0
H  H9  1  0.52105674  0.32125719  0.07476486  1  0  0.072579  0  0.984697  0  0  0.079068  0  1.055867  0  0  0.080973  0  1.054911  0  0  0.101673  0.077686  0  1.056536  0
H  H10  1  0.51830840  0.72560623  0.09545288  1  0  0.106304  0  0.950452  0  0  0.113764  0  1.015723  0  0  0.117379  0  1.013568  0  0  0.102937  0.111446  0  1.016715  0
H  H11  1  0.48168735  0.27438694  0.90454218  1  0  0.106265  0  0.950461  0  0  0.113707  0  1.015796  0  0  0.117326  0  1.013645  0  0  0.102884  0.111395  0  1.016775  0
H  H12  1  0.50513105  0.64016936  0.24961725  1  0  0.095679  0  0.972406  0  0  0.105276  0  1.037  0  0  0.108103  0  1.035505  0  0  0.101089  0.103239  0  1.03816  0
H  H13  1  0.49487176  0.35982069  0.75038096  1  0  0.09568  0  0.972421  0  0  0.105255  0  1.037043  0  0  0.108082  0  1.03555  0  0  0.101092  0.103209  0  1.038231  0
H  H14  1  0.89856496  0.46048054  0.24552686  1  0  0.101597  0  0.950841  0  0  0.110433  0  1.013615  0  0  0.113364  0  1.012487  0  0  0.102771  0.108386  0  1.014266  0
H  H15  1  0.10144186  0.53951584  0.75447014  1  0  0.101655  0  0.950809  0  0  0.110475  0  1.013597  0  0  0.113397  0  1.012476  0  0  0.102805  0.108428  0  1.014249  0
H  H16  1  0.90934932  0.54278064  0.08812543  1  0  0.094583  0  0.941583  0  0  0.107984  0  0.996627  0  0  0.111058  0  0.995234  0  0  0.103772  0.105685  0  0.997824  0
H  H17  1  0.09064784  0.45721360  0.91187080  1  0  0.094607  0  0.941476  0  0  0.10801  0  0.996516  0  0  0.111085  0  0.995123  0  0  0.103775  0.105711  0  0.997715  0
H  H18  1  0.73733424  0.18653339  0.50228741  1  0  0.102511  0  0.989356  0  0  0.108484  0  1.060496  0  0  0.111448  0  1.058906  0  0  0.093713  0.106567  0  1.061333  0
H  H19  1  0.26267708  0.81347147  0.49771542  1  0  0.102488  0  0.989323  0  0  0.108462  0  1.060453  0  0  0.111427  0  1.058861  0  0  0.093694  0.106546  0  1.06129  0
H  H20  1  0.74582530  0.26133280  0.69208968  1  0  0.090129  0  0.971342  0  0  0.102147  0  1.031276  0  0  0.105109  0  1.02964  0  0  0.090253  0.099888  0  1.032689  0
H  H21  1  0.25417697  0.73866779  0.30790851  1  0  0.090195  0  0.97133  0  0  0.102188  0  1.031285  0  0  0.105152  0  1.029648  0  0  0.090263  0.099929  0  1.032699  0
H  H22  1  0.73733931  0.50488254  0.77276252  1  0  0.087945  0  0.956022  0  0  0.101137  0  1.011911  0  0  0.103012  0  1.012589  0  0  0.098655  0.099669  0  1.011695  0
H  H23  1  0.26265469  0.49511698  0.22723828  1  0  0.087884  0  0.956083  0  0  0.101092  0  1.011957  0  0  0.102972  0  1.01263  0  0  0.098642  0.099609  0  1.011759  0
H  H24  1  0.70672368  0.67808342  0.66541996  1  0  0.102261  0  0.97931  0  0  0.111116  0  1.044919  0  0  0.113415  0  1.044877  0  0  0.101429  0.109351  0  1.045147  0
H  H25  1  0.29326666  0.32191502  0.33457775  1  0  0.102294  0  0.979317  0  0  0.111149  0  1.044921  0  0  0.113435  0  1.044899  0  0  0.101421  0.109399  0  1.045132  0
H  H26  1  0.59438288  0.76342830  0.48343956  1  0  0.094914  0  0.917552  0  0  0.109867  0  0.981103  0  0  0.110054  0  0.981842  0  0  0.113303  0.109558  0  0.980454  0
H  H27  1  0.40561825  0.23656806  0.51655778  1  0  0.094935  0  0.917462  0  0  0.109912  0  0.981034  0  0  0.1101  0  0.981771  0  0  0.113303  0.109603  0  0.980384  0
H  H28  1  0.68815084  0.77661954  0.38927649  1  0  0.091155  0  0.964617  0  0  0.104867  0  1.031879  0  0  0.105237  0  1.032342  0  0  0.109962  0.104384  0  1.03151  0
H  H29  1  0.31185284  0.22337790  0.61072225  1  0  0.091112  0  0.96468  0  0  0.104886  0  1.031899  0  0  0.105257  0  1.03236  0  0  0.109956  0.104401  0  1.031533  0
H  H30  1  0.72776413  0.01341279  0.57432758  1  0  0.103921  0  0.965765  0  0  0.11325  0  1.031411  0  0  0.116399  0  1.028508  0  0  0.099232  0.110898  0  1.033421  0
H  H31  1  0.27222902  0.98658356  0.42567184  1  0  0.103941  0  0.965681  0  0  0.113259  0  1.031325  0  0  0.116405  0  1.028431  0  0  0.099214  0.110907  0  1.033335  0
H  H32  1  0.97093866  0.18140241  0.71383455  1  0  0.097385  0  0.970108  0  0  0.106117  0  1.033678  0  0  0.108085  0  1.035077  0  0  0.101905  0.105109  0  1.03206  0
H  H33  1  0.02904967  0.81859709  0.28616438  1  0  0.097292  0  0.970138  0  0  0.106079  0  1.033659  0  0  0.108014  0  1.035092  0  0  0.101894  0.105071  0  1.032043  0
H  H34  1  0.21138928  0.09272095  0.76930369  1  0  0.066221  0  0.981037  0  0  0.071842  0  1.05403  0  0  0.073584  0  1.053049  0  0  0.103575  0.070738  0  1.054441  0
H  H35  1  0.78860705  0.90728700  0.23069368  1  0  0.066234  0  0.981069  0  0  0.071857  0  1.054046  0  0  0.073598  0  1.053069  0  0  0.103602  0.070752  0  1.054456  0
H  H36  1  0.99631691  0.70166732  0.55315643  1  0  0.079811  0  0.94659  0  0  0.085653  0  1.014879  0  0  0.087951  0  1.013668  0  0  0.110883  0.084097  0  1.015451  0
H  H37  1  0.00368138  0.29833537  0.44684202  1  0  0.079818  0  0.946674  0  0  0.085725  0  1.014891  0  0  0.088025  0  1.013682  0  0  0.110886  0.084168  0  1.015463  0
C  C38  1  0.73547831  0.84614433  0.84014046  1  0  0.120686  0  3.715287  0  0  0.091401  0  3.963145  0  0  0.098805  0  3.980318  0  0  0.038725  0.086781  0  3.951235  0
C  C39  1  0.26452474  0.15385946  0.15986498  1  0  0.120727  0  3.715313  0  0  0.091402  0  3.963174  0  0  0.098807  0  3.980342  0  0  0.038704  0.086784  0  3.951262  0
C  C40  1  0.87591483  0.83299428  0.90599624  1  0  -0.110191  0  3.732565  0  0  -0.119837  0  3.979133  0  0  -0.126932  0  4.000119  0  0  -0.087505  -0.115379  0  3.964976  0
C  C41  1  0.12408936  0.16700528  0.09400733  1  0  -0.110344  0  3.732679  0  0  -0.119979  0  3.979271  0  0  -0.127067  0  4.000251  0  0  -0.08763  -0.115521  0  3.965111  0
C  C42  1  0.87313480  0.76271428  0.98412939  1  0  -0.049133  0  3.690934  0  0  -0.074585  0  3.936306  0  0  -0.071911  0  3.954329  0  0  -0.065178  -0.075986  0  3.923873  0
C  C43  1  0.12686884  0.23728317  0.01587302  1  0  -0.048995  0  3.690941  0  0  -0.074355  0  3.936323  0  0  -0.071675  0  3.954357  0  0  -0.065106  -0.075756  0  3.923889  0
C  C44  1  0.72955349  0.70621591  0.99442916  1  0  -0.006437  0  3.782776  0  0  0.011454  0  4.017464  0  0  0.006109  0  4.042241  0  0  -0.007078  0.014976  0  4.000081  0
C  C45  1  0.27044706  0.29377413  0.00556786  1  0  -0.00639  0  3.782734  0  0  0.011403  0  4.017538  0  0  0.00605  0  4.042323  0  0  -0.007099  0.014925  0  4.000154  0
C  C46  1  0.59417090  0.72125425  0.92202329  1  0  0.089191  0  3.696236  0  0  0.052906  0  3.943983  0  0  0.059154  0  3.963613  0  0  0.043083  0.048716  0  3.930459  0
C  C47  1  0.40583334  0.27874108  0.07797599  1  0  0.089095  0  3.69618  0  0  0.052849  0  3.943943  0  0  0.059099  0  3.963574  0  0  0.043074  0.048643  0  3.930441  0
C  C48  1  0.71679417  0.64264675  0.08113858  1  0  0.062925  0  3.779266  0  0  0.076984  0  4.008508  0  0  0.079097  0  4.033347  0  0  -0.001973  0.075784  0  3.99136  0
C  C49  1  0.28319930  0.35734220  0.91885540  1  0  0.062857  0  3.7794  0  0  0.076978  0  4.008631  0  0  0.079096  0  4.033472  0  0  -0.001927  0.075779  0  3.991482  0
C  C50  1  0.60048546  0.66535748  0.12647847  1  0  -0.105848  0  3.718049  0  0  -0.122635  0  3.964406  0  0  -0.12683  0  3.984646  0  0  -0.083596  -0.119697  0  3.950244  0
C  C51  1  0.39951054  0.33463676  0.87351974  1  0  -0.105767  0  3.7181  0  0  -0.122589  0  3.964456  0  0  -0.126788  0  3.984691  0  0  -0.083576  -0.119649  0  3.950296  0
C  C52  1  0.59453536  0.61901744  0.21497203  1  0  -0.087024  0  3.754937  0  0  -0.111458  0  4.00536  0  0  -0.110748  0  4.024352  0  0  -0.086286  -0.112033  0  3.993  0
C  C53  1  0.40547229  0.38098213  0.78502855  1  0  -0.08708  0  3.755057  0  0  -0.111449  0  4.005522  0  0  -0.110738  0  4.024519  0  0  -0.086275  -0.112028  0  3.993159  0
C  C54  1  0.70386232  0.54768954  0.26044491  1  0  -0.022016  0  3.813622  0  0  -0.001477  0  4.048878  0  0  -0.006808  0  4.07217  0  0  -0.013037  0.001518  0  4.033796  0
C  C55  1  0.29614870  0.45231004  0.73955855  1  0  -0.021903  0  3.813599  0  0  -0.001457  0  4.048972  0  0  -0.00679  0  4.072262  0  0  -0.013054  0.001539  0  4.033889  0
C  C56  1  0.81534038  0.51840832  0.21247492  1  0  -0.08198  0  3.748  0  0  -0.104461  0  3.998372  0  0  -0.103957  0  4.01768  0  0  -0.084092  -0.104653  0  3.984633  0
C  C57  1  0.18466359  0.48159017  0.78752403  1  0  -0.082087  0  3.747956  0  0  -0.104515  0  3.998339  0  0  -0.104  0  4.017646  0  0  -0.08411  -0.104706  0  3.984601  0
C  C58  1  0.82164180  0.56595104  0.12412696  1  0  -0.109337  0  3.733365  0  0  -0.128166  0  3.981259  0  0  -0.132062  0  4.00141  0  0  -0.08635  -0.125365  0  3.967242  0
C  C59  1  0.17835763  0.43404321  0.87586972  1  0  -0.109337  0  3.73341  0  0  -0.128175  0  3.981291  0  0  -0.132072  0  4.001438  0  0  -0.086363  -0.125375  0  3.967274  0
C  C60  1  0.70552102  0.50748449  0.35804724  1  0  0.32093  0  3.711832  0  0  0.281973  0  3.981534  0  0  0.301676  0  3.992989  0  0  0.23333  0.269303  0  3.973283  0
C  C61  1  0.29448888  0.49251931  0.64195588  1  0  0.320928  0  3.71166  0  0  0.28197  0  3.981406  0  0  0.301672  0  3.992863  0  0  0.233371  0.2693  0  3.973156  0
C  C62  1  0.72136323  0.39201788  0.47925753  1  0  0.145422  0  3.845066  0  0  0.142274  0  4.091606  0  0  0.146033  0  4.114564  0  0  0.079366  0.139702  0  4.076182  0
C  C63  1  0.27863817  0.60798377  0.52074285  1  0  0.145589  0  3.845  0  0  0.142459  0  4.091566  0  0  0.146196  0  4.114529  0  0  0.079423  0.139882  0  4.076141  0
C  C64  1  0.73406208  0.29328935  0.53873697  1  0  -0.148244  0  3.753914  0  0  -0.166235  0  4.004805  0  0  -0.168801  0  4.025014  0  0  -0.098577  -0.164429  0  3.990577  0
C  C65  1  0.26594300  0.70671338  0.46126504  1  0  -0.148262  0  3.753903  0  0  -0.166233  0  4.004771  0  0  -0.168795  0  4.024984  0  0  -0.098581  -0.164429  0  3.990546  0
C  C66  1  0.73920266  0.33652814  0.64418262  1  0  -0.082793  0  3.782891  0  0  -0.099134  0  4.03638  0  0  -0.101686  0  4.05851  0  0  -0.103102  -0.097229  0  4.020923  0
C  C67  1  0.26079845  0.66347668  0.35581818  1  0  -0.082946  0  3.782943  0  0  -0.099277  0  4.036456  0  0  -0.101831  0  4.058586  0  0  -0.103145  -0.097372  0  4.020997  0
C  C68  1  0.73084293  0.47406951  0.68960990  1  0  -0.0727  0  3.777648  0  0  -0.086881  0  4.031514  0  0  -0.088863  0  4.053632  0  0  -0.09884  -0.085355  0  4.016468  0
C  C69  1  0.26915391  0.52593213  0.31039105  1  0  -0.072487  0  3.777642  0  0  -0.08668  0  4.031479  0  0  -0.088664  0  4.053595  0  0  -0.098765  -0.085145  0  4.016442  0
C  C70  1  0.71479518  0.57253632  0.63068176  1  0  -0.140448  0  3.762215  0  0  -0.162322  0  4.018546  0  0  -0.164798  0  4.039059  0  0  -0.098659  -0.160695  0  4.004627  0
C  C71  1  0.28519685  0.42746425  0.36931733  1  0  -0.140655  0  3.762311  0  0  -0.162491  0  4.018683  0  0  -0.164971  0  4.039191  0  0  -0.098702  -0.16088  0  4.004747  0
C  C72  1  0.71038511  0.52877957  0.52541551  1  0  0.096087  0  3.810762  0  0  0.086073  0  4.055054  0  0  0.08957  0  4.077452  0  0  0.088137  0.083838  0  4.039843  0
C  C73  1  0.28961260  0.47122102  0.47458398  1  0  0.096147  0  3.810723  0  0  0.086016  0  4.055155  0  0  0.08956  0  4.077499  0  0  0.088123  0.083798  0  4.039924  0
C  C74  1  0.69985498  0.74818796  0.46440757  1  0  -0.033007  0  3.664298  0  0  -0.100719  0  3.909145  0  0  -0.095757  0  3.920388  0  0  -0.046011  -0.103461  0  3.900849  0
C  C75  1  0.30014756  0.25181369  0.53559157  1  0  -0.032996  0  3.664287  0  0  -0.100829  0  3.909251  0  0  -0.095859  0  3.920479  0  0  -0.045976  -0.103573  0  3.900964  0
C  C76  1  0.84384006  0.84561640  0.55084696  1  0  0.029163  0  3.721057  0  0  0.053572  0  3.961576  0  0  0.048955  0  3.985319  0  0  -0.005393  0.056339  0  3.945297  0
C  C77  1  0.15615934  0.15438630  0.44915392  1  0  0.029323  0  3.72094  0  0  0.053722  0  3.961535  0  0  0.049104  0  3.985283  0  0  -0.005343  0.056488  0  3.945254  0
C  C78  1  0.83763682  0.98203421  0.59784932  1  0  -0.056871  0  3.692789  0  0  -0.083666  0  3.937719  0  0  -0.081323  0  3.956036  0  0  -0.070359  -0.084386  0  3.924622  0
C  C79  1  0.16235606  0.01796531  0.40215052  1  0  -0.057056  0  3.69284  0  0  -0.083829  0  3.937813  0  0  -0.081484  0  3.95612  0  0  -0.070435  -0.084547  0  3.924712  0
C  C80  1  0.97082563  0.07397089  0.67611355  1  0  -0.112043  0  3.733916  0  0  -0.119452  0  3.978621  0  0  -0.126443  0  4.001415  0  0  -0.086256  -0.115329  0  3.963036  0
C  C81  1  0.02916553  0.92603074  0.32388700  1  0  -0.111793  0  3.733985  0  0  -0.119248  0  3.978653  0  0  -0.126208  0  4.001464  0  0  -0.086174  -0.115126  0  3.963065  0
C  C82  1  0.10533823  0.02571871  0.70695585  1  0  0.121633  0  3.727738  0  0  0.089933  0  3.974577  0  0  0.096567  0  3.993785  0  0  0.038025  0.085406  0  3.962302  0
C  C83  1  0.89465523  0.97428714  0.29304358  1  0  0.121486  0  3.727928  0  0  0.08979  0  3.974779  0  0  0.096424  0  3.993981  0  0  0.037958  0.085264  0  3.9625  0
C  C84  1  0.98469772  0.80705685  0.58605395  1  0  0.074454  0  3.695408  0  0  0.036289  0  3.948548  0  0  0.042855  0  3.966044  0  0  0.040083  0.032263  0  3.936221  0
C  C85  1  0.01530085  0.19294690  0.41394618  1  0  0.074296  0  3.695477  0  0  0.036075  0  3.948639  0  0  0.042637  0  3.966144  0  0  0.04002  0.032049  0  3.936311  0
Br  Br86  1  0.72460807  0.13952720  0.07404803  1  0  -0.573373  0  0.881767  0  0  -0.518002  0  1.151528  0  0  -0.537638  0  1.133283  0  0  -0.321794  -0.504067  0  1.162544  0
Br  Br87  1  0.27539049  0.86048077  0.92595346  1  0  -0.573364  0  0.88174  0  0  -0.518015  0  1.151516  0  0  -0.537652  0  1.133273  0  0  -0.321792  -0.504074  0  1.162528  0
Br  Br88  1  0.49906962  0.97015950  0.31703934  1  0  -0.581052  0  0.868155  0  0  -0.523664  0  1.147978  0  0  -0.541418  0  1.126484  0  0  -0.306619  -0.511762  0  1.162557  0
Br  Br89  1  0.50090318  0.02984097  0.68295077  1  0  -0.581055  0  0.868211  0  0  -0.52364  0  1.148017  0  0  -0.541401  0  1.126528  0  0  -0.306611  -0.511735  0  1.162598  0
N  N90  1  0.59673152  0.78918288  0.84727148  1  0  -0.318398  0  3.283515  0  0  -0.241107  0  3.545651  0  0  -0.260714  0  3.566042  0  0  -0.331295  -0.227543  0  3.531244  0
N  N91  1  0.40326903  0.21081560  0.15272753  1  0  -0.318369  0  3.283661  0  0  -0.241065  0  3.545769  0  0  -0.260672  0  3.566159  0  0  -0.331264  -0.227499  0  3.531359  0
N  N92  1  0.71744332  0.38181241  0.37487882  1  0  -0.454614  0  3.114808  0  0  -0.393061  0  3.395698  0  0  -0.414428  0  3.408205  0  0  -0.348425  -0.378934  0  3.386567  0
N  N93  1  0.28256885  0.61819140  0.62512403  1  0  -0.454759  0  3.114757  0  0  -0.393203  0  3.395686  0  0  -0.414566  0  3.408192  0  0  -0.348463  -0.379078  0  3.386562  0
N  N94  1  0.70017043  0.59948188  0.44706916  1  0  -0.155499  0  3.488723  0  0  -0.068547  0  3.707053  0  0  -0.085532  0  3.729823  0  0  -0.234617  -0.057478  0  3.691546  0
N  N95  1  0.29983692  0.40052085  0.55293257  1  0  -0.155462  0  3.488713  0  0  -0.068422  0  3.707084  0  0  -0.085422  0  3.72985  0  0  -0.23464  -0.057356  0  3.691568  0
N  N96  1  0.11195395  0.89448668  0.66295128  1  0  -0.322064  0  3.284282  0  0  -0.243805  0  3.541845  0  0  -0.262725  0  3.562127  0  0  -0.32934  -0.231265  0  3.528244  0
N  N97  1  0.88804406  0.10551917  0.33704758  1  0  -0.32192  0  3.284194  0  0  -0.243657  0  3.541749  0  0  -0.262578  0  3.562038  0  0  -0.329303  -0.231118  0  3.528147  0
