# generated using pymatgen
data_CuH10C14O5
_symmetry_space_group_name_H-M   'P 1'
_cell_length_a   14.35716836
_cell_length_b   18.68824187
_cell_length_c   18.69046677
_cell_angle_alpha   113.64079978
_cell_angle_beta   104.82280273
_cell_angle_gamma   104.89351139
_symmetry_Int_Tables_number   1
_chemical_formula_structural   CuH10C14O5
_chemical_formula_sum   'Cu6 H60 C84 O30'
_cell_volume   4058.46900974
_cell_formula_units_Z   6
loop_
 _symmetry_equiv_pos_site_id
 _symmetry_equiv_pos_as_xyz
  1  'x, y, z'
loop_
 _atom_site_type_symbol
 _atom_site_label
 _atom_site_symmetry_multiplicity
 _atom_site_fract_x
 _atom_site_fract_y
 _atom_site_fract_z
 _atom_site_occupancy
 _atom_site_pbe_bader_charge
 _atom_site_pbe_bader_spin_density
 _atom_site_pbe_cm5_charge
 _atom_site_pbe_ddec_charge
 _atom_site_pbe_ddec_spin_density
 _atom_site_pbe_ddec_sum_bond_order
 _atom_site_pbe_magmom
Cu  Cu0  1  0.47363723  0.02631633  0.45015430  1  1.077643  0.570486  0.676816  0.81896  0.740481  2.311151  0.571
Cu  Cu1  1  0.02358513  0.55015498  0.57663300  1  1.068347  0.539147  0.673831  0.815467  0.696164  2.307393  0.536
Cu  Cu2  1  0.44677503  0.42333020  0.97353016  1  1.067442  -0.539035  0.673707  0.815263  -0.713645  2.306725  -0.536
Cu  Cu3  1  0.52633965  0.97366842  0.54979525  1  1.076851  0.57047  0.676793  0.819132  0.740429  2.311452  0.571
Cu  Cu4  1  0.97641108  0.44982784  0.42334145  1  1.069296  -0.539141  0.673847  0.815714  -0.713887  2.307838  -0.536
Cu  Cu5  1  0.55318759  0.57663981  0.02647169  1  1.066256  0.539051  0.673805  0.815081  0.695937  2.307317  0.536
H  H6  1  0.13750688  0.39092470  0.84504631  1  0.086654  -0.000362  0.106  0.110757  -0.000327  1.014049  0.0
H  H7  1  0.29205807  0.15486487  0.54555277  1  0.083284  0.000442  0.105828  0.109838  0.000359  1.013936  0.0
H  H8  1  0.74693193  0.45412004  0.60926901  1  0.063693  0.000366  0.106121  0.111006  0.000322  1.014123  0.0
H  H9  1  0.86247526  0.60906003  0.15494758  1  0.086081  0.000366  0.105978  0.110781  0.000324  1.013995  0.0
H  H10  1  0.70795131  0.84513265  0.45444031  1  0.08336  0.000441  0.105859  0.109908  0.00036  1.013952  0.0
H  H11  1  0.25305374  0.54589024  0.39075619  1  0.063989  -0.000364  0.106141  0.111045  -0.000328  1.014126  0.0
H  H12  1  0.97874991  0.52768640  0.76078151  1  0.084428  -8e-06  0.107959  0.108584  -9e-06  0.990189  0.0
H  H13  1  0.21794673  0.23946417  0.76672967  1  0.079143  -1.7e-05  0.108111  0.109242  -2e-06  0.991139  0.0
H  H14  1  0.45086720  0.23335698  0.47263849  1  0.081553  -1.2e-05  0.108003  0.109258  -9e-06  0.990771  0.0
H  H15  1  0.02125074  0.47231240  0.23921093  1  0.084052  1.4e-05  0.10799  0.10861  1.3e-05  0.990266  0.0
H  H16  1  0.78208192  0.76053144  0.23327493  1  0.079237  -3.1e-05  0.108081  0.109225  -1.9e-05  0.991097  0.0
H  H17  1  0.54913464  0.76662841  0.52734342  1  0.08116  -1.9e-05  0.107961  0.109259  -1.3e-05  0.990812  0.0
H  H18  1  0.14513769  0.65692006  0.84219284  1  0.091496  -0.000226  0.10167  0.107841  -0.000119  1.003597  0.0
H  H19  1  0.30284800  0.15814193  0.81462862  1  0.09408  0.0003  0.101353  0.107764  0.000149  1.003533  0.0
H  H20  1  0.48778816  0.18545376  0.34341903  1  0.096658  0.000206  0.101141  0.107129  0.000115  1.003077  0.0
H  H21  1  0.85487047  0.34306915  0.15780790  1  0.091834  0.000225  0.10162  0.107754  0.000116  1.003445  0.0
H  H22  1  0.69715500  0.84183131  0.18535451  1  0.093563  0.000282  0.101413  0.107829  0.00015  1.003688  0.0
H  H23  1  0.51225308  0.81454697  0.65658152  1  0.095266  -0.000227  0.101072  0.107119  -0.000121  1.003358  0.0
H  H24  1  0.31021348  0.65329959  0.92472042  1  0.088083  0.000374  0.101089  0.102647  0.000298  1.005708  0.0
H  H25  1  0.38493641  0.07526209  0.72819897  1  0.079159  0.000397  0.100885  0.102295  0.000297  1.005492  0.0
H  H26  1  0.65663938  0.27161443  0.34697320  1  0.070605  -0.00038  0.101192  0.10245  -0.000305  1.006137  0.0
H  H27  1  0.68978660  0.34668067  0.07527621  1  0.088661  -0.000375  0.10122  0.10284  -0.000306  1.005656  0.0
H  H28  1  0.61506423  0.92471370  0.27177939  1  0.079326  0.000396  0.100899  0.102329  0.000297  1.005637  0.0
H  H29  1  0.34341428  0.72840803  0.65305829  1  0.071533  0.00038  0.101196  0.102529  0.000299  1.006115  0.0
H  H30  1  0.97218228  0.33085538  0.84132767  1  0.071343  0.000285  0.10363  0.104772  0.000153  0.998099  0.0
H  H31  1  0.13124339  0.15896199  0.48948898  1  0.062952  0.00023  0.103258  0.104584  0.000112  0.998807  0.0
H  H32  1  0.64144962  0.51051939  0.66919831  1  0.035719  -0.000236  0.103555  0.104913  -0.000135  0.997654  0.0
H  H33  1  0.02777540  0.66909229  0.15861713  1  0.070754  0.000278  0.103547  0.104677  0.000133  0.998344  0.0
H  H34  1  0.86877307  0.84107260  0.51053003  1  0.062594  -0.000226  0.103261  0.104466  -0.000134  0.998546  0.0
H  H35  1  0.35848391  0.48946595  0.33080033  1  0.035629  0.000235  0.1036  0.104919  0.000132  0.997682  0.0
H  H36  1  0.80982718  0.19602505  0.75270424  1  0.063199  0.000371  0.101656  0.102631  0.000273  1.002329  0.0
H  H37  1  0.05793658  0.24764270  0.44330656  1  0.11235  -0.000343  0.102099  0.103305  -0.000285  1.002236  0.0
H  H38  1  0.61383117  0.55668503  0.80378143  1  0.054272  0.000357  0.101578  0.102661  0.000278  1.001626  0.0
H  H39  1  0.19011974  0.80393158  0.24722229  1  0.073969  0.00037  0.101752  0.102745  0.000275  1.002309  0.0
H  H40  1  0.94208034  0.75241552  0.55675470  1  0.11125  0.000343  0.101964  0.10307  0.000278  1.002132  0.0
H  H41  1  0.38612361  0.44328945  0.19622176  1  0.053692  -0.000358  0.101552  0.102752  -0.000285  1.001598  0.0
H  H42  1  0.73666818  0.25896072  0.55376035  1  0.089844  0.000369  0.103018  0.107356  0.000311  1.02509  0.0
H  H43  1  0.18284292  0.44632742  0.70510489  1  0.088975  0.000313  0.102988  0.107469  0.000293  1.02549  0.0
H  H44  1  0.47756053  0.29485811  0.74125919  1  0.120369  -0.000319  0.103402  0.10801  -0.000313  1.025781  0.0
H  H45  1  0.26333784  0.74105343  0.44620936  1  0.089581  0.000356  0.10276  0.106718  0.000307  1.025246  0.0
H  H46  1  0.81722676  0.55372251  0.29496003  1  0.09039  -0.000298  0.103041  0.107803  -0.000292  1.025354  0.0
H  H47  1  0.52242490  0.70511574  0.25874701  1  0.120593  0.000305  0.103328  0.10794  0.000274  1.025878  0.0
H  H48  1  0.90050629  0.39316487  0.64082853  1  0.103157  0.000234  0.100921  0.107498  0.000121  1.026792  0.0
H  H49  1  0.25917492  0.35915869  0.75215458  1  0.073503  -0.000195  0.101024  0.107483  -0.000111  1.028152  0.0
H  H50  1  0.50722505  0.24780710  0.60723614  1  0.069876  0.000166  0.100855  0.107478  9.1e-05  1.027923  0.0
H  H51  1  0.09949991  0.60684799  0.35916156  1  0.103674  0.000245  0.100929  0.107702  0.000118  1.026785  0.0
H  H52  1  0.74087678  0.64086568  0.24786981  1  0.074017  0.000187  0.101029  0.107443  0.000103  1.028  0.0
H  H53  1  0.49274577  0.75216931  0.39276023  1  0.06909  -0.000228  0.100866  0.107523  -0.00012  1.027841  0.0
H  H54  1  0.34599109  0.97993327  0.30088454  1  0.61371  -8.4e-05  0.316265  0.404625  -6.7e-05  0.889922  0.0
H  H55  1  0.04479082  0.69936445  0.67908262  1  0.620289  -7.2e-05  0.316569  0.404929  -7.7e-05  0.889709  0.0
H  H56  1  0.36549054  0.32049469  0.02035602  1  0.616812  7.2e-05  0.316328  0.404562  7.5e-05  0.889938  0.0
H  H57  1  0.65400608  0.02005596  0.69907661  1  0.614259  -8.5e-05  0.316276  0.404668  -6.7e-05  0.889882  0.0
H  H58  1  0.95523440  0.30069313  0.32097357  1  0.620251  7.2e-05  0.316657  0.405153  7.6e-05  0.889379  0.0
H  H59  1  0.63450242  0.67949004  0.97964157  1  0.616831  -6.9e-05  0.316273  0.404465  -7.5e-05  0.890059  0.0
H  H60  1  0.45865251  0.00888869  0.30509542  1  0.607848  -6.7e-05  0.316459  0.401849  -6.1e-05  0.894563  0.0
H  H61  1  0.15337526  0.69564558  0.70443049  1  0.61189  -5.6e-05  0.315799  0.400487  -6.7e-05  0.895727  0.0
H  H62  1  0.44905300  0.29572043  0.99133899  1  0.61913  5.5e-05  0.315838  0.400655  6.6e-05  0.895413  0.0
H  H63  1  0.54134612  0.99108903  0.69486620  1  0.608656  -6.7e-05  0.316277  0.401615  -6.1e-05  0.894762  0.0
H  H64  1  0.84665822  0.30441840  0.29563416  1  0.611325  5.6e-05  0.315886  0.400574  6.6e-05  0.895587  0.0
H  H65  1  0.55093568  0.70425728  0.00864531  1  0.618975  -5.5e-05  0.315723  0.400526  -6.7e-05  0.895684  0.0
C  C66  1  0.33151460  0.51566088  0.93282842  1  1.512228  -3.4e-05  0.217613  0.588684  -0.0002  4.13971  0.0
C  C67  1  0.39798441  0.06709683  0.58254972  1  1.516839  -0.001442  0.217699  0.58951  0.000887  4.135579  -0.004
C  C68  1  0.81598040  0.41712610  0.48450859  1  1.5269  3.1e-05  0.216783  0.587366  5.6e-05  4.141112  0.0
C  C69  1  0.66847121  0.48433534  0.06718526  1  1.512863  3.5e-05  0.217628  0.588698  6.1e-05  4.140161  0.0
C  C70  1  0.60199640  0.93288408  0.41741509  1  1.517867  -0.001447  0.217618  0.589539  0.000886  4.135994  -0.004
C  C71  1  0.18403488  0.58290017  0.51552717  1  1.526669  -3.7e-05  0.216697  0.587159  -0.000198  4.141314  0.0
C  C72  1  0.23295730  0.52171128  0.88992147  1  -0.031541  -0.000274  -0.019784  -0.03294  -0.000257  3.987294  0.0
C  C73  1  0.34242868  0.10997752  0.63142117  1  -0.039047  0.016263  -0.020745  -0.035363  0.011525  3.988919  0.013
C  C74  1  0.71126230  0.36829664  0.47851522  1  -0.099389  0.000387  -0.020438  -0.034305  0.000268  3.987947  0.0
C  C75  1  0.76703094  0.47827984  0.11007992  1  -0.032977  0.000344  -0.019858  -0.033029  0.000243  3.987249  0.0
C  C76  1  0.65756380  0.89000786  0.36855947  1  -0.039058  0.01634  -0.020909  -0.035327  0.011562  3.989006  0.013
C  C77  1  0.28875024  0.63172132  0.52151185  1  -0.098616  -0.000305  -0.020445  -0.034126  -0.000289  3.987466  0.0
C  C78  1  0.13770488  0.44942954  0.84556364  1  0.035641  0.000776  -0.078211  -0.136572  0.000466  3.932919  0.001
C  C79  1  0.29167426  0.15436799  0.60353949  1  0.003421  0.000474  -0.078757  -0.135534  0.000453  3.930231  0.0
C  C80  1  0.68842755  0.39621061  0.55080666  1  0.068833  -0.000896  -0.078539  -0.136121  -0.000597  3.934527  -0.001
C  C81  1  0.86228344  0.55055455  0.15443386  1  0.038104  -0.00097  -0.078097  -0.136553  -0.000618  3.933179  -0.001
C  C82  1  0.70834079  0.84563656  0.39645645  1  0.003353  0.00041  -0.078863  -0.135808  0.000391  3.930326  0.0
C  C83  1  0.31155978  0.60379584  0.44921250  1  0.068785  0.00088  -0.078599  -0.136547  0.000541  3.934496  0.001
C  C84  1  0.04529784  0.45025755  0.79830718  1  -0.028342  0.000737  -0.00452  0.061427  0.000524  4.007318  0.001
C  C85  1  0.24677318  0.20176035  0.65170679  1  -0.025338  0.000968  -0.004295  0.059706  0.000587  4.009206  0.001
C  C86  1  0.59511120  0.34817658  0.54999694  1  0.006898  -0.000596  -0.004367  0.060035  -0.000443  4.011698  -0.001
C  C87  1  0.95469110  0.54972782  0.20168722  1  -0.029301  -0.000532  -0.004631  0.061408  -0.0004  4.007344  0.0
C  C88  1  0.75326775  0.79825700  0.34830146  1  -0.025706  0.001003  -0.00419  0.059809  0.000618  4.00992  0.001
C  C89  1  0.40487465  0.65181837  0.45000714  1  0.006738  0.000608  -0.004326  0.06055  0.000447  4.011978  0.001
C  C90  1  0.04970875  0.52599903  0.79770267  1  -0.007223  -2.3e-05  -0.0744  -0.098086  -1.5e-05  3.930789  0.0
C  C91  1  0.25188203  0.20247071  0.72810162  1  -0.022416  -0.001437  -0.074816  -0.099083  -0.000986  3.933479  -0.001
C  C92  1  0.52361361  0.27188378  0.47429913  1  -0.042542  -3.4e-05  -0.074811  -0.099685  -1.6e-05  3.935345  0.0
C  C93  1  0.95028379  0.47398634  0.20229028  1  -0.006274  -0.000191  -0.074444  -0.098185  -0.000126  3.931101  0.0
C  C94  1  0.74813532  0.79752106  0.27189711  1  -0.016006  -0.001409  -0.074872  -0.099164  -0.000967  3.933916  -0.001
C  C95  1  0.47639368  0.72810672  0.52568858  1  -0.042397  0.000103  -0.074718  -0.099862  7.3e-05  3.935266  0.0
C  C96  1  0.14391566  0.59903108  0.84375259  1  -0.09251  -0.000586  -0.090246  -0.081504  -0.000442  4.018986  0.0
C  C97  1  0.29986433  0.15636322  0.75504016  1  -0.079629  0.001023  -0.089908  -0.080842  0.000626  4.018436  0.001
C  C98  1  0.54459303  0.24491802  0.40125091  1  -0.015401  0.000709  -0.089235  -0.079312  0.000522  4.01832  0.001
C  C99  1  0.85608265  0.40096004  0.15624594  1  -0.093027  0.000679  -0.090123  -0.081328  0.000492  4.018825  0.001
C  C100  1  0.70014737  0.84362025  0.24494503  1  -0.085843  0.001103  -0.089776  -0.080411  0.000675  4.018051  0.001
C  C101  1  0.45543673  0.75508270  0.59875650  1  -0.016451  -0.000604  -0.08929  -0.079389  -0.000459  4.018214  -0.001
C  C102  1  0.23577264  0.59721088  0.88965112  1  -0.060573  -0.001104  -0.086036  -0.097252  -0.000711  3.978405  -0.001
C  C103  1  0.34555537  0.11030574  0.70718416  1  -0.029814  0.000552  -0.085925  -0.096782  0.000454  3.979038  0.001
C  C104  1  0.63834980  0.29263783  0.40304285  1  -0.069638  0.000993  -0.085888  -0.096486  0.000597  3.97761  0.001
C  C105  1  0.76421559  0.40277449  0.11034581  1  -0.06128  0.000963  -0.086149  -0.097451  0.000591  3.97812  0.001
C  C106  1  0.65445432  0.88968092  0.29280247  1  -0.03001  0.000462  -0.085945  -0.097198  0.000392  3.979121  0.0
C  C107  1  0.36168417  0.70737694  0.59698121  1  -0.068891  -0.001016  -0.085874  -0.096623  -0.000644  3.977373  -0.001
C  C108  1  0.94742233  0.37149893  0.74729347  1  0.007465  -0.00096  0.00061  0.082266  -0.000644  3.991307  -0.001
C  C109  1  0.20011854  0.25287587  0.62407097  1  -0.007752  0.000154  0.000275  0.083112  9.4e-05  3.991539  0.0
C  C110  1  0.57594118  0.37586293  0.62869526  1  0.036562  -0.000158  0.000888  0.083576  -0.000118  3.992426  0.0
C  C111  1  0.05256285  0.62848773  0.25268627  1  0.010114  -0.001263  0.000731  0.082522  -0.000877  3.991026  -0.001
C  C112  1  0.79992665  0.74715425  0.37595074  1  -0.007651  0.000135  0.000337  0.083072  8.8e-05  3.991096  0.0
C  C113  1  0.42402011  0.62411604  0.37130137  1  0.033219  0.000158  0.000882  0.083398  0.000117  3.992732  0.0
C  C114  1  0.92124326  0.31482582  0.77787574  1  -0.121563  0.001154  -0.090598  -0.136463  0.000701  3.987275  0.001
C  C115  1  0.14372328  0.22238903  0.53688715  1  -0.047358  0.000808  -0.090702  -0.136919  0.00057  3.987889  0.001
C  C116  1  0.60647038  0.46306690  0.68522207  1  -0.124607  -0.000764  -0.090908  -0.137011  -0.000562  3.985322  -0.001
C  C117  1  0.07871746  0.68513080  0.22207432  1  -0.12289  0.001107  -0.090519  -0.136424  0.000656  3.987134  0.001
C  C118  1  0.85631554  0.77765132  0.46314600  1  -0.036215  -0.000629  -0.090709  -0.13664  -0.00049  3.987014  -0.001
C  C119  1  0.39348331  0.53690695  0.31477049  1  -0.125729  0.000757  -0.091132  -0.1372  0.000546  3.985648  0.001
C  C120  1  0.83032685  0.23967660  0.72884122  1  0.082195  0.000698  -0.085181  -0.084643  0.000586  3.996165  0.001
C  C121  1  0.10207598  0.27146424  0.51077605  1  -0.068282  0.001096  -0.085569  -0.084864  0.000682  3.996456  0.001
C  C122  1  0.59061809  0.48917916  0.76028396  1  0.073253  -0.001112  -0.08553  -0.085153  -0.000725  3.993448  -0.001
C  C123  1  0.16963947  0.76028706  0.27109564  1  0.070958  0.000703  -0.085274  -0.084812  0.000591  3.996136  0.001
C  C124  1  0.89796635  0.72859016  0.48927682  1  -0.083936  -0.001159  -0.085455  -0.084533  -0.000741  3.996735  -0.001
C  C125  1  0.40933201  0.51079468  0.23971112  1  0.073313  0.00112  -0.085435  -0.085161  0.0007  3.99351  0.001
C  C126  1  0.76327640  0.21965641  0.64802249  1  -0.063267  0.015937  -0.021736  -0.041069  0.011305  3.980891  0.013
C  C127  1  0.11571471  0.35223667  0.57154106  1  -0.060976  0.00077  -0.021036  -0.039719  0.000589  3.978402  0.001
C  C128  1  0.54354848  0.42845314  0.78045269  1  -0.035757  -0.0008  -0.020746  -0.039103  -0.000616  3.976538  -0.001
C  C129  1  0.23670025  0.78033666  0.35191698  1  -0.063506  0.015872  -0.021687  -0.040803  0.011258  3.980335  0.013
C  C130  1  0.88435092  0.64782540  0.42851995  1  -0.056235  -0.000559  -0.020768  -0.039612  -0.000523  3.978618  -0.001
C  C131  1  0.45642102  0.57152774  0.21955540  1  -0.035315  0.000789  -0.020759  -0.038996  0.000544  3.976303  0.001
C  C132  1  0.78879974  0.27563913  0.61695707  1  0.013233  0.000696  -0.08053  -0.075688  0.000565  3.960349  0.001
C  C133  1  0.17190423  0.38320549  0.65856191  1  0.067411  -0.000919  -0.080092  -0.074933  -0.000609  3.96137  -0.001
C  C134  1  0.51308103  0.34141948  0.72460354  1  -0.045973  0.000942  -0.080924  -0.076668  0.000563  3.963186  0.001
C  C135  1  0.21119885  0.72436735  0.38301132  1  0.009939  0.000672  -0.080186  -0.074677  0.000557  3.95967  0.001
C  C136  1  0.82816617  0.61684317  0.34148819  1  0.055751  0.000896  -0.080287  -0.075415  0.000565  3.961811  0.001
C  C137  1  0.48689349  0.65855565  0.27539732  1  -0.043722  -0.00095  -0.08075  -0.076641  -0.000609  3.963069  -0.001
C  C138  1  0.87987190  0.35072319  0.66605541  1  -0.115539  0.001095  -0.087598  -0.1297  0.00066  3.94936  0.001
C  C139  1  0.21368974  0.33405819  0.68451878  1  -0.06099  -0.000492  -0.088548  -0.131351  -0.000377  3.952532  0.0
C  C140  1  0.52912157  0.31544918  0.64959086  1  -0.054898  0.000522  -0.088043  -0.130384  0.000396  3.951769  0.0
C  C141  1  0.12013174  0.64929032  0.33393497  1  -0.113665  0.000969  -0.087763  -0.130494  0.000575  3.950149  0.001
C  C142  1  0.78636926  0.66597065  0.31551151  1  -0.050323  0.000785  -0.08868  -0.131458  0.000568  3.952564  0.001
C  C143  1  0.47084312  0.68452211  0.35040868  1  -0.051266  -0.000617  -0.087973  -0.130175  -0.00047  3.951891  -0.001
C  C144  1  0.66573614  0.13965608  0.59493829  1  1.510197  -0.001237  0.21692  0.586426  0.001044  4.146077  -0.004
C  C145  1  0.07124444  0.40534656  0.54451886  1  1.500049  -0.000225  0.216361  0.585743  -0.000165  4.149125  0.0
C  C146  1  0.52621689  0.45547914  0.86064218  1  1.513129  0.000284  0.216305  0.586624  3.2e-05  4.147405  0.0
C  C147  1  0.33423287  0.86033762  0.40499354  1  1.51125  -0.001249  0.216378  0.585329  0.001045  4.146208  -0.004
C  C148  1  0.92880648  0.59470911  0.45554208  1  1.488474  0.000214  0.21621  0.585588  2.4e-05  4.149114  0.0
C  C149  1  0.47375927  0.54450494  0.13937008  1  1.513672  -0.000284  0.216286  0.586611  -0.000174  4.146974  0.0
O  O150  1  0.40846017  0.03116215  0.32167272  1  -1.184851  -0.001751  -0.576521  -0.739667  -0.000853  1.939845  -0.001
O  O151  1  0.08637041  0.67875514  0.70978673  1  -1.19628  -0.001669  -0.576175  -0.739119  -0.000937  1.940309  -0.001
O  O152  1  0.37655310  0.29002120  0.96909601  1  -1.199549  0.001668  -0.576052  -0.73878  0.000918  1.939323  0.001
O  O153  1  0.59153988  0.96882133  0.67828561  1  -1.186325  -0.001784  -0.576321  -0.7395  -0.000873  1.939815  -0.001
O  O154  1  0.91366754  0.32132354  0.29028470  1  -1.195442  0.001671  -0.57614  -0.739191  0.000917  1.940437  0.001
O  O155  1  0.62344270  0.70997504  0.03090034  1  -1.19941  -0.00163  -0.57595  -0.738625  -0.00091  1.939454  0.0
O  O156  1  0.32260668  0.44278195  0.92515428  1  -1.09587  -0.088808  -0.314489  -0.521263  -0.059281  2.342182  -0.08
O  O157  1  0.39717962  0.07481022  0.51740688  1  -1.099669  0.099977  -0.314673  -0.521831  0.064626  2.336516  0.091
O  O158  1  0.88006338  0.48226914  0.55734655  1  -1.106771  0.088798  -0.314047  -0.520425  0.057817  2.344541  0.08
O  O159  1  0.67736142  0.55721043  0.07486673  1  -1.096434  0.08881  -0.314553  -0.521152  0.057782  2.342697  0.08
O  O160  1  0.60280399  0.92517772  0.48256184  1  -1.099986  0.100023  -0.314681  -0.521921  0.064658  2.336807  0.091
O  O161  1  0.11992638  0.51775521  0.44267226  1  -1.107301  -0.088806  -0.314176  -0.520514  -0.059326  2.344232  -0.08
O  O162  1  0.41757645  0.58272637  0.97251398  1  -1.119571  0.085937  -0.320294  -0.54721  0.056149  2.348303  0.078
O  O163  1  0.44416334  0.02715311  0.60967017  1  -1.115215  0.096071  -0.321526  -0.549002  0.06218  2.342552  0.087
O  O164  1  0.83488071  0.38971115  0.41744717  1  -1.11554  -0.085746  -0.32034  -0.547071  -0.057472  2.348488  -0.077
O  O165  1  0.58242145  0.41726091  0.02749790  1  -1.119565  -0.085917  -0.320279  -0.54732  -0.057583  2.348205  -0.078
O  O166  1  0.55581760  0.97282524  0.39028936  1  -1.115337  0.096045  -0.321341  -0.548791  0.062165  2.342555  0.087
O  O167  1  0.16514246  0.61030937  0.58258085  1  -1.115095  0.08579  -0.320153  -0.546691  0.056052  2.348797  0.078
O  O168  1  0.65183650  0.08484130  0.62027572  1  -1.11119  0.094488  -0.325597  -0.557021  0.061206  2.362138  0.086
O  O169  1  0.03204379  0.37970423  0.46441459  1  -1.120058  -0.084017  -0.325214  -0.556713  -0.056269  2.362717  -0.076
O  O170  1  0.56728094  0.53561146  0.91511386  1  -1.117875  0.084011  -0.32506  -0.557089  0.054842  2.362632  0.076
O  O171  1  0.34812079  0.91514921  0.37964828  1  -1.111525  0.09452  -0.32563  -0.556702  0.061226  2.361254  0.086
O  O172  1  0.96801217  0.62034570  0.53564126  1  -1.106894  0.084089  -0.324998  -0.556439  0.05489  2.362995  0.076
O  O173  1  0.43269081  0.46436366  0.08490732  1  -1.118236  -0.084039  -0.325191  -0.557266  -0.05628  2.361975  -0.076
O  O174  1  0.60201125  0.13099867  0.52710594  1  -1.101342  0.104597  -0.311378  -0.512885  0.06735  2.35838  0.095
O  O175  1  0.07556329  0.47312155  0.60375495  1  -1.094069  0.092911  -0.311127  -0.513424  0.060289  2.362257  0.084
O  O176  1  0.47135822  0.39616436  0.86925419  1  -1.093034  -0.093007  -0.311364  -0.51348  -0.061896  2.362455  -0.084
O  O177  1  0.39796686  0.86900462  0.47282670  1  -1.100689  0.104539  -0.31097  -0.51226  0.067313  2.358934  0.095
O  O178  1  0.92446897  0.52691559  0.39629062  1  -1.095396  -0.092896  -0.311109  -0.513488  -0.061844  2.362119  -0.084
O  O179  1  0.52860765  0.60381077  0.13074446  1  -1.093651  0.092981  -0.311267  -0.51342  0.060315  2.362539  0.084
