# generated using pymatgen
data_Zr3H33C42S10N3O16
_symmetry_space_group_name_H-M   'P 1'
_cell_length_a   11.41765091
_cell_length_b   20.53707300
_cell_length_c   33.49065644
_cell_angle_alpha   89.62725105
_cell_angle_beta   98.55069369
_cell_angle_gamma   89.90401891
_symmetry_Int_Tables_number   1
_chemical_formula_structural   Zr3H33C42S10N3O16
_chemical_formula_sum   'Zr6 H66 C84 S20 N6 O32'
_cell_volume   7765.57973592
_cell_formula_units_Z   2
loop_
 _symmetry_equiv_pos_site_id
 _symmetry_equiv_pos_as_xyz
  1  'x, y, z'
loop_
 _atom_site_type_symbol
 _atom_site_label
 _atom_site_symmetry_multiplicity
 _atom_site_fract_x
 _atom_site_fract_y
 _atom_site_fract_z
 _atom_site_occupancy
 _atom_site_pbe_bader_charge
 _atom_site_pbe_bader_spin_density
 _atom_site_pbe_cm5_charge
 _atom_site_pbe_ddec_charge
 _atom_site_pbe_ddec_spin_density
 _atom_site_pbe_ddec_sum_bond_order
 _atom_site_pbe_magmom
Zr  Zr0  1  0.02334300  0.08384939  0.04452942  1  2.627393  0  1.588829  2.3679  0  2.784157  0
Zr  Zr1  1  0.96476296  0.88353866  0.96339470  1  2.601504  0  1.570772  2.327725  0  2.801302  0
Zr  Zr2  1  0.16526703  0.93093718  0.04726053  1  2.618789  0  1.560923  2.367559  0  2.753529  0
Zr  Zr3  1  0.82689754  0.03435871  0.96010765  1  2.610734  0  1.578614  2.360951  0  2.746703  0
Zr  Zr4  1  0.13765394  0.02874552  0.95474695  1  2.607804  0  1.526099  2.382705  0  2.795273  0
Zr  Zr5  1  0.84869090  0.93755013  0.04922455  1  2.629817  0  1.561213  2.395616  0  2.748055  0
H  H6  1  0.99086296  0.13320353  0.95559575  1  0.618356  0  0.327302  0.440515  0  0.840793  0
H  H7  1  0.21207756  0.89651739  0.96464628  1  0.614013  0  0.322491  0.426627  0  0.860655  0
H  H8  1  0.72478395  0.91221482  0.96892843  1  0.60904  0  0.333182  0.432022  0  0.846261  0
H  H9  1  0.03131744  0.98469436  0.10742177  1  0.586211  0  0.331861  0.431277  0  0.842021  0
H  H10  1  0.34959733  0.97934773  0.00250724  1  0.639335  0  0.280052  0.395899  0  0.948503  0
H  H11  1  0.14115049  0.82296538  0.09622191  1  0.596759  0  0.297526  0.375218  0  0.951946  0
H  H12  1  0.86872386  0.83862590  0.10378830  1  0.610398  0  0.292115  0.382795  0  0.928689  0
H  H13  1  0.11390823  0.09014739  0.88243779  1  0.590519  0  0.284338  0.384715  0  0.91976  0
H  H14  1  0.70528329  0.08277919  0.88360485  1  0.635015  0  0.303345  0.380356  0  0.945192  0
H  H15  1  0.59714417  0.06636454  0.97795311  1  0.627244  0  0.329405  0.422528  0  0.857263  0
H  H16  1  0.60241109  0.92091276  0.03556969  1  0.593452  0  0.296158  0.394267  0  0.910498  0
H  H17  1  0.18940930  0.98019053  0.88389129  1  0.547337  0  0.28504  0.388546  0  0.914974  0
H  H18  1  0.95842977  0.82252912  0.89008899  1  0.651684  0  0.327219  0.415301  0  0.883116  0
H  H19  1  0.99674654  0.11344690  0.12264880  1  0.592239  0  0.288325  0.375207  0  0.94328  0
H  H20  1  0.72084180  0.02117770  0.08898513  1  0.634567  0  0.319662  0.410806  0  0.881955  0
H  H21  1  0.72699694  0.14004528  0.91586387  1  0.640263  0  0.325294  0.415138  0  0.884829  0
H  H22  1  0.05696394  0.78780415  0.92232754  1  0.644469  0  0.32412  0.412944  0  0.891461  0
H  H23  1  0.39326779  0.95033193  0.06116369  1  0.569209  0  0.293168  0.385412  0  0.924683  0
H  H24  1  0.35544044  0.98803305  0.95448190  1  0.620902  0  0.301708  0.39953  0  0.910092  0
H  H25  1  0.63669171  0.99768136  0.00060810  1  0.642974  0  0.281967  0.404853  0  0.936274  0
H  H26  1  0.03748380  0.87186857  0.10432237  1  0.627671  0  0.282468  0.404841  0  0.935292  0
H  H27  1  0.85409702  0.05188337  0.09937232  1  0.634509  0  0.283803  0.404176  0  0.934474  0
H  H28  1  0.70877420  0.48624167  0.00053306  1  0.073547  0  0.106157  0.120501  0  0.986932  0
H  H29  1  0.27963772  0.47627643  0.00924631  1  0.066614  0  0.107955  0.12171  0  0.986672  0
H  H30  1  0.23711993  0.03054517  0.50698463  1  0.072279  0  0.104376  0.117537  0  1.007663  0
H  H31  1  0.80476240  0.00013467  0.49010758  1  0.109821  0  0.105856  0.11851  0  1.001625  0
H  H32  1  0.84831758  0.98305812  0.70143535  1  0.09581  0  0.121185  0.123194  0  1.10795  0
H  H33  1  0.85380612  0.89156573  0.49135920  1  0.037885  0  0.109843  0.105117  0  1.105059  0
H  H34  1  0.66168835  0.87823254  0.58109559  1  0.099002  0  0.107772  0.122573  0  0.994849  0
H  H35  1  0.00533869  0.02469156  0.60757062  1  0.089077  0  0.091757  0.098675  0  1.069183  0
H  H36  1  0.39773861  0.81804396  0.65297576  1  0.031432  0  0.123519  0.131931  0  1.007264  0
H  H37  1  0.09171500  0.10439192  0.56501994  1  0.020298  0  0.122242  0.12707  0  1.031894  0
H  H38  1  0.36046443  0.05019533  0.64986935  1  0.079941  0  0.109643  0.124848  0  0.971676  0
H  H39  1  0.16705327  0.87822436  0.55993318  1  0.075385  0  0.107583  0.123313  0  0.977365  0
H  H40  1  0.18520830  0.04944261  0.29459145  1  0.166751  0  0.127256  0.130155  0  1.119317  0
H  H41  1  0.17981363  0.14394351  0.50216758  1  0.022918  0  0.111054  0.108506  0  1.078625  0
H  H42  1  0.37326646  0.15420998  0.41280984  1  0.117164  0  0.106284  0.11919  0  1.002648  0
H  H43  1  0.02947895  0.00776615  0.38881167  1  0.072075  0  0.091888  0.097375  0  1.074807  0
H  H44  1  0.58750391  0.20194459  0.35706165  1  0.033031  0  0.125014  0.135673  0  1.021929  0
H  H45  1  0.96333057  0.92608126  0.42908164  1  0.044319  0  0.123539  0.128906  0  1.025386  0
H  H46  1  0.68041548  0.97484948  0.34866356  1  0.108726  0  0.109733  0.124176  0  0.979761  0
H  H47  1  0.86371480  0.14935410  0.43842687  1  0.064626  0  0.107288  0.124331  0  0.973889  0
H  H48  1  0.82532826  0.18554972  0.08274281  1  0.144659  0  0.12429  0.163013  0  1.072746  0
H  H49  1  0.64208161  0.44026122  0.93312285  1  0.061681  0  0.10427  0.104434  0  1.114395  0
H  H50  1  0.74650576  0.25798443  0.94144326  1  0.068269  0  0.10086  0.109982  0  0.995953  0
H  H51  1  0.62831090  0.34607802  0.06664553  1  0.079221  0  0.102744  0.116452  0  0.990298  0
H  H52  1  0.35777818  0.54678678  0.93132877  1  0.062653  0  0.125426  0.133386  0  1.020468  0
H  H53  1  0.29930821  0.76784420  0.09241941  1  0.078588  0  0.130771  0.148331  0  1.021928  0
H  H54  1  0.36242569  0.59531567  0.07024766  1  0.092534  0  0.105399  0.117182  0  0.991107  0
H  H55  1  0.22109561  0.72045197  0.94596700  1  0.078975  0  0.102674  0.109194  0  1.003414  0
H  H56  1  0.69224138  0.80688217  0.06948290  1  0.150851  0  0.130936  0.14123  0  1.122245  0
H  H57  1  0.56788812  0.57603525  0.91441191  1  0.042185  0  0.101404  0.101175  0  1.091716  0
H  H58  1  0.77783393  0.70316552  0.94990910  1  0.132531  0  0.105917  0.119811  0  1.00639  0
H  H59  1  0.56289348  0.63102795  0.05930216  1  0.078228  0  0.1026  0.117048  0  1.001197  0
H  H60  1  0.28078768  0.15957960  0.93471543  1  0.158118  0  0.130921  0.154634  0  1.102493  0
H  H61  1  0.39297138  0.42561762  0.07651630  1  0.031621  0  0.114615  0.118116  0  1.05506  0
H  H62  1  0.22729514  0.25379205  0.06098043  1  0.102578  0  0.106044  0.123447  0  0.998321  0
H  H63  1  0.41716985  0.33556220  0.94753027  1  0.079325  0  0.091502  0.102651  0  1.042391  0
H  H64  1  0.81376814  0.86452124  0.71673324  1  0.143697  0  0.124715  0.130262  0  1.10042  0
H  H65  1  0.55521393  0.99749082  0.88645578  1  0.091481  0  0.134094  0.158013  0  1.025643  0
H  H66  1  0.50954028  0.99049199  0.76756477  1  0.103582  0  0.109317  0.122409  0  0.993694  0
H  H67  1  0.84308405  0.85712826  0.83360318  1  0.085907  0  0.10374  0.109843  0  1.01144  0
H  H68  1  0.19198194  0.16297898  0.11983484  1  0.150405  0  0.136499  0.159528  0  1.082326  0
H  H69  1  0.56423610  0.97444354  0.27028641  1  0.076288  0  0.117395  0.122121  0  1.095033  0
H  H70  1  0.38735565  0.96149894  0.15960185  1  0.106203  0  0.109819  0.128666  0  0.989337  0
H  H71  1  0.30813019  0.15656411  0.23650682  1  0.080799  0  0.106831  0.12016  0  0.986122  0
C  C72  1  0.20754104  0.16865886  0.00335689  1  1.544639  0  0.236084  0.640961  0  4.093696  0
C  C73  1  0.80461810  0.17723293  0.00288920  1  1.600355  0  0.234821  0.655328  0  4.114064  0
C  C74  1  0.24778094  0.04121261  0.11421620  1  1.559438  0  0.231663  0.633572  0  4.114813  0
C  C75  1  0.16848284  0.78164796  0.00989276  1  1.580059  0  0.232278  0.648479  0  4.118366  0
C  C76  1  0.78641284  0.79298157  0.00497894  1  1.510644  0  0.232121  0.64077  0  4.085197  0
C  C77  1  0.76004144  0.92850511  0.88708217  1  1.583275  0  0.235412  0.649931  0  4.106611  0
C  C78  1  0.55991505  0.42344920  0.00370891  1  0.02581  0  -0.00339  0.038878  0  3.982621  0
C  C79  1  0.43792948  0.42030783  0.00647695  1  -0.02544  0  -0.004084  0.040088  0  3.980908  0
C  C80  1  0.37417140  0.47843259  0.00744952  1  -0.104553  0  -0.09027  -0.183201  0  3.974768  0
C  C81  1  0.42822093  0.53915104  0.00535969  1  -0.00785  0  -0.012229  0.020573  0  4.004875  0
C  C82  1  0.55040193  0.54226864  0.00243883  1  0.036664  0  -0.007514  0.029577  0  3.990449  0
C  C83  1  0.61400033  0.48410312  0.00179159  1  -0.058113  0  -0.08821  -0.173086  0  3.976954  0
C  C84  1  0.42217689  0.07016394  0.28357901  1  1.079171  0  0.265118  0.398633  0  3.990219  0
C  C85  1  0.35738830  0.09665921  0.34289352  1  1.04055  0  0.259105  0.396367  0  3.995459  0
C  C86  1  0.55356445  0.08171493  0.34060695  1  1.095512  0  0.257632  0.385894  0  4.025126  0
C  C87  1  0.61656572  0.93201441  0.71400995  1  1.063837  0  0.259869  0.39272  0  3.987173  0
C  C88  1  0.48041390  0.93827943  0.65766483  1  1.069721  0  0.261827  0.390384  0  4.02588  0
C  C89  1  0.67539831  0.93174433  0.65140834  1  1.012887  0  0.261677  0.398759  0  3.996166  0
C  C90  1  0.07390853  0.04242625  0.46606303  1  -0.006664  0  -0.007269  0.034147  0  3.976666  0
C  C91  1  0.95044361  0.03191814  0.46167063  1  -0.055916  0  -0.008481  0.026925  0  3.999398  0
C  C92  1  0.90069715  0.00559393  0.49386705  1  -0.08417  0  -0.090808  -0.179268  0  3.974317  0
C  C93  1  0.96792915  0.98755384  0.53077817  1  0.057954  0  -0.007325  0.034917  0  3.983246  0
C  C94  1  0.09152102  0.99770457  0.53527041  1  -0.080453  0  -0.00948  0.026716  0  3.990852  0
C  C95  1  0.14131857  0.02444701  0.50309694  1  -0.021721  0  -0.089536  -0.179322  0  3.962156  0
C  C96  1  0.76603332  0.93776734  0.62488434  1  0.05263  0  -0.015233  -0.051068  0  3.975618  0
C  C97  1  0.74058851  0.90860971  0.58680585  1  0.0192  0  -0.086178  -0.136835  0  3.948211  0
C  C98  1  0.81071877  0.91769883  0.55657487  1  -0.132101  0  -0.012617  0.048024  0  4.003618  0
C  C99  1  0.90506541  0.96334923  0.56345183  1  0.008082  0  -0.005217  0.046156  0  3.969414  0
C  C100  1  0.93280549  0.98997425  0.60198595  1  -0.012951  0  -0.096997  -0.173018  0  3.94934  0
C  C101  1  0.86903259  0.97663247  0.63372257  1  -0.164675  0  -0.003523  0.085388  0  3.997643  0
C  C102  1  0.36020996  0.94881121  0.63435596  1  -0.084288  0  -0.008046  -0.030024  0  3.976526  0
C  C103  1  0.31712021  0.01247634  0.63015469  1  0.074318  0  -0.086954  -0.14562  0  3.941298  0
C  C104  1  0.22571248  0.02939503  0.59908053  1  -0.203907  0  -0.010103  0.047327  0  4.015407  0
C  C105  1  0.17488954  0.98071548  0.57238874  1  0.049304  0  -0.010157  0.030065  0  4.002402  0
C  C106  1  0.21050192  0.91600700  0.57955016  1  0.021014  0  -0.088495  -0.160793  0  3.940027  0
C  C107  1  0.30333137  0.89918377  0.60997771  1  -0.086852  0  -0.007323  0.070033  0  4.030568  0
C  C108  1  0.26652561  0.09470167  0.36947734  1  0.00885  0  -0.012694  -0.048474  0  3.957953  0
C  C109  1  0.29463117  0.12357459  0.40768915  1  0.007445  0  -0.087936  -0.138094  0  3.946618  0
C  C110  1  0.22844008  0.11333029  0.43883935  1  -0.166543  0  -0.014005  0.047324  0  4.000302  0
C  C111  1  0.13428637  0.06737232  0.43286830  1  -0.012552  0  -0.007035  0.043171  0  3.97122  0
C  C112  1  0.10225238  0.04228871  0.39413841  1  0.025464  0  -0.098125  -0.17574  0  3.951404  0
C  C113  1  0.16198950  0.05659862  0.36143174  1  -0.136421  0  0.000243  0.091278  0  3.996504  0
C  C114  1  0.67238604  0.07547102  0.36491708  1  0.039868  0  -0.007526  -0.03064  0  3.970998  0
C  C115  1  0.72159233  0.01296292  0.36853717  1  -0.071111  0  -0.085781  -0.140816  0  3.941432  0
C  C116  1  0.81585281  0.99775275  0.39877071  1  -0.133556  0  -0.012962  0.041105  0  4.024866  0
C  C117  1  0.86506523  0.04755701  0.42489073  1  -0.043556  0  -0.009265  0.033187  0  4.014889  0
C  C118  1  0.82277785  0.11111568  0.41861916  1  0.108642  0  -0.090385  -0.165873  0  3.939722  0
C  C119  1  0.72560768  0.12625527  0.38935982  1  -0.162216  0  -0.002677  0.07793  0  4.023435  0
C  C120  1  0.74432263  0.24128582  0.00473166  1  -0.065618  0  -0.021725  -0.083912  0  3.961606  0
C  C121  1  0.72027447  0.27763823  0.96900307  1  0.041838  0  -0.09253  -0.140427  0  3.983196  0
C  C122  1  0.66563822  0.33868042  0.96771781  1  -0.169565  0  -0.015882  0.04812  0  4.011727  0
C  C123  1  0.62966695  0.36246378  0.00344780  1  0.065661  0  -0.009895  0.034041  0  4.005455  0
C  C124  1  0.65593415  0.32666576  0.03923915  1  -0.042681  0  -0.091661  -0.167988  0  3.936358  0
C  C125  1  0.71499877  0.26648803  0.04116773  1  -0.088588  0  -0.00175  0.100301  0  4.001428  0
C  C126  1  0.35621422  0.59938378  0.00597597  1  0.017512  0  -0.005593  0.039962  0  4.001071  0
C  C127  1  0.33108890  0.62299536  0.04281008  1  -0.021258  0  -0.08975  -0.173752  0  3.966331  0
C  C128  1  0.27472221  0.68286217  0.04622421  1  -0.146025  0  -0.004763  0.09206  0  3.98414  0
C  C129  1  0.23357865  0.71817788  0.01051943  1  0.010671  0  -0.014674  -0.069799  0  3.934455  0
C  C130  1  0.25420506  0.69323628  0.97339517  1  0.001446  0  -0.089573  -0.136314  0  3.963982  0
C  C131  1  0.31649250  0.63524305  0.97050109  1  -0.131958  0  -0.008743  0.054073  0  4.011915  0
C  C132  1  0.72558167  0.72913776  0.00651435  1  0.039692  0  -0.026055  -0.105089  0  3.93407  0
C  C133  1  0.73039451  0.68661478  0.97396885  1  -0.020639  0  -0.084029  -0.115805  0  3.954333  0
C  C134  1  0.67487588  0.62620358  0.97088291  1  -0.145144  0  -0.016443  0.040101  0  3.993725  0
C  C135  1  0.61263147  0.60559023  0.00230215  1  0.012153  0  -0.001274  0.052578  0  3.987382  0
C  C136  1  0.60927672  0.64705814  0.03484374  1  -0.045886  0  -0.09308  -0.173185  0  3.938876  0
C  C137  1  0.66187951  0.70891213  0.03775609  1  -0.116228  0  0.00287  0.110921  0  3.988748  0
C  C138  1  0.26951134  0.23231548  0.00242344  1  0.025476  0  -0.022205  -0.095418  0  3.937609  0
C  C139  1  0.27010521  0.27242888  0.03626551  1  -0.009394  0  -0.087678  -0.124338  0  3.943221  0
C  C140  1  0.32424885  0.33337679  0.03941844  1  -0.142614  0  -0.01529  0.042909  0  4.025868  0
C  C141  1  0.37754169  0.35644249  0.00654834  1  0.002244  0  -0.010231  0.033887  0  4.000741  0
C  C142  1  0.37615817  0.31702231  0.97275725  1  -0.007807  0  -0.098453  -0.176009  0  3.953315  0
C  C143  1  0.32559533  0.25473830  0.96980264  1  -0.126421  0  -0.002089  0.107268  0  3.991735  0
C  C144  1  0.64938442  0.92574881  0.75818150  1  0.008725  0  -0.004452  -0.027922  0  3.940977  0
C  C145  1  0.58447876  0.96212879  0.78258598  1  0.016531  0  -0.081515  -0.139685  0  3.92646  0
C  C146  1  0.61365540  0.96464153  0.82465353  1  -0.156103  0  -0.003809  0.083849  0  3.987453  0
C  C147  1  0.70958021  0.92564669  0.84324210  1  -0.023044  0  -0.016381  -0.080059  0  3.934808  0
C  C148  1  0.76952978  0.88656541  0.81887556  1  0.071584  0  -0.086219  -0.126492  0  3.957836  0
C  C149  1  0.74474846  0.88614588  0.77675642  1  -0.161708  0  -0.003552  0.074014  0  3.998155  0
C  C150  1  0.30466511  0.05513981  0.15636590  1  -0.047396  0  -0.020879  -0.092329  0  3.930364  0
C  C151  1  0.37371004  0.00504839  0.17676984  1  0.002155  0  -0.084183  -0.125068  0  3.932096  0
C  C152  1  0.42208341  0.00826636  0.21750881  1  -0.098993  0  -0.006693  0.070469  0  4.01137  0
C  C153  1  0.39287041  0.06329334  0.23933881  1  -0.016459  0  -0.004637  -0.024543  0  3.964279  0
C  C154  1  0.32737407  0.11413517  0.21910791  1  0.016011  0  -0.088608  -0.154782  0  3.951345  0
C  C155  1  0.28551441  0.11302092  0.17761082  1  -0.109315  0  -0.002381  0.093236  0  4.004938  0
S  S156  1  0.77244297  0.86908962  0.51335371  1  0.043994  0  -0.096329  -0.147482  0  2.424269  0
S  S157  1  0.92002872  0.01610273  0.67942559  1  0.018204  0  -0.1029  -0.153964  0  2.374548  0
S  S158  1  0.18184361  0.11193623  0.59565485  1  0.064804  0  -0.076658  -0.127252  0  2.399177  0
S  S159  1  0.34882239  0.81695038  0.61373718  1  0.056838  0  -0.084852  -0.137842  0  2.372415  0
S  S160  1  0.27169797  0.15944654  0.48292529  1  0.053928  0  -0.095409  -0.14856  0  2.422091  0
S  S161  1  0.10347318  0.02101660  0.31542134  1  -0.018877  0  -0.09918  -0.151773  0  2.363256  0
S  S162  1  0.86368667  0.91578868  0.40270895  1  0.037391  0  -0.074153  -0.123846  0  2.403482  0
S  S163  1  0.68083581  0.20833290  0.38649282  1  0.080748  0  -0.084128  -0.138608  0  2.373668  0
S  S164  1  0.63393057  0.37788849  0.92011251  1  -0.016219  0  -0.110135  -0.168488  0  2.427563  0
S  S165  1  0.73599018  0.22694287  0.08845658  1  -0.034273  0  -0.115901  -0.187822  0  2.356938  0
S  S166  1  0.25829891  0.70672740  0.09593337  1  0.006074  0  -0.09717  -0.171847  0  2.376931  0
S  S167  1  0.34203307  0.61067100  0.92208542  1  0.020046  0  -0.075851  -0.130753  0  2.419476  0
S  S168  1  0.68610078  0.57831811  0.92746917  1  -0.006631  0  -0.106361  -0.166114  0  2.452358  0
S  S169  1  0.63755694  0.75239782  0.08071098  1  -0.019918  0  -0.09362  -0.162035  0  2.386077  0
S  S170  1  0.32486869  0.37539858  0.08532362  1  0.027208  0  -0.101196  -0.156041  0  2.387127  0
S  S171  1  0.33833121  0.21388861  0.92473327  1  -0.050064  0  -0.124726  -0.198186  0  2.377803  0
S  S172  1  0.52509671  0.01896525  0.84810575  1  0.029317  0  -0.071097  -0.146076  0  2.419842  0
S  S173  1  0.83184259  0.83245952  0.75276675  1  -0.026682  0  -0.108028  -0.166934  0  2.365254  0
S  S174  1  0.50498691  0.94090009  0.23885645  1  0.018324  0  -0.108609  -0.163476  0  2.36321  0
S  S175  1  0.21300121  0.18466858  0.15847783  1  -0.009638  0  -0.094539  -0.168748  0  2.38039  0
N  N176  1  0.33095716  0.08645612  0.30284064  1  -1.170167  0  -0.301736  -0.383711  0  3.262472  0
N  N177  1  0.46990482  0.10298235  0.36140254  1  -1.206826  0  -0.305773  -0.40455  0  3.238694  0
N  N178  1  0.53383260  0.06053115  0.30208884  1  -1.176518  0  -0.307181  -0.405831  0  3.193181  0
N  N179  1  0.50173467  0.94093172  0.69820982  1  -1.138339  0  -0.311333  -0.412543  0  3.148868  0
N  N180  1  0.56249824  0.93040615  0.63328446  1  -1.147074  0  -0.304127  -0.400613  0  3.218836  0
N  N181  1  0.70569656  0.93016800  0.69188755  1  -1.197479  0  -0.302466  -0.381854  0  3.313075  0
O  O182  1  0.94652179  0.10641775  0.09693659  1  -1.239989  0  -0.645899  -0.922112  0  1.946942  0
O  O183  1  0.13953210  0.16139318  0.03037505  1  -1.177009  0  -0.371021  -0.624547  0  2.312653  0
O  O184  1  0.18150723  0.08473722  0.09492483  1  -1.179912  0  -0.341832  -0.60839  0  2.398652  0
O  O185  1  0.75983626  0.13705504  0.97558902  1  -1.210051  0  -0.357058  -0.667397  0  2.307521  0
O  O186  1  0.26338862  0.98472978  0.10008299  1  -1.194898  0  -0.356596  -0.630279  0  2.318103  0
O  O187  1  0.89684244  0.16719371  0.02811334  1  -1.182577  0  -0.33977  -0.588033  0  2.340672  0
O  O188  1  0.22268176  0.12511169  0.97780364  1  -1.177989  0  -0.331064  -0.575666  0  2.377183  0
O  O189  1  0.13053503  0.01908182  0.01953489  1  -1.221403  0  -0.782366  -1.188664  0  2.089535  0
O  O190  1  0.98545811  0.09410620  0.97186895  1  -1.258996  0  -0.683503  -1.042591  0  2.198872  0
O  O191  1  0.02318834  0.98354020  0.07813154  1  -1.229571  0  -0.674612  -1.019044  0  2.174371  0
O  O192  1  0.87397157  0.02925459  0.02087381  1  -1.214183  0  -0.784728  -1.153404  0  2.049169  0
O  O193  1  0.63473528  0.02482658  0.97370813  1  -1.262407  0  -0.607576  -0.829516  0  2.039222  0
O  O194  1  0.33914529  0.01148138  0.97848002  1  -1.25374  0  -0.609983  -0.797064  0  2.032476  0
O  O195  1  0.96745572  0.97927370  0.94524905  1  -1.221764  0  -0.771601  -1.158408  0  2.008877  0
O  O196  1  0.15141509  0.91794565  0.97739869  1  -1.261163  0  -0.677411  -1.029881  0  2.178938  0
O  O197  1  0.99151222  0.89897050  0.02284850  1  -1.210664  0  -0.790192  -1.166052  0  2.117573  0
O  O198  1  0.80001330  0.93184996  0.97963955  1  -1.240042  0  -0.696336  -1.05847  0  2.313441  0
O  O199  1  0.34413235  0.93090828  0.03806941  1  -1.215833  0  -0.662972  -0.931202  0  1.872643  0
O  O200  1  0.20165944  0.82194950  0.03778378  1  -1.184389  0  -0.339108  -0.620149  0  2.364345  0
O  O201  1  0.08502186  0.79139781  0.98045824  1  -1.201644  0  -0.347899  -0.638096  0  2.300632  0
O  O202  1  0.80377388  0.00992545  0.09756728  1  -1.25742  0  -0.61113  -0.817636  0  2.039032  0
O  O203  1  0.84482425  0.80316101  0.97572552  1  -1.187895  0  -0.363977  -0.621895  0  2.294574  0
O  O204  1  0.12756691  0.86863491  0.10227124  1  -1.224271  0  -0.611159  -0.809131  0  2.033078  0
O  O205  1  0.90374473  0.88124589  0.10113223  1  -1.254786  0  -0.659432  -0.926783  0  1.885873  0
O  O206  1  0.66057293  0.95574461  0.03829234  1  -1.259775  0  -0.648902  -0.95104  0  1.882746  0
O  O207  1  0.77676619  0.83507699  0.03244178  1  -1.188151  0  -0.34362  -0.620337  0  2.396125  0
O  O208  1  0.03141319  0.82922230  0.90894757  1  -1.255007  0  -0.58251  -0.774981  0  2.022885  0
O  O209  1  0.76401940  0.10301635  0.90425024  1  -1.245535  0  -0.584285  -0.773429  0  2.064861  0
O  O210  1  0.82690242  0.88248981  0.90277931  1  -1.202626  0  -0.339689  -0.624978  0  2.263024  0
O  O211  1  0.73527785  0.97939596  0.90584825  1  -1.195997  0  -0.355376  -0.627653  0  2.38457  0
O  O212  1  0.08206275  0.09070780  0.90767121  1  -1.245243  0  -0.702016  -0.982356  0  1.82815  0
O  O213  1  0.21878300  0.97828407  0.91253730  1  -1.225114  0  -0.698869  -1.013286  0  1.826759  0
