# generated using pymatgen
data_TlH9C9O4
_symmetry_space_group_name_H-M   'P 1'
_cell_length_a   9.67769963
_cell_length_b   10.75553590
_cell_length_c   10.90591887
_cell_angle_alpha   109.26155341
_cell_angle_beta   116.36573030
_cell_angle_gamma   89.99093416
_symmetry_Int_Tables_number   1
_chemical_formula_structural   TlH9C9O4
_chemical_formula_sum   'Tl4 H36 C36 O16'
_cell_volume   945.68474567
_cell_formula_units_Z   4
loop_
 _symmetry_equiv_pos_site_id
 _symmetry_equiv_pos_as_xyz
  1  'x, y, z'
loop_
 _atom_site_type_symbol
 _atom_site_label
 _atom_site_symmetry_multiplicity
 _atom_site_fract_x
 _atom_site_fract_y
 _atom_site_fract_z
 _atom_site_occupancy
 _atom_site_hle17_bader_spin_density
 _atom_site_hle17_ddec_charge
 _atom_site_hle17_ddec_spin_density
 _atom_site_hle17_ddec_sum_bond_order
 _atom_site_hle17_magmom
 _atom_site_hse06_10hf_bader_spin_density
 _atom_site_hse06_10hf_ddec_charge
 _atom_site_hse06_10hf_ddec_spin_density
 _atom_site_hse06_10hf_ddec_sum_bond_order
 _atom_site_hse06_10hf_magmom
 _atom_site_hse06_bader_spin_density
 _atom_site_hse06_ddec_charge
 _atom_site_hse06_ddec_spin_density
 _atom_site_hse06_ddec_sum_bond_order
 _atom_site_hse06_magmom
 _atom_site_pbe_bader_spin_density
 _atom_site_pbe_cm5_charge
 _atom_site_pbe_ddec_charge
 _atom_site_pbe_ddec_spin_density
 _atom_site_pbe_ddec_sum_bond_order
 _atom_site_pbe_magmom
Tl  Tl0  1  0.71827443  0.03973851  0.99201249  1  0  0.781557  0  0.806664  0  0  0.67825  0  1.086921  0  0  0.708556  0  1.066563  0  0  0.404679  0.654213  0  1.104131  0
Tl  Tl1  1  0.27364670  0.53966486  0.99191015  1  0  0.782026  0  0.806325  0  0  0.678636  0  1.086582  0  0  0.708875  0  1.066338  0  0  0.404627  0.654611  0  1.103779  0
Tl  Tl2  1  0.28172573  0.96026142  0.00798596  1  0  0.781561  0  0.806665  0  0  0.678263  0  1.086918  0  0  0.708566  0  1.066563  0  0  0.404682  0.654224  0  1.104126  0
Tl  Tl3  1  0.72635347  0.46033508  0.00809107  1  0  0.782019  0  0.806338  0  0  0.678631  0  1.086592  0  0  0.70887  0  1.06635  0  0  0.404625  0.654603  0  1.103794  0
H  H4  1  0.73475449  0.53840405  0.35073006  1  0  0.112811  0  0.96851  0  0  0.12273  0  1.035927  0  0  0.126566  0  1.033167  0  0  0.105491  0.119857  0  1.038077  0
H  H5  1  0.61594530  0.03834133  0.35081496  1  0  0.111967  0  0.970184  0  0  0.122647  0  1.036727  0  0  0.126395  0  1.034115  0  0  0.105518  0.119784  0  1.038834  0
H  H6  1  0.26524589  0.46159690  0.64927247  1  0  0.112818  0  0.968536  0  0  0.122737  0  1.035945  0  0  0.126575  0  1.033185  0  0  0.105499  0.119863  0  1.038097  0
H  H7  1  0.38405487  0.96165860  0.64918534  1  0  0.111976  0  0.970168  0  0  0.122655  0  1.036711  0  0  0.126397  0  1.034106  0  0  0.10553  0.119789  0  1.038819  0
H  H8  1  0.34035328  0.65270999  0.42349793  1  0  0.135829  0  0.966703  0  0  0.142545  0  1.034958  0  0  0.146991  0  1.032118  0  0  0.110574  0.139415  0  1.037047  0
H  H9  1  0.08313733  0.15278097  0.42365720  1  0  0.135282  0  0.966446  0  0  0.142012  0  1.034938  0  0  0.146439  0  1.032173  0  0  0.110302  0.138908  0  1.036945  0
H  H10  1  0.65964438  0.34728894  0.57650013  1  0  0.135831  0  0.966736  0  0  0.142552  0  1.03497  0  0  0.146997  0  1.032134  0  0  0.110565  0.139418  0  1.037063  0
H  H11  1  0.91686208  0.84722096  0.57634344  1  0  0.135283  0  0.966469  0  0  0.142036  0  1.03493  0  0  0.146462  0  1.032167  0  0  0.110298  0.138928  0  1.036941  0
H  H12  1  0.32148530  0.24724758  0.15729091  1  0  0.081331  0  1.033772  0  0  0.088369  0  1.112062  0  0  0.09155  0  1.1105  0  0  0.091747  0.08637  0  1.11287  0
H  H13  1  0.83588231  0.74725670  0.15753188  1  0  0.081408  0  1.033548  0  0  0.088808  0  1.111514  0  0  0.091982  0  1.110009  0  0  0.091812  0.086797  0  1.112353  0
H  H14  1  0.67851678  0.75275037  0.84270948  1  0  0.081301  0  1.03382  0  0  0.08837  0  1.11207  0  0  0.091549  0  1.110508  0  0  0.091748  0.086364  0  1.112895  0
H  H15  1  0.16411805  0.25274423  0.84246698  1  0  0.081385  0  1.033615  0  0  0.088796  0  1.111573  0  0  0.091968  0  1.11007  0  0  0.091806  0.086784  0  1.112415  0
H  H16  1  0.46200863  0.85370108  0.44122832  1  0  0.092814  0  0.947644  0  0  0.110977  0  1.011765  0  0  0.11162  0  1.011771  0  0  0.09961  0.110406  0  1.011726  0
H  H17  1  0.97897320  0.35374670  0.44126185  1  0  0.091827  0  0.948492  0  0  0.110338  0  1.012278  0  0  0.110938  0  1.012357  0  0  0.099659  0.109799  0  1.012191  0
H  H18  1  0.53799153  0.14629886  0.55877197  1  0  0.092799  0  0.947635  0  0  0.110958  0  1.011758  0  0  0.111601  0  1.011763  0  0  0.099608  0.110385  0  1.011723  0
H  H19  1  0.02102737  0.64625524  0.55873924  1  0  0.091838  0  0.948455  0  0  0.110338  0  1.012251  0  0  0.110939  0  1.012329  0  0  0.099672  0.109798  0  1.012165  0
H  H20  1  0.65446335  0.93177040  0.58997662  1  0  0.100966  0  0.96341  0  0  0.11451  0  1.032887  0  0  0.116334  0  1.031202  0  0  0.103897  0.11315  0  1.033932  0
H  H21  1  0.93526533  0.43177622  0.58994955  1  0  0.100675  0  0.963388  0  0  0.113921  0  1.03352  0  0  0.115747  0  1.031846  0  0  0.10363  0.112557  0  1.034564  0
H  H22  1  0.34553546  0.06822854  0.41002282  1  0  0.100952  0  0.963402  0  0  0.114501  0  1.032868  0  0  0.116324  0  1.031185  0  0  0.103897  0.113144  0  1.033909  0
H  H23  1  0.06473388  0.56822472  0.41005069  1  0  0.100676  0  0.963426  0  0  0.11393  0  1.033548  0  0  0.115755  0  1.031875  0  0  0.103628  0.112564  0  1.034595  0
H  H24  1  0.53232913  0.82097194  0.60906721  1  0  0.077778  0  0.960107  0  0  0.092769  0  1.033603  0  0  0.093089  0  1.03338  0  0  0.094499  0.092539  0  1.033557  0
H  H25  1  0.07667232  0.32109806  0.60916057  1  0  0.077082  0  0.960818  0  0  0.092271  0  1.034269  0  0  0.092564  0  1.034076  0  0  0.094445  0.092057  0  1.034211  0
H  H26  1  0.46766988  0.17902800  0.39093355  1  0  0.077769  0  0.960091  0  0  0.092747  0  1.033613  0  0  0.093068  0  1.033389  0  0  0.094492  0.092513  0  1.033569  0
H  H27  1  0.92332710  0.67890388  0.39084099  1  0  0.077093  0  0.960823  0  0  0.092285  0  1.034265  0  0  0.092578  0  1.034072  0  0  0.094435  0.092071  0  1.034206  0
H  H28  1  0.07091281  0.23876181  0.09519816  1  0  0.053421  0  0.993237  0  0  0.071947  0  1.064058  0  0  0.071879  0  1.064784  0  0  0.086992  0.071774  0  1.063844  0
H  H29  1  0.02423702  0.73897356  0.09529968  1  0  0.053956  0  0.992589  0  0  0.072282  0  1.063499  0  0  0.072241  0  1.064194  0  0  0.087361  0.072081  0  1.063308  0
H  H30  1  0.92908676  0.76123513  0.90480001  1  0  0.053385  0  0.993297  0  0  0.071922  0  1.064106  0  0  0.071851  0  1.064835  0  0  0.08699  0.07175  0  1.063891  0
H  H31  1  0.97576335  0.26102737  0.90470010  1  0  0.053974  0  0.992607  0  0  0.072301  0  1.063511  0  0  0.072263  0  1.064204  0  0  0.087374  0.072104  0  1.063317  0
H  H32  1  0.98263122  0.28833712  0.21407787  1  0  0.099578  0  0.98717  0  0  0.113183  0  1.057575  0  0  0.114514  0  1.056867  0  0  0.102046  0.111957  0  1.058322  0
H  H33  1  0.23148158  0.78849216  0.21420261  1  0  0.098763  0  0.98924  0  0  0.112696  0  1.059166  0  0  0.114037  0  1.058438  0  0  0.101922  0.111489  0  1.059861  0
H  H34  1  0.01736970  0.71166082  0.78592207  1  0  0.099567  0  0.987182  0  0  0.113179  0  1.057585  0  0  0.11451  0  1.056874  0  0  0.102043  0.111957  0  1.058331  0
H  H35  1  0.76851763  0.21150877  0.78579671  1  0  0.098767  0  0.989251  0  0  0.112701  0  1.059171  0  0  0.114041  0  1.058447  0  0  0.101922  0.111497  0  1.059864  0
H  H36  1  0.16718132  0.23051038  0.27510670  1  0  0.089379  0  0.9668  0  0  0.103822  0  1.036069  0  0  0.105144  0  1.035349  0  0  0.098285  0.102729  0  1.036729  0
H  H37  1  0.10800718  0.73051010  0.27511948  1  0  0.089399  0  0.966373  0  0  0.103683  0  1.035797  0  0  0.104927  0  1.03518  0  0  0.09828  0.102606  0  1.036451  0
H  H38  1  0.83281960  0.76948756  0.72489324  1  0  0.089397  0  0.966784  0  0  0.103831  0  1.036064  0  0  0.105155  0  1.03534  0  0  0.098303  0.102742  0  1.036722  0
H  H39  1  0.89199203  0.26949083  0.72487984  1  0  0.089378  0  0.966398  0  0  0.103663  0  1.03582  0  0  0.104906  0  1.035204  0  0  0.09827  0.102587  0  1.036475  0
C  C40  1  0.53549045  0.38288371  0.24832724  1  0  -0.015572  0  3.786594  0  0  0.008752  0  4.019568  0  0  0.006275  0  4.039796  0  0  -0.017703  0.009781  0  4.006391  0
C  C41  1  0.71284395  0.88285767  0.24848712  1  0  -0.015153  0  3.784742  0  0  0.008335  0  4.019655  0  0  0.005942  0  4.039704  0  0  -0.01788  0.009386  0  4.006492  0
C  C42  1  0.46450952  0.61711522  0.75167265  1  0  -0.015547  0  3.786547  0  0  0.008754  0  4.01955  0  0  0.006307  0  4.039742  0  0  -0.017685  0.009795  0  4.006357  0
C  C43  1  0.28715661  0.11714426  0.75151305  1  0  -0.015155  0  3.78474  0  0  0.008429  0  4.019564  0  0  0.006037  0  4.039611  0  0  -0.017851  0.009491  0  4.006386  0
C  C44  1  0.61737062  0.51262327  0.33350460  1  0  -0.192187  0  3.709376  0  0  -0.231714  0  3.968412  0  0  -0.235426  0  3.985104  0  0  -0.103269  -0.228803  0  3.957318  0
C  C45  1  0.71609678  0.01259809  0.33359175  1  0  -0.190494  0  3.71052  0  0  -0.230873  0  3.969558  0  0  -0.234543  0  3.986328  0  0  -0.102692  -0.227974  0  3.958429  0
C  C46  1  0.38262935  0.48737567  0.66649529  1  0  -0.19223  0  3.709422  0  0  -0.231741  0  3.968464  0  0  -0.235463  0  3.985148  0  0  -0.103275  -0.228832  0  3.957364  0
C  C47  1  0.28390359  0.98740285  0.66640894  1  0  -0.190523  0  3.710456  0  0  -0.230924  0  3.969469  0  0  -0.234589  0  3.98624  0  0  -0.102737  -0.228021  0  3.958338  0
C  C48  1  0.54726486  0.61108782  0.39527190  1  0  0.29833  0  3.810603  0  0  0.291055  0  4.067593  0  0  0.303936  0  4.082522  0  0  0.086949  0.282161  0  4.057625  0
C  C49  1  0.84796370  0.11109408  0.39534651  1  0  0.295038  0  3.81111  0  0  0.288909  0  4.066316  0  0  0.301617  0  4.081392  0  0  0.086428  0.280112  0  4.056265  0
C  C50  1  0.45273396  0.38891111  0.60472754  1  0  0.298373  0  3.810665  0  0  0.291085  0  4.067672  0  0  0.303967  0  4.082602  0  0  0.086968  0.282191  0  4.057699  0
C  C51  1  0.15203532  0.88890585  0.60465333  1  0  0.295039  0  3.811095  0  0  0.288922  0  4.066322  0  0  0.301632  0  4.081396  0  0  0.086439  0.28011  0  4.056282  0
C  C52  1  0.39581414  0.57959504  0.37312421  1  0  -0.318131  0  3.719593  0  0  -0.344496  0  3.971389  0  0  -0.353705  0  3.99109  0  0  -0.118571  -0.33876  0  3.95846  0
C  C53  1  0.97728923  0.07964222  0.37325915  1  0  -0.316634  0  3.718064  0  0  -0.343072  0  3.969301  0  0  -0.352265  0  3.989041  0  0  -0.118193  -0.337351  0  3.956372  0
C  C54  1  0.60418583  0.42040389  0.62687477  1  0  -0.318166  0  3.719672  0  0  -0.344516  0  3.971461  0  0  -0.353724  0  3.991162  0  0  -0.118589  -0.338773  0  3.958527  0
C  C55  1  0.02271229  0.92035871  0.62674200  1  0  -0.316667  0  3.718128  0  0  -0.343118  0  3.969356  0  0  -0.352314  0  3.989094  0  0  -0.118192  -0.337383  0  3.956427  0
C  C56  1  0.31524658  0.44734737  0.28843705  1  0  0.266367  0  3.873871  0  0  0.264544  0  4.12246  0  0  0.275694  0  4.140407  0  0  0.074039  0.257112  0  4.109824  0
C  C57  1  0.97321156  0.94738869  0.28864249  1  0  0.267724  0  3.871195  0  0  0.26492  0  4.12132  0  0  0.276053  0  4.13927  0  0  0.074288  0.257539  0  4.108702  0
C  C58  1  0.68475339  0.55265157  0.71156284  1  0  0.266348  0  3.873874  0  0  0.264529  0  4.122481  0  0  0.275678  0  4.140434  0  0  0.074036  0.257092  0  4.109847  0
C  C59  1  0.02678726  0.05261025  0.71135695  1  0  0.267787  0  3.871154  0  0  0.264978  0  4.121287  0  0  0.276111  0  4.139232  0  0  0.074344  0.257599  0  4.10867  0
C  C60  1  0.38319513  0.34911087  0.22522286  1  0  -0.262988  0  3.805759  0  0  -0.291227  0  4.052489  0  0  -0.298416  0  4.074819  0  0  -0.124652  -0.286532  0  4.037259  0
C  C61  1  0.84205421  0.84911371  0.22542950  1  0  -0.264009  0  3.806179  0  0  -0.292023  0  4.0535  0  0  -0.299233  0  4.075726  0  0  -0.125007  -0.287352  0  4.038311  0
C  C62  1  0.61680598  0.65088807  0.77477657  1  0  -0.262946  0  3.805768  0  0  -0.291202  0  4.052516  0  0  -0.298398  0  4.074839  0  0  -0.124646  -0.286512  0  4.037285  0
C  C63  1  0.15794751  0.15088822  0.77457205  1  0  -0.264048  0  3.806228  0  0  -0.292107  0  4.053531  0  0  -0.299317  0  4.075756  0  0  -0.125052  -0.287443  0  4.038348  0
C  C64  1  0.60880162  0.27906045  0.17716716  1  0  0.660825  0  3.897786  0  0  0.609835  0  4.183649  0  0  0.644632  0  4.175589  0  0  0.207538  0.586286  0  4.187328  0
C  C65  1  0.56833799  0.77902277  0.17730863  1  0  0.66296  0  3.893359  0  0  0.611423  0  4.180433  0  0  0.646249  0  4.172198  0  0  0.207946  0.587849  0  4.184198  0
C  C66  1  0.39119970  0.72093949  0.82283359  1  0  0.660825  0  3.897775  0  0  0.609849  0  4.183628  0  0  0.644634  0  4.175574  0  0  0.207547  0.586298  0  4.187307  0
C  C67  1  0.43166218  0.22097717  0.82269166  1  0  0.663013  0  3.893305  0  0  0.611414  0  4.18044  0  0  0.64624  0  4.172203  0  0  0.207967  0.587843  0  4.184196  0
C  C68  1  0.56540695  0.84144507  0.53225106  1  0  -0.087383  0  3.614003  0  0  -0.185895  0  3.879298  0  0  -0.179001  0  3.882093  0  0  -0.14596  -0.189952  0  3.87661  0
C  C69  1  0.96667881  0.34149236  0.53227937  1  0  -0.084851  0  3.614622  0  0  -0.183901  0  3.879455  0  0  -0.177029  0  3.882351  0  0  -0.145139  -0.187965  0  3.876682  0
C  C70  1  0.43459302  0.15855387  0.46774883  1  0  -0.087329  0  3.613916  0  0  -0.185827  0  3.879206  0  0  -0.178932  0  3.881995  0  0  -0.145944  -0.189886  0  3.87652  0
C  C71  1  0.03332136  0.65850758  0.46772184  1  0  -0.084915  0  3.614577  0  0  -0.183938  0  3.879398  0  0  -0.177066  0  3.882299  0  0  -0.14513  -0.187995  0  3.876615  0
C  C72  1  0.09378760  0.28664830  0.21015824  1  0  -0.103982  0  3.664911  0  0  -0.202337  0  3.927192  0  0  -0.19656  0  3.931043  0  0  -0.148773  -0.20564  0  3.924464  0
C  C73  1  0.11640042  0.78676646  0.21027814  1  0  -0.103998  0  3.665956  0  0  -0.202243  0  3.928212  0  0  -0.196442  0  3.932053  0  0  -0.148665  -0.205489  0  3.92549  0
C  C74  1  0.90621217  0.71334964  0.78984125  1  0  -0.103919  0  3.664931  0  0  -0.202272  0  3.927226  0  0  -0.196492  0  3.931074  0  0  -0.148744  -0.205581  0  3.924501  0
C  C75  1  0.88359899  0.21323548  0.78972158  1  0  -0.103997  0  3.66601  0  0  -0.20224  0  3.928256  0  0  -0.196445  0  3.932095  0  0  -0.148667  -0.20549  0  3.925535  0
O  O76  1  0.53742927  0.15804391  0.11164901  1  0  -0.664888  0  1.981514  0  0  -0.586953  0  2.220172  0  0  -0.617864  0  2.214896  0  0  -0.309433  -0.563636  0  2.222577  0
O  O77  1  0.57421776  0.65799667  0.11184654  1  0  -0.666208  0  1.979905  0  0  -0.587637  0  2.218602  0  0  -0.618544  0  2.21327  0  0  -0.309964  -0.564318  0  2.221048  0
O  O78  1  0.46257205  0.84195603  0.88835173  1  0  -0.664897  0  1.981495  0  0  -0.586962  0  2.220143  0  0  -0.617874  0  2.214872  0  0  -0.309448  -0.563646  0  2.222552  0
O  O79  1  0.42578357  0.34200328  0.88815512  1  0  -0.666219  0  1.979894  0  0  -0.58763  0  2.218622  0  0  -0.618539  0  2.213288  0  0  -0.309977  -0.564315  0  2.221066  0
O  O80  1  0.73825669  0.31634386  0.18425851  1  0  -0.689436  0  1.963876  0  0  -0.617467  0  2.197967  0  0  -0.645691  0  2.190997  0  0  -0.324011  -0.596884  0  2.201776  0
O  O81  1  0.44594160  0.81630327  0.18433656  1  0  -0.689806  0  1.963199  0  0  -0.617821  0  2.198071  0  0  -0.646072  0  2.191063  0  0  -0.323537  -0.597225  0  2.201891  0
O  O82  1  0.26174578  0.68365608  0.81574361  1  0  -0.689442  0  1.963906  0  0  -0.617469  0  2.197969  0  0  -0.645689  0  2.191003  0  0  -0.324017  -0.596888  0  2.201781  0
O  O83  1  0.55405741  0.18369666  0.81566236  1  0  -0.689811  0  1.963171  0  0  -0.617809  0  2.19805  0  0  -0.64606  0  2.191042  0  0  -0.323534  -0.597218  0  2.201872  0
O  O84  1  0.63676281  0.73576675  0.47638300  1  0  -0.252501  0  2.334028  0  0  -0.170276  0  2.568612  0  0  -0.189394  0  2.572506  0  0  -0.183517  -0.157209  0  2.565669  0
O  O85  1  0.83950072  0.23575456  0.47640117  1  0  -0.252971  0  2.335145  0  0  -0.170306  0  2.56913  0  0  -0.189229  0  2.57291  0  0  -0.184445  -0.157305  0  2.566209  0
O  O86  1  0.36323600  0.26423218  0.52361644  1  0  -0.252528  0  2.334034  0  0  -0.170308  0  2.568626  0  0  -0.189428  0  2.57252  0  0  -0.183545  -0.157244  0  2.565682  0
O  O87  1  0.16049849  0.76424637  0.52359907  1  0  -0.252935  0  2.335139  0  0  -0.170324  0  2.569166  0  0  -0.189252  0  2.572947  0  0  -0.184463  -0.15732  0  2.566243  0
O  O88  1  0.16730792  0.42371152  0.27184015  1  0  -0.263948  0  2.347339  0  0  -0.183043  0  2.580313  0  0  -0.200769  0  2.583756  0  0  -0.190436  -0.170483  0  2.578087  0
O  O89  1  0.10459052  0.92380207  0.27210876  1  0  -0.263922  0  2.345382  0  0  -0.182868  0  2.578791  0  0  -0.200586  0  2.582308  0  0  -0.190711  -0.170424  0  2.576574  0
O  O90  1  0.83269184  0.57628641  0.72815842  1  0  -0.263962  0  2.347342  0  0  -0.183092  0  2.580337  0  0  -0.200822  0  2.583785  0  0  -0.190471  -0.170531  0  2.578113  0
O  O91  1  0.89540869  0.07619886  0.72789056  1  0  -0.263945  0  2.3454  0  0  -0.182885  0  2.578814  0  0  -0.200596  0  2.582324  0  0  -0.190729  -0.170444  0  2.576602  0
