# generated using pymatgen
data_AgH8C5S2(OF)3
_symmetry_space_group_name_H-M   'P 1'
_cell_length_a   7.86394599
_cell_length_b   11.67549419
_cell_length_c   11.96732644
_cell_angle_alpha   114.14365609
_cell_angle_beta   90.00004912
_cell_angle_gamma   89.99981724
_symmetry_Int_Tables_number   1
_chemical_formula_structural   AgH8C5S2(OF)3
_chemical_formula_sum   'Ag4 H32 C20 S8 O12 F12'
_cell_volume   1002.66683605
_cell_formula_units_Z   4
loop_
 _symmetry_equiv_pos_site_id
 _symmetry_equiv_pos_as_xyz
  1  'x, y, z'
loop_
 _atom_site_type_symbol
 _atom_site_label
 _atom_site_symmetry_multiplicity
 _atom_site_fract_x
 _atom_site_fract_y
 _atom_site_fract_z
 _atom_site_occupancy
 _atom_site_hle17_bader_spin_density
 _atom_site_hle17_ddec_charge
 _atom_site_hle17_ddec_spin_density
 _atom_site_hle17_ddec_sum_bond_order
 _atom_site_hle17_magmom
 _atom_site_hse06_10hf_bader_spin_density
 _atom_site_hse06_10hf_ddec_charge
 _atom_site_hse06_10hf_ddec_spin_density
 _atom_site_hse06_10hf_ddec_sum_bond_order
 _atom_site_hse06_10hf_magmom
 _atom_site_hse06_bader_spin_density
 _atom_site_hse06_ddec_charge
 _atom_site_hse06_ddec_spin_density
 _atom_site_hse06_ddec_sum_bond_order
 _atom_site_hse06_magmom
 _atom_site_pbe_bader_spin_density
 _atom_site_pbe_cm5_charge
 _atom_site_pbe_ddec_charge
 _atom_site_pbe_ddec_spin_density
 _atom_site_pbe_ddec_sum_bond_order
 _atom_site_pbe_magmom
Ag  Ag0  1  0.43470057  0.52985768  0.31011348  1  0  0.49762  0  1.496214  0  0  0.395024  0  1.942221  0  0  0.414915  0  1.898009  0  0  0.404684  0.380953  0  1.972914  0
Ag  Ag1  1  0.06530238  0.52985924  0.81011400  1  0  0.497618  0  1.496192  0  0  0.395021  0  1.942196  0  0  0.414912  0  1.897984  0  0  0.404684  0.380947  0  1.972887  0
Ag  Ag2  1  0.56530079  0.47014206  0.68988736  1  0  0.49761  0  1.496225  0  0  0.395017  0  1.942225  0  0  0.414909  0  1.898013  0  0  0.404677  0.380942  0  1.972916  0
Ag  Ag3  1  0.93470025  0.47013956  0.18988646  1  0  0.497628  0  1.496189  0  0  0.395024  0  1.942197  0  0  0.414914  0  1.897984  0  0  0.404689  0.380953  0  1.972889  0
H  H4  1  0.82580895  0.77405319  0.25569280  1  0  0.096599  0  0.949159  0  0  0.111815  0  1.011161  0  0  0.112554  0  1.011724  0  0  0.094979  0.111003  0  1.011291  0
H  H5  1  0.67419074  0.77405262  0.75569003  1  0  0.096574  0  0.949151  0  0  0.11181  0  1.011142  0  0  0.112549  0  1.011703  0  0  0.094959  0.110987  0  1.011285  0
H  H6  1  0.17419240  0.22594655  0.74430720  1  0  0.096597  0  0.949159  0  0  0.111815  0  1.011161  0  0  0.112555  0  1.011723  0  0  0.094971  0.111003  0  1.011291  0
H  H7  1  0.32581061  0.22594618  0.24430793  1  0  0.096587  0  0.949143  0  0  0.111829  0  1.011123  0  0  0.112569  0  1.011685  0  0  0.094972  0.111009  0  1.011263  0
H  H8  1  0.59772881  0.76680525  0.25171500  1  0  0.106421  0  0.953899  0  0  0.122689  0  1.013422  0  0  0.123572  0  1.013889  0  0  0.099279  0.121901  0  1.013374  0
H  H9  1  0.90227091  0.76680791  0.75171782  1  0  0.106445  0  0.953893  0  0  0.122704  0  1.013438  0  0  0.123587  0  1.013904  0  0  0.099292  0.121916  0  1.013389  0
H  H10  1  0.40227254  0.23319449  0.74828500  1  0  0.106423  0  0.953873  0  0  0.122677  0  1.013433  0  0  0.12356  0  1.013899  0  0  0.099272  0.121888  0  1.013385  0
H  H11  1  0.09773045  0.23319277  0.24828172  1  0  0.106486  0  0.95387  0  0  0.122743  0  1.013413  0  0  0.123626  0  1.01388  0  0  0.099306  0.121955  0  1.013365  0
H  H12  1  0.74378875  0.95883642  0.44008321  1  0  0.084362  0  0.931548  0  0  0.101009  0  0.992711  0  0  0.102297  0  0.991951  0  0  0.09211  0.099848  0  0.99352  0
H  H13  1  0.75620014  0.95883754  0.94008366  1  0  0.084342  0  0.931604  0  0  0.100983  0  0.99276  0  0  0.102261  0  0.992011  0  0  0.092089  0.099824  0  0.993567  0
H  H14  1  0.25621134  0.04116332  0.55991679  1  0  0.084361  0  0.931544  0  0  0.101007  0  0.992707  0  0  0.102296  0  0.991946  0  0  0.092108  0.099846  0  0.993516  0
H  H15  1  0.24379739  0.04116314  0.05991588  1  0  0.08436  0  0.931565  0  0  0.101011  0  0.99272  0  0  0.102298  0  0.99196  0  0  0.092111  0.099852  0  0.993528  0
H  H16  1  0.58090255  0.87360561  0.47568746  1  0  0.07773  0  0.93177  0  0  0.096767  0  0.989871  0  0  0.097662  0  0.990169  0  0  0.089563  0.095923  0  0.989937  0
H  H17  1  0.91908933  0.87360918  0.97568981  1  0  0.07776  0  0.93174  0  0  0.096801  0  0.98984  0  0  0.097695  0  0.990137  0  0  0.089577  0.095956  0  0.98991  0
H  H18  1  0.41909753  0.12639319  0.52431217  1  0  0.077736  0  0.931786  0  0  0.096775  0  0.989884  0  0  0.097668  0  0.990185  0  0  0.08957  0.095931  0  0.98995  0
H  H19  1  0.08090948  0.12639150  0.02430973  1  0  0.077745  0  0.931701  0  0  0.096783  0  0.989821  0  0  0.097676  0  0.99012  0  0  0.089571  0.095939  0  0.989888  0
H  H20  1  0.96658308  0.82881353  0.47816333  1  0  0.081731  0  0.93566  0  0  0.099166  0  0.994944  0  0  0.100234  0  0.995095  0  0  0.088445  0.098032  0  0.995291  0
H  H21  1  0.53341029  0.82880954  0.97816078  1  0  0.081753  0  0.935576  0  0  0.099159  0  0.994885  0  0  0.100227  0  0.995037  0  0  0.088439  0.098025  0  0.995234  0
H  H22  1  0.03341700  0.17118715  0.52183621  1  0  0.081737  0  0.935668  0  0  0.099171  0  0.994936  0  0  0.100239  0  0.995088  0  0  0.088453  0.098036  0  0.995283  0
H  H23  1  0.46658852  0.17118927  0.02183801  1  0  0.081756  0  0.935597  0  0  0.099178  0  0.994887  0  0  0.100245  0  0.995039  0  0  0.088442  0.09804  0  0.99524  0
H  H24  1  0.82848317  0.87719912  0.60640613  1  0  0.077942  0  0.94133  0  0  0.092973  0  1.006422  0  0  0.093825  0  1.00633  0  0  0.088099  0.092199  0  1.006706  0
H  H25  1  0.67150821  0.87719817  0.10640487  1  0  0.077955  0  0.941372  0  0  0.093008  0  1.006421  0  0  0.09386  0  1.006331  0  0  0.08815  0.092236  0  1.006704  0
H  H26  1  0.17151691  0.12280155  0.39359341  1  0  0.078008  0  0.941294  0  0  0.093018  0  1.006403  0  0  0.09387  0  1.006312  0  0  0.088117  0.092243  0  1.006689  0
H  H27  1  0.32849187  0.12280157  0.89359430  1  0  0.077935  0  0.941385  0  0  0.092983  0  1.006447  0  0  0.093835  0  1.006356  0  0  0.088131  0.092211  0  1.006728  0
H  H28  1  0.69122808  0.67308589  0.53343929  1  0  0.099955  0  0.970181  0  0  0.116291  0  1.0316  0  0  0.11713  0  1.032215  0  0  0.093887  0.115572  0  1.031294  0
H  H29  1  0.80877180  0.67308744  0.03343910  1  0  0.099974  0  0.970147  0  0  0.116312  0  1.031565  0  0  0.117148  0  1.032185  0  0  0.093902  0.115592  0  1.031261  0
H  H30  1  0.30877200  0.32691385  0.46656072  1  0  0.099958  0  0.970193  0  0  0.116295  0  1.031603  0  0  0.117131  0  1.032221  0  0  0.093885  0.115576  0  1.031296  0
H  H31  1  0.19122956  0.32691324  0.96656128  1  0  0.099964  0  0.970158  0  0  0.116304  0  1.031571  0  0  0.117142  0  1.032188  0  0  0.093903  0.115585  0  1.031264  0
H  H32  1  0.90584560  0.62963513  0.48409738  1  0  0.110527  0  0.950857  0  0  0.125761  0  1.012491  0  0  0.126978  0  1.01246  0  0  0.09952  0.12482  0  1.012528  0
H  H33  1  0.59415634  0.62963287  0.98409556  1  0  0.110533  0  0.950852  0  0  0.125766  0  1.012486  0  0  0.126991  0  1.012448  0  0  0.09952  0.124826  0  1.01252  0
H  H34  1  0.09415703  0.37036555  0.51590299  1  0  0.110529  0  0.950886  0  0  0.125763  0  1.01251  0  0  0.126979  0  1.012481  0  0  0.099505  0.124825  0  1.012541  0
H  H35  1  0.40584374  0.37036687  0.01590277  1  0  0.11052  0  0.950843  0  0  0.125753  0  1.012476  0  0  0.126979  0  1.012436  0  0  0.09952  0.124813  0  1.01251  0
C  C36  1  0.71119224  0.76802608  0.30510515  1  0  -0.127759  0  3.565617  0  0  -0.16732  0  3.823526  0  0  -0.167013  0  3.836374  0  0  -0.145187  -0.167466  0  3.814741  0
C  C37  1  0.78880500  0.76802900  0.80510634  1  0  -0.127751  0  3.56563  0  0  -0.167325  0  3.8235  0  0  -0.167019  0  3.836354  0  0  -0.145186  -0.167464  0  3.814718  0
C  C38  1  0.28880784  0.23197272  0.69489364  1  0  -0.127741  0  3.565591  0  0  -0.167307  0  3.823494  0  0  -0.167  0  3.836339  0  0  -0.145168  -0.167453  0  3.814708  0
C  C39  1  0.21119635  0.23197074  0.19489282  1  0  -0.127824  0  3.565604  0  0  -0.167397  0  3.823484  0  0  -0.167092  0  3.836336  0  0  -0.145212  -0.167538  0  3.814705  0
C  C40  1  0.70928593  0.86635321  0.43690320  1  0  -0.104858  0  3.684183  0  0  -0.14739  0  3.949801  0  0  -0.148543  0  3.963899  0  0  -0.167167  -0.146453  0  3.940116  0
C  C41  1  0.79070721  0.86635519  0.93690401  1  0  -0.104902  0  3.684156  0  0  -0.147438  0  3.949778  0  0  -0.148579  0  3.963871  0  0  -0.167167  -0.146499  0  3.940096  0
C  C42  1  0.29071543  0.13364653  0.56309680  1  0  -0.104897  0  3.684214  0  0  -0.147428  0  3.949811  0  0  -0.14858  0  3.96391  0  0  -0.167192  -0.146491  0  3.940125  0
C  C43  1  0.20929160  0.13364549  0.06309553  1  0  -0.104887  0  3.684082  0  0  -0.147443  0  3.94974  0  0  -0.148594  0  3.963837  0  0  -0.16719  -0.146504  0  3.940058  0
C  C44  1  0.83608120  0.82130010  0.50724017  1  0  -0.104048  0  3.67674  0  0  -0.143624  0  3.939067  0  0  -0.144974  0  3.9539  0  0  -0.168676  -0.14264  0  3.929008  0
C  C45  1  0.66391413  0.82129916  0.00724058  1  0  -0.104071  0  3.676646  0  0  -0.143627  0  3.938968  0  0  -0.144972  0  3.953789  0  0  -0.168727  -0.142641  0  3.928907  0
C  C46  1  0.16391888  0.17869964  0.49275900  1  0  -0.104092  0  3.676769  0  0  -0.143639  0  3.939065  0  0  -0.144983  0  3.953883  0  0  -0.168698  -0.142656  0  3.929009  0
C  C47  1  0.33608468  0.17869964  0.99275905  1  0  -0.104067  0  3.676666  0  0  -0.143619  0  3.93898  0  0  -0.144967  0  3.953808  0  0  -0.168703  -0.142631  0  3.928921  0
C  C48  1  0.79572772  0.68401644  0.47808929  1  0  -0.134466  0  3.549663  0  0  -0.172621  0  3.798117  0  0  -0.172967  0  3.81194  0  0  -0.148989  -0.172352  0  3.788616  0
C  C49  1  0.70427141  0.68401580  0.97808818  1  0  -0.134487  0  3.549617  0  0  -0.172662  0  3.798079  0  0  -0.173015  0  3.8119  0  0  -0.149012  -0.172394  0  3.788581  0
C  C50  1  0.20427363  0.31598330  0.52191071  1  0  -0.134509  0  3.549735  0  0  -0.172691  0  3.798213  0  0  -0.173035  0  3.812036  0  0  -0.149  -0.172422  0  3.788712  0
C  C51  1  0.29572994  0.31598300  0.02191061  1  0  -0.134409  0  3.549573  0  0  -0.172607  0  3.798086  0  0  -0.172958  0  3.811905  0  0  -0.148996  -0.172336  0  3.788587  0
C  C52  1  0.29240384  0.84567648  0.70524017  1  0  0.589066  0  3.686325  0  0  0.522858  0  4.04858  0  0  0.550722  0  4.021849  0  0  0.289117  0.50204  0  4.069641  0
C  C53  1  0.20759113  0.84567544  0.20524057  1  0  0.589396  0  3.68608  0  0  0.523168  0  4.048372  0  0  0.551046  0  4.021609  0  0  0.289257  0.502321  0  4.069479  0
C  C54  1  0.70759752  0.15432420  0.29476021  1  0  0.5891  0  3.686379  0  0  0.522902  0  4.048626  0  0  0.550768  0  4.021891  0  0  0.289131  0.502082  0  4.069692  0
C  C55  1  0.79240768  0.15432336  0.79475990  1  0  0.589196  0  3.686248  0  0  0.522984  0  4.048521  0  0  0.550864  0  4.021753  0  0  0.289182  0.502136  0  4.069628  0
S  S56  1  0.72015375  0.61695955  0.31833233  1  0  0.032763  0  2.877337  0  0  0.092018  0  3.355325  0  0  0.084495  0  3.337479  0  0  -0.021348  0.097119  0  3.36746  0
S  S57  1  0.77984676  0.61695967  0.81833073  1  0  0.032769  0  2.877318  0  0  0.092023  0  3.355327  0  0  0.084498  0  3.337481  0  0  -0.021331  0.097125  0  3.367455  0
S  S58  1  0.27984760  0.38304020  0.68166767  1  0  0.032788  0  2.877341  0  0  0.092042  0  3.355343  0  0  0.084519  0  3.337493  0  0  -0.021315  0.097143  0  3.367475  0
S  S59  1  0.22015460  0.38304007  0.18166844  1  0  0.032713  0  2.877359  0  0  0.091974  0  3.355367  0  0  0.084449  0  3.337522  0  0  -0.021354  0.097076  0  3.3675  0
S  S60  1  0.27874562  0.67817862  0.59441809  1  0  1.122657  0  5.815102  0  0  1.024308  0  6.340981  0  0  1.067796  0  6.321956  0  0  0.485737  0.99413  0  6.354215  0
S  S61  1  0.22124999  0.67817755  0.09441765  1  0  1.122604  0  5.815083  0  0  1.024233  0  6.340979  0  0  1.067721  0  6.321958  0  0  0.485779  0.994065  0  6.354214  0
S  S62  1  0.72125319  0.32182206  0.40558145  1  0  1.122683  0  5.815011  0  0  1.024307  0  6.340899  0  0  1.067796  0  6.321875  0  0  0.485752  0.99413  0  6.354133  0
S  S63  1  0.77875137  0.32182219  0.90558235  1  0  1.122708  0  5.814994  0  0  1.02433  0  6.340881  0  0  1.067816  0  6.321853  0  0  0.485761  0.994161  0  6.354116  0
O  O64  1  0.25286920  0.68565388  0.47623673  1  0  -0.601751  0  2.021668  0  0  -0.561395  0  2.293497  0  0  -0.580522  0  2.277323  0  0  -0.340905  -0.548335  0  2.304551  0
O  O65  1  0.24712941  0.68565408  0.97623764  1  0  -0.601756  0  2.021609  0  0  -0.561392  0  2.293437  0  0  -0.580519  0  2.277265  0  0  -0.34094  -0.548332  0  2.304489  0
O  O66  1  0.74713215  0.31434587  0.52376411  1  0  -0.601765  0  2.021537  0  0  -0.561402  0  2.293367  0  0  -0.58053  0  2.277193  0  0  -0.340909  -0.548341  0  2.30442  0
O  O67  1  0.75286940  0.31434379  0.02376412  1  0  -0.601778  0  2.021527  0  0  -0.561415  0  2.293354  0  0  -0.580542  0  2.27718  0  0  -0.340914  -0.548355  0  2.304407  0
O  O68  1  0.13400545  0.63004926  0.63796229  1  0  -0.607299  0  2.038296  0  0  -0.568158  0  2.304925  0  0  -0.587908  0  2.291732  0  0  -0.330153  -0.554411  0  2.313918  0
O  O69  1  0.36599426  0.63005067  0.13796375  1  0  -0.60732  0  2.038253  0  0  -0.568164  0  2.304873  0  0  -0.587918  0  2.291684  0  0  -0.330167  -0.554417  0  2.313864  0
O  O70  1  0.86599463  0.36995048  0.36203772  1  0  -0.607312  0  2.038363  0  0  -0.568146  0  2.304979  0  0  -0.587899  0  2.291789  0  0  -0.330143  -0.554399  0  2.313971  0
O  O71  1  0.63400583  0.36995095  0.86203867  1  0  -0.607356  0  2.038182  0  0  -0.568176  0  2.304777  0  0  -0.58793  0  2.291589  0  0  -0.330152  -0.554429  0  2.313765  0
O  O72  1  0.44542542  0.62961028  0.60780010  1  0  -0.626503  0  2.097275  0  0  -0.586511  0  2.385784  0  0  -0.605974  0  2.369833  0  0  -0.338014  -0.572952  0  2.396822  0
O  O73  1  0.05457424  0.62960865  0.10779935  1  0  -0.626471  0  2.097446  0  0  -0.586447  0  2.385941  0  0  -0.60589  0  2.36994  0  0  -0.337974  -0.572889  0  2.396978  0
O  O74  1  0.55457593  0.37039040  0.39220027  1  0  -0.626493  0  2.097271  0  0  -0.586489  0  2.385795  0  0  -0.605939  0  2.369817  0  0  -0.338009  -0.572929  0  2.396834  0
O  O75  1  0.94542329  0.37038921  0.89220158  1  0  -0.626479  0  2.09747  0  0  -0.586466  0  2.385986  0  0  -0.605923  0  2.370018  0  0  -0.338  -0.572909  0  2.397024  0
F  F76  1  0.31249304  0.85471981  0.82129180  1  0  -0.225535  0  1.196356  0  0  -0.178478  0  1.35661  0  0  -0.189425  0  1.342693  0  0  -0.08585  -0.167062  0  1.361802  0
F  F77  1  0.18749822  0.85471976  0.32129258  1  0  -0.225587  0  1.196311  0  0  -0.178531  0  1.356586  0  0  -0.189483  0  1.342661  0  0  -0.08587  -0.167108  0  1.361785  0
F  F78  1  0.68750577  0.14527993  0.17870820  1  0  -0.225556  0  1.196355  0  0  -0.17851  0  1.356617  0  0  -0.18946  0  1.342696  0  0  -0.085867  -0.167092  0  1.361808  0
F  F79  1  0.81250059  0.14528092  0.67870863  1  0  -0.22559  0  1.196301  0  0  -0.178544  0  1.356572  0  0  -0.189495  0  1.342644  0  0  -0.085911  -0.167124  0  1.361778  0
F  F80  1  0.15010998  0.91046796  0.70267472  1  0  -0.221894  0  1.212606  0  0  -0.187341  0  1.390517  0  0  -0.1972  0  1.37521  0  0  -0.088629  -0.180672  0  1.401653  0
F  F81  1  0.34988595  0.91046566  0.20267553  1  0  -0.222068  0  1.212615  0  0  -0.187516  0  1.390545  0  0  -0.197378  0  1.375226  0  0  -0.088738  -0.18084  0  1.401693  0
F  F82  1  0.84988883  0.08953366  0.29732687  1  0  -0.221914  0  1.212702  0  0  -0.187364  0  1.390617  0  0  -0.197224  0  1.375308  0  0  -0.08864  -0.180694  0  1.401754  0
F  F83  1  0.65011286  0.08953220  0.79732289  1  0  -0.221939  0  1.212643  0  0  -0.187382  0  1.390558  0  0  -0.197246  0  1.37524  0  0  -0.088645  -0.180706  0  1.401703  0
F  F84  1  0.42730670  0.90310688  0.67862748  1  0  -0.22324  0  1.205163  0  0  -0.187815  0  1.381448  0  0  -0.197635  0  1.366075  0  0  -0.090494  -0.181173  0  1.392565  0
F  F85  1  0.07268923  0.90310615  0.17862626  1  0  -0.223327  0  1.20514  0  0  -0.187898  0  1.381437  0  0  -0.197724  0  1.366059  0  0  -0.090537  -0.181248  0  1.392567  0
F  F86  1  0.57269211  0.09689380  0.32137206  1  0  -0.223247  0  1.205148  0  0  -0.18782  0  1.381428  0  0  -0.197643  0  1.366055  0  0  -0.090503  -0.181178  0  1.392547  0
F  F87  1  0.92730958  0.09689265  0.82137337  1  0  -0.223278  0  1.205226  0  0  -0.187852  0  1.381513  0  0  -0.197677  0  1.366133  0  0  -0.090511  -0.181202  0  1.392643  0
