# generated using pymatgen
data_CdH7C8NO5
_symmetry_space_group_name_H-M   'P 1'
_cell_length_a   6.94794805
_cell_length_b   10.43415822
_cell_length_c   12.78217649
_cell_angle_alpha   90.34084112
_cell_angle_beta   90.00005484
_cell_angle_gamma   89.99836772
_symmetry_Int_Tables_number   1
_chemical_formula_structural   CdH7C8NO5
_chemical_formula_sum   'Cd4 H28 C32 N4 O20'
_cell_volume   926.64013358
_cell_formula_units_Z   4
loop_
 _symmetry_equiv_pos_site_id
 _symmetry_equiv_pos_as_xyz
  1  'x, y, z'
loop_
 _atom_site_type_symbol
 _atom_site_label
 _atom_site_symmetry_multiplicity
 _atom_site_fract_x
 _atom_site_fract_y
 _atom_site_fract_z
 _atom_site_occupancy
 _atom_site_pbe_bader_charge
 _atom_site_pbe_bader_spin_density
 _atom_site_pbe_cm5_charge
 _atom_site_pbe_ddec_charge
 _atom_site_pbe_ddec_spin_density
 _atom_site_pbe_ddec_sum_bond_order
 _atom_site_pbe_magmom
Cd  Cd0  1  0.19673619  0.54424006  0.61470935  1  1.255876  0  0.775835  0.971819  0  2.027734  0
Cd  Cd1  1  0.69673044  0.95576504  0.88528830  1  1.25587  0  0.775833  0.971826  0  2.02772  0
Cd  Cd2  1  0.80326646  0.45576301  0.38529099  1  1.255854  0  0.775834  0.971832  0  2.027759  0
Cd  Cd3  1  0.30326646  0.04423324  0.11470889  1  1.255875  0  0.775841  0.971855  0  2.027703  0
H  H4  1  0.36486154  0.82851277  0.37992172  1  0.140302  0  0.11671  0.139588  0  0.97828  0
H  H5  1  0.86486751  0.67148683  0.12007778  1  0.140657  0  0.116675  0.139562  0  0.978261  0
H  H6  1  0.63511665  0.17148838  0.62007549  1  0.140536  0  0.116679  0.139616  0  0.978258  0
H  H7  1  0.13515097  0.32851241  0.87992880  1  0.140666  0  0.116676  0.139604  0  0.978251  0
H  H8  1  0.38156437  0.23790976  0.34434047  1  0.089974  0  0.105974  0.113515  0  1.053561  0
H  H9  1  0.88157163  0.26208822  0.15566085  1  0.089892  0  0.105988  0.113516  0  1.053593  0
H  H10  1  0.61842821  0.76209140  0.65566065  1  0.089921  0  0.105996  0.113511  0  1.053535  0
H  H11  1  0.11843535  0.73790719  0.84433867  1  0.089975  0  0.106002  0.11355  0  1.053613  0
H  H12  1  0.13695168  0.07385215  0.62255602  1  0.111144  0  0.107413  0.115757  0  1.014268  0
H  H13  1  0.63697602  0.42615348  0.87743892  1  0.110807  0  0.107374  0.115644  0  1.014213  0
H  H14  1  0.86303227  0.92614709  0.37744196  1  0.11081  0  0.107399  0.115719  0  1.014248  0
H  H15  1  0.36304535  0.57385343  0.12256144  1  0.110928  0  0.107412  0.115792  0  1.014172  0
H  H16  1  0.54651140  0.92902837  0.24847015  1  0.455354  0  0.319102  0.322181  0  0.894573  0
H  H17  1  0.04651168  0.57096421  0.25153610  1  0.455294  0  0.319065  0.322201  0  0.894671  0
H  H18  1  0.45348550  0.07097662  0.75153412  1  0.455277  0  0.319067  0.322164  0  0.894605  0
H  H19  1  0.95350825  0.42902736  0.74846575  1  0.455543  0  0.319095  0.322108  0  0.894664  0
H  H20  1  0.61045641  0.08262840  0.25955846  1  0.466723  0  0.299507  0.304586  0  0.966304  0
H  H21  1  0.11045762  0.41736168  0.24044765  1  0.466612  0  0.299562  0.304672  0  0.966116  0
H  H22  1  0.38953329  0.91737564  0.74044502  1  0.466751  0  0.29954  0.304612  0  0.966266  0
H  H23  1  0.88954935  0.58262893  0.75955811  1  0.466762  0  0.299506  0.304586  0  0.966292  0
H  H24  1  0.54720831  0.58115392  0.74165287  1  0.639973  0  0.289543  0.391027  0  0.94519  0
H  H25  1  0.04720169  0.91884597  0.75834354  1  0.639915  0  0.289544  0.39102  0  0.945205  0
H  H26  1  0.45279867  0.41884724  0.25834903  1  0.63998  0  0.289562  0.391039  0  0.945177  0
H  H27  1  0.95279089  0.08114943  0.24165599  1  0.639963  0  0.289529  0.391008  0  0.94524  0
H  H28  1  0.60343630  0.56165387  0.62195581  1  0.641685  0  0.28633  0.39131  0  0.945529  0
H  H29  1  0.10343136  0.93834439  0.87804183  1  0.64172  0  0.286351  0.391359  0  0.94547  0
H  H30  1  0.39656492  0.43834825  0.37804609  1  0.641694  0  0.286322  0.391313  0  0.945521  0
H  H31  1  0.89656554  0.06165198  0.12195770  1  0.641697  0  0.286326  0.391346  0  0.945493  0
C  C32  1  0.20367845  0.81985270  0.56815667  1  1.537601  0  0.205543  0.570477  0  4.220553  0
C  C33  1  0.70368725  0.68014873  0.93183946  1  1.537655  0  0.205517  0.57047  0  4.22054  0
C  C34  1  0.79630981  0.18014750  0.43184210  1  1.538493  0  0.205463  0.570281  0  4.220768  0
C  C35  1  0.29632692  0.31985051  0.06816165  1  1.537538  0  0.205612  0.570496  0  4.22043  0
C  C36  1  0.24216167  0.93874427  0.50618588  1  0.026671  0  -0.017043  -0.024637  0  3.99431  0
C  C37  1  0.74218216  0.56125705  0.99381134  1  0.026888  0  -0.016929  -0.024497  0  3.994233  0
C  C38  1  0.75781652  0.06125401  0.49381131  1  0.026908  0  -0.016947  -0.024531  0  3.994255  0
C  C39  1  0.25784209  0.43874602  0.00619292  1  0.027137  0  -0.017037  -0.024547  0  3.994107  0
C  C40  1  0.33210259  0.92451641  0.40882962  1  -0.038039  0  -0.07485  -0.166416  0  3.881424  0
C  C41  1  0.83211072  0.57548055  0.09116882  1  -0.038511  0  -0.074807  -0.166379  0  3.881531  0
C  C42  1  0.66787992  0.07548475  0.59116915  1  -0.038495  0  -0.074776  -0.166402  0  3.881351  0
C  C43  1  0.16790057  0.42451869  0.90883307  1  -0.038706  0  -0.074735  -0.16637  0  3.881311  0
C  C44  1  0.38721146  0.03258066  0.35278902  1  0.239473  0  0.080381  0.261259  0  4.043315  0
C  C45  1  0.88721563  0.46741839  0.14721157  1  0.239824  0  0.080355  0.261205  0  4.04354  0
C  C46  1  0.61277824  0.96742049  0.64721132  1  0.239445  0  0.080289  0.261139  0  4.043576  0
C  C47  1  0.11279278  0.53257893  0.85279188  1  0.240113  0  0.080329  0.261219  0  4.043391  0
C  C48  1  0.34095889  0.15467004  0.38993133  1  -0.022772  0  -0.088958  -0.184863  0  3.912031  0
C  C49  1  0.84096895  0.34532896  0.11006888  1  -0.022566  0  -0.088985  -0.18483  0  3.912077  0
C  C50  1  0.65903081  0.84533303  0.61007058  1  -0.022742  0  -0.08898  -0.184816  0  3.912143  0
C  C51  1  0.15904090  0.65467028  0.88992988  1  -0.022751  0  -0.088913  -0.184815  0  3.911904  0
C  C52  1  0.25138496  0.16930617  0.48720896  1  0.02133  0  -0.018775  -0.019278  0  3.990218  0
C  C53  1  0.75140510  0.33069564  0.01278740  1  0.021018  0  -0.018794  -0.019346  0  3.990266  0
C  C54  1  0.74859755  0.83069498  0.51278903  1  0.021242  0  -0.018763  -0.019373  0  3.990227  0
C  C55  1  0.24861195  0.66930360  0.98721371  1  0.021371  0  -0.018778  -0.019278  0  3.990283  0
C  C56  1  0.21835865  0.29997619  0.53182379  1  1.519631  0  0.199046  0.573583  0  4.198172  0
C  C57  1  0.71837107  0.20002548  0.96817649  1  1.519866  0  0.199112  0.573631  0  4.198171  0
C  C58  1  0.78162962  0.70002305  0.46817576  1  1.520009  0  0.199099  0.573621  0  4.19818  0
C  C59  1  0.28164166  0.79997759  0.03181994  1  1.520282  0  0.199147  0.573733  0  4.197918  0
C  C60  1  0.20407687  0.06116175  0.54622769  1  0.001098  0  -0.081261  -0.125459  0  3.945058  0
C  C61  1  0.70410485  0.43884056  0.95376856  1  0.001434  0  -0.081316  -0.12539  0  3.944871  0
C  C62  1  0.79589988  0.93883940  0.45377108  1  0.001387  0  -0.081312  -0.125409  0  3.945156  0
C  C63  1  0.29591651  0.56116251  0.04622944  1  0.001136  0  -0.081384  -0.125713  0  3.94531  0
N  N64  1  0.49545259  0.02030845  0.25807319  1  -1.158667  0  -0.60309  -0.604661  0  3.379575  0
N  N65  1  0.99545137  0.47968437  0.24192981  1  -1.158951  0  -0.603085  -0.604763  0  3.379689  0
N  N66  1  0.50453856  0.97969366  0.74192871  1  -1.158687  0  -0.603046  -0.604598  0  3.379534  0
N  N67  1  0.00455848  0.52031200  0.75807363  1  -1.1595  0  -0.60311  -0.604565  0  3.379495  0
O  O68  1  0.17045845  0.82558781  0.66583477  1  -1.211079  0  -0.324611  -0.591123  0  2.220481  0
O  O69  1  0.67046462  0.67441288  0.83416342  1  -1.211151  0  -0.324644  -0.591174  0  2.22048  0
O  O70  1  0.82953845  0.17441047  0.33416790  1  -1.211454  0  -0.324611  -0.591072  0  2.22063  0
O  O71  1  0.32955819  0.32558540  0.16583690  1  -1.211068  0  -0.324706  -0.591161  0  2.220409  0
O  O72  1  0.21492406  0.71431396  0.51644249  1  -1.134327  0  -0.325935  -0.541326  0  2.276038  0
O  O73  1  0.71492166  0.78568867  0.98355530  1  -1.134304  0  -0.325902  -0.541329  0  2.275967  0
O  O74  1  0.78506852  0.28568528  0.48355784  1  -1.134787  0  -0.325925  -0.541278  0  2.276063  0
O  O75  1  0.28507236  0.21431152  0.01644816  1  -1.1343  0  -0.32591  -0.541338  0  2.275993  0
O  O76  1  0.23191781  0.39939376  0.47120476  1  -1.179057  0  -0.335814  -0.602689  0  2.223928  0
O  O77  1  0.73193845  0.10060858  0.02879300  1  -1.179032  0  -0.335806  -0.602658  0  2.224102  0
O  O78  1  0.76807045  0.60060835  0.52879401  1  -1.179078  0  -0.335845  -0.602691  0  2.22409  0
O  O79  1  0.26806708  0.89939162  0.97120029  1  -1.179221  0  -0.335876  -0.602776  0  2.223951  0
O  O80  1  0.18183079  0.31187175  0.62804959  1  -1.148508  0  -0.322472  -0.534035  0  2.145286  0
O  O81  1  0.68181836  0.18813104  0.87194962  1  -1.148603  0  -0.322515  -0.534069  0  2.145137  0
O  O82  1  0.81816467  0.68812653  0.37194995  1  -1.148711  0  -0.322482  -0.534026  0  2.145236  0
O  O83  1  0.31819293  0.81187683  0.12804214  1  -1.14907  0  -0.322479  -0.534073  0  2.145187  0
O  O84  1  0.50778180  0.53599084  0.67642748  1  -1.254377  0  -0.592548  -0.760606  0  2.037309  0
O  O85  1  0.00777326  0.96401010  0.82356860  1  -1.254292  0  -0.592616  -0.760696  0  2.037193  0
O  O86  1  0.49222230  0.46401223  0.32357521  1  -1.25439  0  -0.592554  -0.760628  0  2.037277  0
O  O87  1  0.99222076  0.03598531  0.17642858  1  -1.254387  0  -0.592558  -0.760669  0  2.037198  0
