# generated using pymatgen
data_CuPH28C28IN2
_symmetry_space_group_name_H-M   'P 1'
_cell_length_a   9.32484248
_cell_length_b   13.07146366
_cell_length_c   14.58037632
_cell_angle_alpha   107.21976627
_cell_angle_beta   101.10149286
_cell_angle_gamma   107.59090297
_symmetry_Int_Tables_number   1
_chemical_formula_structural   CuPH28C28IN2
_chemical_formula_sum   'Cu2 P2 H56 C56 I2 N4'
_cell_volume   1538.57805372
_cell_formula_units_Z   2
loop_
 _symmetry_equiv_pos_site_id
 _symmetry_equiv_pos_as_xyz
  1  'x, y, z'
loop_
 _atom_site_type_symbol
 _atom_site_label
 _atom_site_symmetry_multiplicity
 _atom_site_fract_x
 _atom_site_fract_y
 _atom_site_fract_z
 _atom_site_occupancy
 _atom_site_hle17_bader_spin_density
 _atom_site_hle17_ddec_charge
 _atom_site_hle17_ddec_spin_density
 _atom_site_hle17_ddec_sum_bond_order
 _atom_site_hle17_magmom
 _atom_site_hse06_10hf_bader_spin_density
 _atom_site_hse06_10hf_ddec_charge
 _atom_site_hse06_10hf_ddec_spin_density
 _atom_site_hse06_10hf_ddec_sum_bond_order
 _atom_site_hse06_10hf_magmom
 _atom_site_hse06_bader_spin_density
 _atom_site_hse06_ddec_charge
 _atom_site_hse06_ddec_spin_density
 _atom_site_hse06_ddec_sum_bond_order
 _atom_site_hse06_magmom
 _atom_site_pbe_bader_spin_density
 _atom_site_pbe_cm5_charge
 _atom_site_pbe_ddec_charge
 _atom_site_pbe_ddec_spin_density
 _atom_site_pbe_ddec_sum_bond_order
 _atom_site_pbe_magmom
Cu  Cu0  1  0.52640236  0.61895037  0.52933043  1  0  0.15894  0  2.30849  0  0  0.08183  0  2.786519  0  0  0.083317  0  2.742755  0  0  0.330233  0.083963  0  2.81346  0
Cu  Cu1  1  0.47359008  0.38104717  0.47066747  1  0  0.158882  0  2.308414  0  0  0.081849  0  2.786446  0  0  0.083312  0  2.742663  0  0  0.330275  0.083974  0  2.813445  0
P  P2  1  0.69778365  0.75377649  0.49833036  1  0  0.306279  0  3.748549  0  0  0.239077  0  4.209594  0  0  0.257542  0  4.195827  0  0  -0.038117  0.226544  0  4.218037  0
P  P3  1  0.30221006  0.24622365  0.50166427  1  0  0.306389  0  3.748593  0  0  0.239141  0  4.209723  0  0  0.257606  0  4.195916  0  0  -0.038059  0.226596  0  4.218227  0
H  H4  1  0.78634298  0.55531311  0.45096575  1  0  0.080516  0  1.001361  0  0  0.083782  0  1.08054  0  0  0.087284  0  1.077898  0  0  0.085977  0.081131  0  1.082573  0
H  H5  1  0.21365051  0.44468012  0.54902838  1  0  0.080549  0  1.0013  0  0  0.083814  0  1.08047  0  0  0.087318  0  1.077826  0  0  0.085986  0.081164  0  1.082498  0
H  H6  1  0.86688613  0.85673389  0.37328923  1  0  0.081896  0  0.995001  0  0  0.090352  0  1.063373  0  0  0.092039  0  1.064342  0  0  0.093203  0.089119  0  1.062782  0
H  H7  1  0.13311993  0.14326464  0.62671122  1  0  0.081906  0  0.995062  0  0  0.090367  0  1.063425  0  0  0.092054  0  1.064397  0  0  0.093225  0.089132  0  1.062837  0
H  H8  1  0.66892565  0.85208554  0.69246551  1  0  0.080268  0  0.991985  0  0  0.088395  0  1.062812  0  0  0.091225  0  1.061059  0  0  0.094137  0.086378  0  1.064076  0
H  H9  1  0.33107189  0.14791550  0.30753735  1  0  0.080282  0  0.992024  0  0  0.088414  0  1.062842  0  0  0.091248  0  1.06109  0  0  0.094157  0.086396  0  1.064112  0
H  H10  1  0.67905902  0.11915542  0.46246516  1  0  0.08372  0  0.959686  0  0  0.096043  0  1.019291  0  0  0.09796  0  1.019974  0  0  0.097449  0.094704  0  1.018892  0
H  H11  1  0.32094657  0.88085086  0.53753319  1  0  0.083661  0  0.959817  0  0  0.095998  0  1.019392  0  0  0.097914  0  1.020077  0  0  0.097419  0.09466  0  1.018989  0
H  H12  1  0.78914840  0.01002944  0.54817495  1  0  0.084866  0  0.977778  0  0  0.094137  0  1.04374  0  0  0.095961  0  1.044572  0  0  0.095446  0.092858  0  1.043155  0
H  H13  1  0.21085283  0.98997681  0.45182494  1  0  0.084898  0  0.97768  0  0  0.094093  0  1.043738  0  0  0.095917  0  1.044567  0  0  0.095426  0.092814  0  1.04315  0
H  H14  1  0.22386918  0.64995663  0.49076727  1  0  0.071736  0  0.977564  0  0  0.076886  0  1.049448  0  0  0.079588  0  1.04751  0  0  0.101822  0.074715  0  1.051181  0
H  H15  1  0.77612279  0.35004867  0.50922922  1  0  0.071782  0  0.977553  0  0  0.076917  0  1.049436  0  0  0.079619  0  1.047502  0  0  0.101841  0.074748  0  1.05117  0
H  H16  1  0.05184684  0.71162812  0.58801622  1  0  0.104393  0  0.981885  0  0  0.112574  0  1.048149  0  0  0.114984  0  1.049059  0  0  0.102268  0.110763  0  1.047781  0
H  H17  1  0.94815577  0.28837642  0.41198817  1  0  0.104455  0  0.98183  0  0  0.112577  0  1.048164  0  0  0.114983  0  1.04908  0  0  0.102275  0.110766  0  1.047796  0
H  H18  1  0.39567475  0.76463770  0.85933488  1  0  0.116113  0  0.934853  0  0  0.123499  0  0.993688  0  0  0.128027  0  0.991104  0  0  0.11144  0.12019  0  0.995815  0
H  H19  1  0.60431988  0.23535555  0.14066282  1  0  0.116092  0  0.934859  0  0  0.123495  0  0.99368  0  0  0.128003  0  0.99112  0  0  0.111405  0.120185  0  0.995809  0
H  H20  1  0.55176183  0.69436334  0.74971539  1  0  0.071817  0  0.965335  0  0  0.078762  0  1.03194  0  0  0.082227  0  1.028613  0  0  0.099787  0.076102  0  1.034542  0
H  H21  1  0.44823608  0.30563425  0.25028248  1  0  0.071877  0  0.965398  0  0  0.078804  0  1.032007  0  0  0.082267  0  1.028684  0  0  0.099833  0.076144  0  1.03461  0
H  H22  1  0.95985372  0.49698963  0.35279610  1  0  0.080974  0  0.982349  0  0  0.089132  0  1.048666  0  0  0.091026  0  1.049792  0  0  0.089793  0.087801  0  1.047943  0
H  H23  1  0.04014620  0.50300970  0.64720384  1  0  0.081006  0  0.982236  0  0  0.089159  0  1.048564  0  0  0.091053  0  1.049691  0  0  0.08981  0.087828  0  1.047841  0
H  H24  1  0.04853911  0.89561103  0.56169970  1  0  0.083204  0  0.98849  0  0  0.092741  0  1.055994  0  0  0.094787  0  1.056406  0  0  0.096213  0.09129  0  1.055707  0
H  H25  1  0.95145361  0.10438911  0.43830236  1  0  0.083159  0  0.988487  0  0  0.092702  0  1.055983  0  0  0.094745  0  1.056393  0  0  0.096194  0.091252  0  1.055696  0
H  H26  1  0.23658308  0.03896325  0.72689167  1  0  0.088233  0  0.961365  0  0  0.099675  0  1.018771  0  0  0.101896  0  1.019136  0  0  0.099935  0.098117  0  1.018514  0
H  H27  1  0.76340543  0.96103512  0.27310736  1  0  0.088233  0  0.961322  0  0  0.099643  0  1.018775  0  0  0.101864  0  1.01914  0  0  0.099928  0.098086  0  1.018518  0
H  H28  1  0.14130197  0.09303537  0.87578317  1  0  0.086177  0  0.94336  0  0  0.100575  0  0.995329  0  0  0.103443  0  0.99401  0  0  0.103269  0.098515  0  0.996332  0
H  H29  1  0.85869646  0.90696741  0.12422026  1  0  0.086189  0  0.943246  0  0  0.100537  0  0.995288  0  0  0.103404  0  0.993969  0  0  0.103247  0.098475  0  0.996294  0
H  H30  1  0.85430207  0.00164623  0.85685180  1  0  0.082836  0  0.963857  0  0  0.096541  0  1.019781  0  0  0.098898  0  1.019319  0  0  0.100363  0.094912  0  1.020125  0
H  H31  1  0.14569240  0.99835306  0.14315023  1  0  0.08286  0  0.963908  0  0  0.096544  0  1.019842  0  0  0.098901  0  1.019382  0  0  0.100391  0.094914  0  1.020184  0
H  H32  1  0.03660589  0.79826866  0.27475198  1  0  0.084641  0  0.958045  0  0  0.094783  0  1.020382  0  0  0.097039  0  1.020667  0  0  0.096753  0.093184  0  1.020253  0
H  H33  1  0.96341142  0.20173687  0.72525372  1  0  0.084656  0  0.958091  0  0  0.094774  0  1.020451  0  0  0.097027  0  1.020738  0  0  0.096745  0.093175  0  1.020323  0
H  H34  1  0.08450517  0.61719944  0.26485939  1  0  0.086457  0  0.956173  0  0  0.096043  0  1.020216  0  0  0.098803  0  1.0191  0  0  0.097788  0.094024  0  1.021068  0
H  H35  1  0.91550470  0.38279999  0.73514655  1  0  0.086461  0  0.956105  0  0  0.096023  0  1.020192  0  0  0.098779  0  1.019081  0  0  0.097769  0.094016  0  1.021031  0
H  H36  1  0.98637896  0.75657578  0.74474513  1  0  0.057246  0  0.972633  0  0  0.064706  0  1.045912  0  0  0.067195  0  1.044817  0  0  0.093085  0.062746  0  1.046972  0
H  H37  1  0.01361924  0.24342440  0.25525689  1  0  0.057285  0  0.972577  0  0  0.064716  0  1.045879  0  0  0.067207  0  1.044782  0  0  0.0931  0.062757  0  1.046936  0
H  H38  1  0.43426343  0.68794643  0.32423337  1  0  0.084872  0  0.984476  0  0  0.093375  0  1.052571  0  0  0.096804  0  1.050401  0  0  0.086172  0.090842  0  1.054204  0
H  H39  1  0.56573451  0.31205979  0.67576680  1  0  0.084819  0  0.984415  0  0  0.09329  0  1.05255  0  0  0.096718  0  1.050381  0  0  0.086127  0.090758  0  1.054181  0
H  H40  1  0.32639446  0.79806486  0.23639470  1  0  0.080499  0  0.961008  0  0  0.092177  0  1.020578  0  0  0.095109  0  1.019143  0  0  0.096971  0.090126  0  1.021585  0
H  H41  1  0.67359907  0.20193701  0.76360311  1  0  0.080433  0  0.961056  0  0  0.092137  0  1.0206  0  0  0.09507  0  1.019166  0  0  0.096953  0.090086  0  1.021607  0
H  H42  1  0.44947597  0.01401474  0.30498827  1  0  0.082369  0  0.961113  0  0  0.094904  0  1.019677  0  0  0.097051  0  1.019348  0  0  0.096346  0.093411  0  1.019874  0
H  H43  1  0.55052372  0.98599063  0.69501120  1  0  0.082408  0  0.960978  0  0  0.094926  0  1.019563  0  0  0.097075  0  1.019228  0  0  0.096342  0.093435  0  1.019761  0
H  H44  1  0.14625131  0.79529207  0.06595808  1  0  0.057841  0  0.93407  0  0  0.075333  0  0.997467  0  0  0.076227  0  0.997086  0  0  0.085711  0.074604  0  0.99782  0
H  H45  1  0.85375217  0.20470557  0.93404527  1  0  0.057838  0  0.934073  0  0  0.075349  0  0.997442  0  0  0.076245  0  0.997057  0  0  0.085732  0.074621  0  0.997794  0
H  H46  1  0.94143641  0.76195343  0.04586555  1  0  0.058119  0  0.945044  0  0  0.077739  0  1.003991  0  0  0.078158  0  1.00457  0  0  0.086937  0.077311  0  1.003723  0
H  H47  1  0.05856618  0.23804248  0.95413723  1  0  0.058147  0  0.945008  0  0  0.077735  0  1.003995  0  0  0.078142  0  1.004589  0  0  0.086914  0.07731  0  1.003723  0
H  H48  1  0.08422802  0.61881473  0.91205764  1  0  0.064406  0  0.933738  0  0  0.083961  0  0.990276  0  0  0.084537  0  0.991238  0  0  0.086778  0.083485  0  0.989703  0
H  H49  1  0.91577654  0.38118292  0.08794515  1  0  0.064341  0  0.933771  0  0  0.083903  0  0.990347  0  0  0.084481  0  0.991307  0  0  0.08674  0.083434  0  0.989767  0
H  H50  1  0.88038546  0.58220803  0.89526927  1  0  0.057511  0  0.9345  0  0  0.07668  0  0.994017  0  0  0.077507  0  0.994582  0  0  0.079825  0.075995  0  0.993669  0
H  H51  1  0.11961977  0.41778877  0.10473405  1  0  0.057399  0  0.934537  0  0  0.076617  0  0.994036  0  0  0.077443  0  0.994603  0  0  0.079806  0.075933  0  0.993689  0
H  H52  1  0.91679632  0.56347586  0.06363045  1  0  0.055603  0  0.930687  0  0  0.077311  0  0.985811  0  0  0.077735  0  0.986824  0  0  0.085149  0.076939  0  0.985162  0
H  H53  1  0.08321069  0.43652441  0.93637538  1  0  0.055553  0  0.930706  0  0  0.077295  0  0.985807  0  0  0.077719  0  0.98682  0  0  0.085187  0.076923  0  0.985157  0
H  H54  1  0.12305211  0.61065209  0.08618768  1  0  0.049731  0  0.933192  0  0  0.071912  0  0.990552  0  0  0.072158  0  0.991182  0  0  0.083228  0.071624  0  0.990222  0
H  H55  1  0.87695552  0.38934732  0.91381525  1  0  0.04966  0  0.933261  0  0  0.071872  0  0.990597  0  0  0.072114  0  0.991233  0  0  0.083236  0.071565  0  0.990287  0
H  H56  1  0.06161846  0.91161116  0.97916141  1  0  0.050573  0  0.930183  0  0  0.070757  0  0.990404  0  0  0.070217  0  0.990835  0  0  0.097469  0.07103  0  0.990131  0
H  H57  1  0.93839029  0.08838825  0.02084371  1  0  0.050576  0  0.930204  0  0  0.070757  0  0.990423  0  0  0.070217  0  0.990853  0  0  0.097481  0.07103  0  0.990152  0
H  H58  1  0.91097498  0.78542627  0.88036428  1  0  0.041223  0  0.93605  0  0  0.056685  0  1.002724  0  0  0.057953  0  1.001905  0  0  0.086984  0.055526  0  1.003572  0
H  H59  1  0.08902522  0.21457135  0.11964004  1  0  0.041147  0  0.936144  0  0  0.05665  0  1.002791  0  0  0.057894  0  1.001995  0  0  0.086962  0.055497  0  1.003634  0
C  C60  1  0.81670173  0.71042469  0.41955710  1  0  -0.089456  0  3.73824  0  0  -0.045733  0  3.968139  0  0  -0.052963  0  3.99421  0  0  -0.027705  -0.041068  0  3.950593  0
C  C61  1  0.18329556  0.28957376  0.58044230  1  0  -0.089493  0  3.738378  0  0  -0.045781  0  3.968258  0  0  -0.053008  0  3.99431  0  0  -0.027771  -0.041121  0  3.950743  0
C  C62  1  0.84188692  0.60816195  0.41225242  1  0  -0.077277  0  3.741158  0  0  -0.093369  0  3.976636  0  0  -0.094426  0  3.998848  0  0  -0.089733  -0.092446  0  3.961661  0
C  C63  1  0.15811122  0.39183392  0.58774570  1  0  -0.077364  0  3.741283  0  0  -0.093426  0  3.976722  0  0  -0.094483  0  3.998934  0  0  -0.089728  -0.092499  0  3.961742  0
C  C64  1  0.88685832  0.77782110  0.36901362  1  0  -0.078267  0  3.754684  0  0  -0.096465  0  3.990519  0  0  -0.097259  0  4.013309  0  0  -0.089634  -0.095725  0  3.974961  0
C  C65  1  0.11314728  0.22217655  0.63098517  1  0  -0.078282  0  3.754761  0  0  -0.096484  0  3.990572  0  0  -0.09728  0  4.013365  0  0  -0.089641  -0.095744  0  3.975012  0
C  C66  1  0.84579052  0.86406014  0.61592504  1  0  -0.08996  0  3.754889  0  0  -0.045572  0  3.986293  0  0  -0.051598  0  4.011008  0  0  -0.026304  -0.041755  0  3.969754  0
C  C67  1  0.15420347  0.13593828  0.38407396  1  0  -0.090003  0  3.754872  0  0  -0.045567  0  3.986199  0  0  -0.051598  0  4.010916  0  0  -0.026332  -0.041745  0  3.969662  0
C  C68  1  0.79310231  0.89487433  0.70015676  1  0  -0.086806  0  3.767191  0  0  -0.108464  0  4.015263  0  0  -0.109508  0  4.036412  0  0  -0.090191  -0.107727  0  4.001042  0
C  C69  1  0.20689501  0.10512412  0.29984539  1  0  -0.086799  0  3.767388  0  0  -0.108463  0  4.015429  0  0  -0.109512  0  4.036585  0  0  -0.090228  -0.107721  0  4.001191  0
C  C70  1  0.62658277  0.02467244  0.43090099  1  0  -0.065158  0  3.769847  0  0  -0.076587  0  4.017829  0  0  -0.079363  0  4.040165  0  0  -0.090946  -0.074707  0  4.002583  0
C  C71  1  0.37342190  0.97533211  0.56909474  1  0  -0.065185  0  3.769872  0  0  -0.076613  0  4.017848  0  0  -0.079392  0  4.040189  0  0  -0.090869  -0.074733  0  4.002603  0
C  C72  1  0.62091378  0.84139356  0.44089666  1  0  -0.086182  0  3.732968  0  0  -0.043447  0  3.9685  0  0  -0.049849  0  3.994019  0  0  -0.025648  -0.039351  0  3.951333  0
C  C73  1  0.37908806  0.15861183  0.55909964  1  0  -0.08619  0  3.733243  0  0  -0.043476  0  3.968757  0  0  -0.049829  0  3.994207  0  0  -0.025713  -0.03938  0  3.9516  0
C  C74  1  0.68832331  0.96298507  0.47957174  1  0  -0.079448  0  3.748228  0  0  -0.099178  0  3.990495  0  0  -0.100335  0  4.01327  0  0  -0.087774  -0.098224  0  3.975033  0
C  C75  1  0.31167966  0.03702033  0.52042744  1  0  -0.079427  0  3.748236  0  0  -0.099094  0  3.99053  0  0  -0.100267  0  4.013294  0  0  -0.08777  -0.098139  0  3.975066  0
C  C76  1  0.25905960  0.67761835  0.57276785  1  0  0.113554  0  3.688682  0  0  0.087535  0  3.933045  0  0  0.094437  0  3.948152  0  0  0.035769  0.082899  0  3.923646  0
C  C77  1  0.74094249  0.32238532  0.42723145  1  0  0.113367  0  3.688687  0  0  0.087366  0  3.933052  0  0  0.094269  0  3.948158  0  0  0.035683  0.082731  0  3.923659  0
C  C78  1  0.16427021  0.71267260  0.62745763  1  0  -0.151101  0  3.704356  0  0  -0.168637  0  3.947688  0  0  -0.175829  0  3.967871  0  0  -0.080562  -0.164246  0  3.934724  0
C  C79  1  0.83573457  0.28733195  0.37254497  1  0  -0.15106  0  3.704322  0  0  -0.168575  0  3.947642  0  0  -0.175766  0  3.967825  0  0  -0.080506  -0.164183  0  3.934684  0
C  C80  1  0.21211604  0.74596354  0.73255810  1  0  0.095747  0  3.778899  0  0  0.108915  0  4.012791  0  0  0.11395  0  4.03208  0  0  0.007333  0.105467  0  4.000069  0
C  C81  1  0.78788389  0.25403580  0.26744253  1  0  0.095741  0  3.778727  0  0  0.108976  0  4.012515  0  0  0.114015  0  4.031793  0  0  0.007341  0.105526  0  3.999799  0
C  C82  1  0.35612863  0.74163636  0.77798403  1  0  -0.139088  0  3.700078  0  0  -0.156044  0  3.938971  0  0  -0.163031  0  3.958887  0  0  -0.075756  -0.151705  0  3.926021  0
C  C83  1  0.64386754  0.25836207  0.22201455  1  0  -0.139078  0  3.699991  0  0  -0.156083  0  3.938856  0  0  -0.163053  0  3.958784  0  0  -0.07574  -0.15174  0  3.925904  0
C  C84  1  0.44252034  0.70353110  0.71789331  1  0  0.105455  0  3.711507  0  0  0.079951  0  3.955276  0  0  0.085362  0  3.973029  0  0  0.032799  0.076372  0  3.943985  0
C  C85  1  0.55747447  0.29646905  0.28210213  1  0  0.105381  0  3.71154  0  0  0.079909  0  3.955329  0  0  0.08532  0  3.973077  0  0  0.032755  0.07633  0  3.944044  0
C  C86  1  0.93819940  0.57532337  0.35684221  1  0  -0.07169  0  3.764879  0  0  -0.079837  0  4.004234  0  0  -0.083484  0  4.027485  0  0  -0.094994  -0.077255  0  3.988191  0
C  C87  1  0.06180311  0.42467253  0.64315506  1  0  -0.071734  0  3.764798  0  0  -0.079877  0  4.00414  0  0  -0.083524  0  4.027389  0  0  -0.095029  -0.077295  0  3.988099  0
C  C88  1  0.00590611  0.91771774  0.62649308  1  0  -0.082466  0  3.751367  0  0  -0.103732  0  3.994267  0  0  -0.104668  0  4.015797  0  0  -0.088064  -0.102897  0  3.979598  0
C  C89  1  0.99408550  0.08228238  0.37350815  1  0  -0.082355  0  3.751208  0  0  -0.103615  0  3.994063  0  0  -0.104551  0  4.015607  0  0  -0.087983  -0.102778  0  3.979383  0
C  C90  1  0.11187510  0.99938264  0.71984869  1  0  -0.067883  0  3.764845  0  0  -0.076289  0  4.008164  0  0  -0.078659  0  4.029172  0  0  -0.088816  -0.074595  0  3.993689  0
C  C91  1  0.88811297  0.00061918  0.28015052  1  0  -0.067992  0  3.764744  0  0  -0.076391  0  4.008086  0  0  -0.078762  0  4.02909  0  0  -0.088917  -0.0747  0  3.993616  0
C  C92  1  0.05813096  0.02982613  0.80295286  1  0  -0.064573  0  3.768341  0  0  -0.079836  0  4.016421  0  0  -0.08088  0  4.037549  0  0  -0.086955  -0.078893  0  4.001762  0
C  C93  1  0.94186527  0.97017663  0.19704962  1  0  -0.064519  0  3.768114  0  0  -0.079726  0  4.016177  0  0  -0.08077  0  4.037309  0  0  -0.086893  -0.078785  0  4.00152  0
C  C94  1  0.89789665  0.97813536  0.79264110  1  0  -0.075738  0  3.785896  0  0  -0.087842  0  4.035743  0  0  -0.090914  0  4.05882  0  0  -0.092155  -0.085672  0  4.019872  0
C  C95  1  0.10210024  0.02186654  0.20736192  1  0  -0.075768  0  3.78592  0  0  -0.087864  0  4.035767  0  0  -0.090935  0  4.05884  0  0  -0.092148  -0.085692  0  4.019896  0
C  C96  1  0.98256067  0.74457475  0.31331078  1  0  -0.078757  0  3.777687  0  0  -0.088491  0  4.022498  0  0  -0.091705  0  4.044624  0  0  -0.095096  -0.086285  0  4.007315  0
C  C97  1  0.01744783  0.25542207  0.68669156  1  0  -0.078747  0  3.777722  0  0  -0.08846  0  4.022507  0  0  -0.091672  0  4.044632  0  0  -0.095049  -0.086252  0  4.00733  0
C  C98  1  0.00889541  0.64340269  0.30750276  1  0  -0.065829  0  3.767655  0  0  -0.080131  0  4.013681  0  0  -0.080871  0  4.034562  0  0  -0.089504  -0.079405  0  3.999296  0
C  C99  1  0.99111199  0.35659412  0.69249876  1  0  -0.065777  0  3.767604  0  0  -0.080067  0  4.013625  0  0  -0.080803  0  4.034513  0  0  -0.089495  -0.07935  0  3.999237  0
C  C100  1  0.10669980  0.77381947  0.79001834  1  0  0.094856  0  3.723543  0  0  0.063479  0  3.979731  0  0  0.069002  0  3.994022  0  0  0.066682  0.059455  0  3.970644  0
C  C101  1  0.89329256  0.22617374  0.20997359  1  0  0.094713  0  3.724011  0  0  0.063372  0  3.980136  0  0  0.068894  0  3.994427  0  0  0.066669  0.05935  0  3.971053  0
C  C102  1  0.48896386  0.78254135  0.35339688  1  0  -0.079088  0  3.748271  0  0  -0.09734  0  3.985747  0  0  -0.098646  0  4.007732  0  0  -0.08939  -0.096331  0  3.970952  0
C  C103  1  0.51103424  0.21746314  0.64659943  1  0  -0.078969  0  3.748077  0  0  -0.097176  0  3.985574  0  0  -0.098497  0  4.007543  0  0  -0.089288  -0.096168  0  3.970781  0
C  C104  1  0.42848103  0.84455422  0.30453136  1  0  -0.07963  0  3.789038  0  0  -0.08933  0  4.03308  0  0  -0.09242  0  4.055225  0  0  -0.094359  -0.087181  0  4.017853  0
C  C105  1  0.57151682  0.15544767  0.69546217  1  0  -0.079646  0  3.78899  0  0  -0.089369  0  4.033026  0  0  -0.092462  0  4.055176  0  0  -0.094408  -0.087219  0  4.017802  0
C  C106  1  0.49755636  0.96572031  0.34290988  1  0  -0.06776  0  3.771409  0  0  -0.081291  0  4.018034  0  0  -0.082213  0  4.039262  0  0  -0.091282  -0.080436  0  4.003315  0
C  C107  1  0.50244568  0.03428335  0.65708529  1  0  -0.067771  0  3.771278  0  0  -0.081296  0  4.017931  0  0  -0.082218  0  4.039159  0  0  -0.09129  -0.080443  0  4.003216  0
C  C108  1  0.02998535  0.75339155  0.00705680  1  0  -0.121487  0  3.704087  0  0  -0.162042  0  3.968253  0  0  -0.163322  0  3.982582  0  0  -0.163627  -0.160996  0  3.958303  0
C  C109  1  0.97001835  0.24660437  0.99294680  1  0  -0.121562  0  3.704163  0  0  -0.162094  0  3.968385  0  0  -0.163366  0  3.982708  0  0  -0.163649  -0.161049  0  3.958437  0
C  C110  1  0.99783795  0.62547361  0.95319971  1  0  -0.106984  0  3.700957  0  0  -0.143728  0  3.958365  0  0  -0.145277  0  3.974196  0  0  -0.170359  -0.142464  0  3.947375  0
C  C111  1  0.00216637  0.37452576  0.04680145  1  0  -0.106836  0  3.700789  0  0  -0.143679  0  3.958363  0  0  -0.145227  0  3.97419  0  0  -0.170352  -0.142419  0  3.947368  0
C  C112  1  0.00824140  0.56246685  0.02566130  1  0  -0.101152  0  3.711197  0  0  -0.139867  0  3.974426  0  0  -0.140962  0  3.990571  0  0  -0.16606  -0.138939  0  3.963173  0
C  C113  1  0.99176381  0.43752994  0.97434065  1  0  -0.100864  0  3.711071  0  0  -0.139628  0  3.974364  0  0  -0.140721  0  3.990506  0  0  -0.16597  -0.13869  0  3.963116  0
C  C114  1  0.03022897  0.81878247  0.93551030  1  0  0.014985  0  3.735997  0  0  -0.037098  0  4.009464  0  0  -0.033602  0  4.022006  0  0  -0.070926  -0.039153  0  4.000815  0
C  C115  1  0.96977451  0.18121518  0.06449373  1  0  0.015136  0  3.736134  0  0  -0.036974  0  4.009598  0  0  -0.033461  0  4.022142  0  0  -0.070868  -0.03904  0  4.000956  0
I  I116  1  0.30968068  0.46219078  0.35695371  1  0  -0.447125  0  1.369066  0  0  -0.400716  0  1.752058  0  0  -0.416564  0  1.720011  0  0  -0.218639  -0.388741  0  1.772667  0
I  I117  1  0.69032270  0.53781117  0.64304323  1  0  -0.447132  0  1.369022  0  0  -0.400732  0  1.752026  0  0  -0.416581  0  1.719982  0  0  -0.218627  -0.388757  0  1.772637  0
N  N118  1  0.39630720  0.67178766  0.61627522  1  0  -0.253153  0  3.349201  0  0  -0.177654  0  3.624411  0  0  -0.188947  0  3.634237  0  0  -0.35705  -0.171373  0  3.618551  0
N  N119  1  0.60369044  0.32821165  0.38371896  1  0  -0.253048  0  3.348965  0  0  -0.177569  0  3.624196  0  0  -0.188858  0  3.634006  0  0  -0.357006  -0.171289  0  3.618359  0
N  N120  1  0.14930615  0.80880968  0.88633083  1  0  -0.291665  0  3.015772  0  0  -0.251591  0  3.292105  0  0  -0.262211  0  3.305754  0  0  -0.323525  -0.244635  0  3.283061  0
N  N121  1  0.85069335  0.19118448  0.11367043  1  0  -0.291613  0  3.016254  0  0  -0.251568  0  3.292586  0  0  -0.262186  0  3.306228  0  0  -0.323568  -0.244611  0  3.283547  0
