# generated using pymatgen
data_CdH20C17N4O5
_symmetry_space_group_name_H-M   'P 1'
_cell_length_a   9.00059060
_cell_length_b   9.28038542
_cell_length_c   10.95759916
_cell_angle_alpha   96.16240757
_cell_angle_beta   90.00022653
_cell_angle_gamma   89.99988172
_symmetry_Int_Tables_number   1
_chemical_formula_structural   CdH20C17N4O5
_chemical_formula_sum   'Cd2 H40 C34 N8 O10'
_cell_volume   909.98792339
_cell_formula_units_Z   2
loop_
 _symmetry_equiv_pos_site_id
 _symmetry_equiv_pos_as_xyz
  1  'x, y, z'
loop_
 _atom_site_type_symbol
 _atom_site_label
 _atom_site_symmetry_multiplicity
 _atom_site_fract_x
 _atom_site_fract_y
 _atom_site_fract_z
 _atom_site_occupancy
 _atom_site_hle17_bader_spin_density
 _atom_site_hle17_ddec_charge
 _atom_site_hle17_ddec_spin_density
 _atom_site_hle17_ddec_sum_bond_order
 _atom_site_hle17_magmom
 _atom_site_hse06_10hf_bader_spin_density
 _atom_site_hse06_10hf_ddec_charge
 _atom_site_hse06_10hf_ddec_spin_density
 _atom_site_hse06_10hf_ddec_sum_bond_order
 _atom_site_hse06_10hf_magmom
 _atom_site_hse06_bader_spin_density
 _atom_site_hse06_ddec_charge
 _atom_site_hse06_ddec_spin_density
 _atom_site_hse06_ddec_sum_bond_order
 _atom_site_hse06_magmom
 _atom_site_pbe_bader_spin_density
 _atom_site_pbe_cm5_charge
 _atom_site_pbe_ddec_charge
 _atom_site_pbe_ddec_spin_density
 _atom_site_pbe_ddec_sum_bond_order
 _atom_site_pbe_magmom
Cd  Cd0  1  0.67690729  0.46319110  0.44992838  1  0  1.112162  0  1.732622  0  0  0.913079  0  2.192287  0  0  0.971396  0  2.139381  0  0  0.777458  0.871566  0  2.228271  0
Cd  Cd1  1  0.32309229  0.96319023  0.94992965  1  0  1.112113  0  1.732695  0  0  0.913017  0  2.192368  0  0  0.971332  0  2.139466  0  0  0.777432  0.871513  0  2.228369  0
H  H2  1  0.08702151  0.59045439  0.49034778  1  0  0.30672  0  0.945635  0  0  0.286068  0  1.012698  0  0  0.295503  0  1.004533  0  0  0.295869  0.280235  0  1.017778  0
H  H3  1  0.91297682  0.09045334  0.99034584  1  0  0.306722  0  0.94561  0  0  0.286075  0  1.012654  0  0  0.295511  0  1.004491  0  0  0.29588  0.280247  0  1.017719  0
H  H4  1  0.08837928  0.33861909  0.41245970  1  0  0.307777  0  0.944244  0  0  0.287167  0  1.011662  0  0  0.296267  0  1.003905  0  0  0.298244  0.281468  0  1.016593  0
H  H5  1  0.91162149  0.83862159  0.91246043  1  0  0.307779  0  0.944231  0  0  0.287166  0  1.011657  0  0  0.296266  0  1.0039  0  0  0.298252  0.281467  0  1.016585  0
H  H6  1  0.53709532  0.94443108  0.19055316  1  0  0.086583  0  0.927931  0  0  0.096579  0  0.987819  0  0  0.098967  0  0.985857  0  0  0.119795  0.094789  0  0.989171  0
H  H7  1  0.46290526  0.44442644  0.69055219  1  0  0.086603  0  0.927862  0  0  0.096605  0  0.987747  0  0  0.098991  0  0.985787  0  0  0.11979  0.094812  0  0.989096  0
H  H8  1  0.52679771  0.84357930  0.39506528  1  0  0.122676  0  0.95959  0  0  0.13063  0  1.022426  0  0  0.13429  0  1.021175  0  0  0.109735  0.128086  0  1.023065  0
H  H9  1  0.47320296  0.34357898  0.89506563  1  0  0.122666  0  0.959585  0  0  0.130607  0  1.02242  0  0  0.134266  0  1.021172  0  0  0.10975  0.128066  0  1.023066  0
H  H10  1  0.06515238  0.74532528  0.32272627  1  0  0.105801  0  0.965727  0  0  0.115658  0  1.028261  0  0  0.118471  0  1.028181  0  0  0.106259  0.11351  0  1.02859  0
H  H11  1  0.93484704  0.24532963  0.82272760  1  0  0.105832  0  0.965715  0  0  0.115691  0  1.028241  0  0  0.118505  0  1.02816  0  0  0.106248  0.113539  0  1.028571  0
H  H12  1  0.09554090  0.84560755  0.12021005  1  0  0.076514  0  0.960354  0  0  0.083792  0  1.028088  0  0  0.086333  0  1.025946  0  0  0.112889  0.08172  0  1.029993  0
H  H13  1  0.90446067  0.34560761  0.62021001  1  0  0.076527  0  0.960305  0  0  0.083798  0  1.028049  0  0  0.08634  0  1.025908  0  0  0.112886  0.081736  0  1.029933  0
H  H14  1  0.38968164  0.71394527  0.53786709  1  0  0.102423  0  0.929271  0  0  0.11518  0  0.991515  0  0  0.117416  0  0.989129  0  0  0.116836  0.114144  0  0.99192  0
H  H15  1  0.61031981  0.21394625  0.03786562  1  0  0.102424  0  0.929249  0  0  0.115185  0  0.991491  0  0  0.117421  0  0.9891  0  0  0.116826  0.114152  0  0.991901  0
H  H16  1  0.21575523  0.80295464  0.56077294  1  0  0.077942  0  0.927482  0  0  0.095438  0  0.98741  0  0  0.095345  0  0.988847  0  0  0.110065  0.095177  0  0.986506  0
H  H17  1  0.78424503  0.30295427  0.06077556  1  0  0.077986  0  0.9274  0  0  0.095415  0  0.987403  0  0  0.09532  0  0.988841  0  0  0.110081  0.095156  0  0.986497  0
H  H18  1  0.21762862  0.12845394  0.33953486  1  0  0.076328  0  0.927033  0  0  0.093944  0  0.986022  0  0  0.094126  0  0.986885  0  0  0.109732  0.093352  0  0.985688  0
H  H19  1  0.78237113  0.62845664  0.83953428  1  0  0.076393  0  0.926994  0  0  0.093997  0  0.98597  0  0  0.094179  0  0.986833  0  0  0.109755  0.093406  0  0.985632  0
H  H20  1  0.39104388  0.21765457  0.36489179  1  0  0.102597  0  0.931172  0  0  0.114809  0  0.994212  0  0  0.117111  0  0.991712  0  0  0.117039  0.113542  0  0.994858  0
H  H21  1  0.60895470  0.71765429  0.86488856  1  0  0.10263  0  0.931204  0  0  0.114837  0  0.994235  0  0  0.117137  0  0.991738  0  0  0.117046  0.11357  0  0.994882  0
H  H22  1  0.09182910  0.06453503  0.77363645  1  0  0.077637  0  0.958582  0  0  0.085853  0  1.025602  0  0  0.088427  0  1.023254  0  0  0.113898  0.0838  0  1.027577  0
H  H23  1  0.90817269  0.56453473  0.27363637  1  0  0.0776  0  0.958574  0  0  0.085819  0  1.025598  0  0  0.088392  0  1.023248  0  0  0.113893  0.083774  0  1.027564  0
H  H24  1  0.06159272  0.16449916  0.57081060  1  0  0.104991  0  0.96466  0  0  0.116149  0  1.025548  0  0  0.118934  0  1.025294  0  0  0.106684  0.113943  0  1.026131  0
H  H25  1  0.93840789  0.66450098  0.07081079  1  0  0.105014  0  0.964662  0  0  0.116178  0  1.025549  0  0  0.118968  0  1.025282  0  0  0.10669  0.113974  0  1.026132  0
H  H26  1  0.53140292  0.10017918  0.51261808  1  0  0.124525  0  0.965009  0  0  0.132382  0  1.026931  0  0  0.136108  0  1.025756  0  0  0.109483  0.129724  0  1.027698  0
H  H27  1  0.46859864  0.60018176  0.01261683  1  0  0.124528  0  0.965015  0  0  0.132385  0  1.026933  0  0  0.136113  0  1.025751  0  0  0.109486  0.129728  0  1.027702  0
H  H28  1  0.54149180  0.99913335  0.71741606  1  0  0.081902  0  0.936632  0  0  0.091136  0  0.998873  0  0  0.093554  0  0.996684  0  0  0.117498  0.089307  0  1.00046  0
H  H29  1  0.45850991  0.49913566  0.21741512  1  0  0.081935  0  0.936601  0  0  0.09116  0  0.998864  0  0  0.093577  0  0.996676  0  0  0.117494  0.089332  0  1.00045  0
H  H30  1  0.94944803  0.91413779  0.53919694  1  0  0.118448  0  0.968967  0  0  0.137249  0  1.033944  0  0  0.138825  0  1.034769  0  0  0.090467  0.136181  0  1.033232  0
H  H31  1  0.05055078  0.41413859  0.03919273  1  0  0.118434  0  0.968958  0  0  0.137219  0  1.033963  0  0  0.138795  0  1.034789  0  0  0.090459  0.136155  0  1.033243  0
H  H32  1  0.94959399  0.84112448  0.68200590  1  0  0.137285  0  0.95233  0  0  0.153297  0  1.017512  0  0  0.156091  0  1.016449  0  0  0.095392  0.151216  0  1.018448  0
H  H33  1  0.05040566  0.34112421  0.18200433  1  0  0.137279  0  0.952382  0  0  0.153284  0  1.017559  0  0  0.156078  0  1.016496  0  0  0.095388  0.151202  0  1.018497  0
H  H34  1  0.79504837  0.94736270  0.64098406  1  0  0.12833  0  0.946132  0  0  0.146886  0  1.005692  0  0  0.149183  0  1.005072  0  0  0.090648  0.145229  0  1.006105  0
H  H35  1  0.20494864  0.44736108  0.14098196  1  0  0.128342  0  0.946205  0  0  0.146891  0  1.005761  0  0  0.149188  0  1.005142  0  0  0.090646  0.145237  0  1.006174  0
H  H36  1  0.86472815  0.04443311  0.20491794  1  0  0.139983  0  0.955955  0  0  0.154662  0  1.022598  0  0  0.157592  0  1.021561  0  0  0.096842  0.152478  0  1.023501  0
H  H37  1  0.13527002  0.54443254  0.70491863  1  0  0.139983  0  0.95589  0  0  0.154652  0  1.022551  0  0  0.157582  0  1.021515  0  0  0.09682  0.152469  0  1.023453  0
H  H38  1  0.79629197  0.95722159  0.33004532  1  0  0.130357  0  0.942063  0  0  0.151639  0  0.996611  0  0  0.153933  0  0.996136  0  0  0.094078  0.150155  0  0.996641  0
H  H39  1  0.20370704  0.45722062  0.83004474  1  0  0.130354  0  0.942102  0  0  0.15165  0  0.996629  0  0  0.153944  0  0.996154  0  0  0.094082  0.150164  0  0.996662  0
H  H40  1  0.98064975  0.03199658  0.33446387  1  0  0.114563  0  0.98095  0  0  0.129732  0  1.049507  0  0  0.131819  0  1.049565  0  0  0.084983  0.128379  0  1.049269  0
H  H41  1  0.01935129  0.53199728  0.83446338  1  0  0.114534  0  0.980969  0  0  0.129703  0  1.049532  0  0  0.131791  0  1.049588  0  0  0.08496  0.128348  0  1.04929  0
C  C42  1  0.43509104  0.89824645  0.22340048  1  0  0.143103  0  3.696361  0  0  0.110568  0  3.953733  0  0  0.118768  0  3.971309  0  0  0.053366  0.105196  0  3.941208  0
C  C43  1  0.56490870  0.39824487  0.72339737  1  0  0.14306  0  3.696351  0  0  0.110493  0  3.953734  0  0  0.118691  0  3.971312  0  0  0.053343  0.105127  0  3.941201  0
C  C44  1  0.42840181  0.84400895  0.33703591  1  0  -0.166776  0  3.691979  0  0  -0.185149  0  3.942479  0  0  -0.193371  0  3.96385  0  0  -0.080422  -0.1799  0  3.927281  0
C  C45  1  0.57159637  0.34401062  0.83703401  1  0  -0.166691  0  3.69199  0  0  -0.185007  0  3.942443  0  0  -0.193229  0  3.963817  0  0  -0.080369  -0.17977  0  3.927258  0
C  C46  1  0.29459185  0.78700731  0.37537150  1  0  0.129192  0  3.702708  0  0  0.143493  0  3.942263  0  0  0.147555  0  3.965  0  0  0.012977  0.141187  0  3.926382  0
C  C47  1  0.70540441  0.28700551  0.87536882  1  0  0.129177  0  3.70292  0  0  0.143468  0  3.942442  0  0  0.14753  0  3.96518  0  0  0.012929  0.141164  0  3.926565  0
C  C48  1  0.17213525  0.78780520  0.29659542  1  0  -0.181202  0  3.733599  0  0  -0.197047  0  3.979655  0  0  -0.205592  0  4.00225  0  0  -0.090047  -0.191277  0  3.963849  0
C  C49  1  0.82786507  0.28780647  0.79659706  1  0  -0.181356  0  3.733638  0  0  -0.197205  0  3.979698  0  0  -0.205751  0  4.002293  0  0  -0.090098  -0.191433  0  3.963891  0
C  C50  1  0.18785167  0.84284777  0.18441963  1  0  0.115829  0  3.748634  0  0  0.086069  0  3.99986  0  0  0.092934  0  4.019419  0  0  0.038806  0.08164  0  3.986055  0
C  C51  1  0.81214688  0.34284906  0.68441848  1  0  0.115979  0  3.748647  0  0  0.086222  0  3.999864  0  0  0.093089  0  4.019419  0  0  0.03894  0.08179  0  3.986064  0
C  C52  1  0.27950875  0.72622136  0.49762365  1  0  0.00524  0  3.678223  0  0  -0.058131  0  3.93288  0  0  -0.053332  0  3.941378  0  0  -0.056087  -0.060746  0  3.925683  0
C  C53  1  0.72049266  0.22622496  0.99762240  1  0  0.005316  0  3.678089  0  0  -0.058016  0  3.932729  0  0  -0.05321  0  3.941223  0  0  -0.056042  -0.060642  0  3.925546  0
C  C54  1  0.27988334  0.46502468  0.45177575  1  0  0.723876  0  3.923065  0  0  0.650804  0  4.229367  0  0  0.686021  0  4.223979  0  0  0.328534  0.627611  0  4.2321  0
C  C55  1  0.72012624  0.96502426  0.95177926  1  0  0.723672  0  3.923385  0  0  0.650605  0  4.229669  0  0  0.685826  0  4.224279  0  0  0.328408  0.627412  0  4.232403  0
C  C56  1  0.28079789  0.20369645  0.40443072  1  0  0.007841  0  3.675191  0  0  -0.055554  0  3.930196  0  0  -0.0506  0  3.938221  0  0  -0.055192  -0.058065  0  3.923279  0
C  C57  1  0.71920091  0.70369708  0.90442975  1  0  0.007712  0  3.675217  0  0  -0.055664  0  3.930187  0  0  -0.050707  0  3.938207  0  0  -0.055201  -0.058174  0  3.923269  0
C  C58  1  0.18586833  0.07474954  0.71247098  1  0  0.115115  0  3.751657  0  0  0.083987  0  4.004896  0  0  0.09094  0  4.024357  0  0  0.038879  0.079549  0  3.990939  0
C  C59  1  0.81413314  0.57475264  0.21247088  1  0  0.115282  0  3.751543  0  0  0.084149  0  4.004772  0  0  0.091104  0  4.024232  0  0  0.038955  0.079703  0  3.990808  0
C  C60  1  0.17032236  0.12954794  0.60021741  1  0  -0.181701  0  3.73304  0  0  -0.19852  0  3.979231  0  0  -0.207021  0  4.001818  0  0  -0.090889  -0.192777  0  3.963411  0
C  C61  1  0.82967957  0.62954776  0.10021617  1  0  -0.181704  0  3.733171  0  0  -0.198542  0  3.979343  0  0  -0.207042  0  4.001931  0  0  -0.090834  -0.192799  0  3.963527  0
C  C62  1  0.29530952  0.14020014  0.52559770  1  0  0.128613  0  3.700183  0  0  0.143885  0  3.938367  0  0  0.147919  0  3.961031  0  0  0.013303  0.141599  0  3.922317  0
C  C63  1  0.70469092  0.64020234  0.02559900  1  0  0.128571  0  3.700285  0  0  0.143855  0  3.938434  0  0  0.147887  0  3.961101  0  0  0.013235  0.141564  0  3.922391  0
C  C64  1  0.43136296  0.09232014  0.56767032  1  0  -0.16581  0  3.690534  0  0  -0.183742  0  3.939409  0  0  -0.191972  0  3.960579  0  0  -0.081258  -0.178388  0  3.924337  0
C  C65  1  0.56863778  0.59231930  0.06766909  1  0  -0.165749  0  3.690412  0  0  -0.183676  0  3.939262  0  0  -0.191905  0  3.960433  0  0  -0.081222  -0.178326  0  3.924203  0
C  C66  1  0.43774399  0.03785984  0.68118610  1  0  0.143761  0  3.701929  0  0  0.111461  0  3.958064  0  0  0.119732  0  3.975624  0  0  0.052422  0.106099  0  3.945465  0
C  C67  1  0.56225630  0.53786009  0.18118403  1  0  0.143657  0  3.701886  0  0  0.111359  0  3.957999  0  0  0.119628  0  3.975561  0  0  0.052385  0.105988  0  3.945407  0
C  C68  1  0.80645429  0.73010256  0.54590507  1  0  0.726496  0  3.876374  0  0  0.690294  0  4.163466  0  0  0.723163  0  4.157905  0  0  0.18942  0.667769  0  4.166913  0
C  C69  1  0.19354605  0.23010314  0.04590403  1  0  0.726601  0  3.876296  0  0  0.690327  0  4.163477  0  0  0.723194  0  4.157918  0  0  0.189422  0.667799  0  4.166931  0
C  C70  1  0.80382125  0.19145435  0.35990717  1  0  0.72756  0  3.874317  0  0  0.690872  0  4.161145  0  0  0.723748  0  4.155558  0  0  0.1908  0.668314  0  4.164684  0
C  C71  1  0.19617624  0.69145260  0.85990887  1  0  0.727556  0  3.874287  0  0  0.6909  0  4.161069  0  0  0.723773  0  4.155485  0  0  0.190852  0.668352  0  4.164591  0
C  C72  1  0.87822847  0.86719685  0.60603967  1  0  -0.448023  0  3.668415  0  0  -0.521044  0  3.899823  0  0  -0.528094  0  3.90271  0  0  -0.251224  -0.515883  0  3.89766  0
C  C73  1  0.12177076  0.36719646  0.10603740  1  0  -0.448051  0  3.66857  0  0  -0.521027  0  3.899966  0  0  -0.528075  0  3.902854  0  0  -0.251203  -0.515866  0  3.8978  0
C  C74  1  0.86567721  0.04694603  0.30555756  1  0  -0.449617  0  3.667221  0  0  -0.519743  0  3.896768  0  0  -0.527041  0  3.899193  0  0  -0.251526  -0.51449  0  3.894735  0
C  C75  1  0.13432366  0.54694438  0.80555906  1  0  -0.449567  0  3.667228  0  0  -0.519708  0  3.896765  0  0  -0.527002  0  3.899188  0  0  -0.251487  -0.51445  0  3.894724  0
N  N76  1  0.31736191  0.89647023  0.14775178  1  0  -0.338583  0  3.278391  0  0  -0.261281  0  3.543986  0  0  -0.282093  0  3.563761  0  0  -0.333643  -0.246824  0  3.530342  0
N  N77  1  0.68264079  0.39646955  0.64775004  1  0  -0.338666  0  3.278607  0  0  -0.261353  0  3.544191  0  0  -0.282163  0  3.563966  0  0  -0.3337  -0.246899  0  3.530542  0
N  N78  1  0.20183286  0.58824346  0.48662744  1  0  -0.499458  0  3.293351  0  0  -0.437606  0  3.547853  0  0  -0.45912  0  3.551682  0  0  -0.439177  -0.424533  0  3.545067  0
N  N79  1  0.79816435  0.08824694  0.98662644  1  0  -0.499511  0  3.293425  0  0  -0.437656  0  3.547908  0  0  -0.459178  0  3.551739  0  0  -0.43922  -0.424585  0  3.54512  0
N  N80  1  0.20264957  0.34137188  0.41837837  1  0  -0.494692  0  3.291096  0  0  -0.434181  0  3.547543  0  0  -0.455877  0  3.55229  0  0  -0.438606  -0.421058  0  3.54423  0
N  N81  1  0.79734900  0.84137238  0.91837582  1  0  -0.49462  0  3.291161  0  0  -0.43412  0  3.547594  0  0  -0.455815  0  3.552339  0  0  -0.438595  -0.420992  0  3.544274  0
N  N82  1  0.31762983  0.03063121  0.75307051  1  0  -0.337305  0  3.281709  0  0  -0.259595  0  3.547676  0  0  -0.280386  0  3.567049  0  0  -0.33387  -0.245076  0  3.53412  0
N  N83  1  0.68237194  0.53063344  0.25306900  1  0  -0.337395  0  3.281697  0  0  -0.259681  0  3.547669  0  0  -0.280472  0  3.567042  0  0  -0.333949  -0.245155  0  3.534106  0
O  O84  1  0.41973527  0.46579703  0.45091106  1  0  -0.666914  0  2.041405  0  0  -0.599443  0  2.310947  0  0  -0.624332  0  2.296617  0  0  -0.334952  -0.582556  0  2.320009  0
O  O85  1  0.58026541  0.96579574  0.95091222  1  0  -0.66687  0  2.041361  0  0  -0.599371  0  2.310857  0  0  -0.62427  0  2.296539  0  0  -0.334901  -0.582485  0  2.319928  0
O  O86  1  0.66618793  0.72176161  0.53770284  1  0  -0.648443  0  1.904858  0  0  -0.592281  0  2.133762  0  0  -0.61911  0  2.124793  0  0  -0.335632  -0.573986  0  2.138788  0
O  O87  1  0.33381239  0.22176088  0.03770215  1  0  -0.648497  0  1.904859  0  0  -0.592308  0  2.133798  0  0  -0.619136  0  2.124829  0  0  -0.335622  -0.574008  0  2.138831  0
O  O88  1  0.89210868  0.62497303  0.50477650  1  0  -0.686487  0  1.956717  0  0  -0.623136  0  2.191857  0  0  -0.651303  0  2.181985  0  0  -0.343775  -0.603222  0  2.19773  0
O  O89  1  0.10789169  0.12497483  0.00477346  1  0  -0.686511  0  1.956702  0  0  -0.623125  0  2.191861  0  0  -0.651292  0  2.18199  0  0  -0.343773  -0.603202  0  2.197728  0
O  O90  1  0.66391489  0.20581981  0.37031980  1  0  -0.65168  0  1.923528  0  0  -0.593217  0  2.154964  0  0  -0.620809  0  2.146197  0  0  -0.335116  -0.574432  0  2.159991  0
O  O91  1  0.33608374  0.70581675  0.87032184  1  0  -0.651712  0  1.923428  0  0  -0.593275  0  2.154892  0  0  -0.620853  0  2.146094  0  0  -0.335172  -0.574493  0  2.15992  0
O  O92  1  0.89405307  0.29594918  0.39132281  1  0  -0.685432  0  1.952476  0  0  -0.623043  0  2.187052  0  0  -0.650375  0  2.176934  0  0  -0.34097  -0.603713  0  2.193461  0
O  O93  1  0.10594658  0.79594866  0.89132341  1  0  -0.685412  0  1.952545  0  0  -0.623028  0  2.187098  0  0  -0.650369  0  2.176997  0  0  -0.340961  -0.603706  0  2.193519  0
