# generated using pymatgen
data_HgH9C8I2NO2
_symmetry_space_group_name_H-M   'P 1'
_cell_length_a   4.28869913
_cell_length_b   12.26390632
_cell_length_c   24.40718652
_cell_angle_alpha   89.99990921
_cell_angle_beta   89.99939418
_cell_angle_gamma   93.59654709
_symmetry_Int_Tables_number   1
_chemical_formula_structural   HgH9C8I2NO2
_chemical_formula_sum   'Hg4 H36 C32 I8 N4 O8'
_cell_volume   1281.19708755
_cell_formula_units_Z   4
loop_
 _symmetry_equiv_pos_site_id
 _symmetry_equiv_pos_as_xyz
  1  'x, y, z'
loop_
 _atom_site_type_symbol
 _atom_site_label
 _atom_site_symmetry_multiplicity
 _atom_site_fract_x
 _atom_site_fract_y
 _atom_site_fract_z
 _atom_site_occupancy
 _atom_site_hle17_bader_spin_density
 _atom_site_hle17_ddec_charge
 _atom_site_hle17_ddec_spin_density
 _atom_site_hle17_ddec_sum_bond_order
 _atom_site_hle17_magmom
 _atom_site_hse06_10hf_bader_spin_density
 _atom_site_hse06_10hf_ddec_charge
 _atom_site_hse06_10hf_ddec_spin_density
 _atom_site_hse06_10hf_ddec_sum_bond_order
 _atom_site_hse06_10hf_magmom
 _atom_site_hse06_bader_spin_density
 _atom_site_hse06_ddec_charge
 _atom_site_hse06_ddec_spin_density
 _atom_site_hse06_ddec_sum_bond_order
 _atom_site_hse06_magmom
 _atom_site_pbe_bader_spin_density
 _atom_site_pbe_cm5_charge
 _atom_site_pbe_ddec_charge
 _atom_site_pbe_ddec_spin_density
 _atom_site_pbe_ddec_sum_bond_order
 _atom_site_pbe_magmom
Hg  Hg0  1  0.82561516  0.94745866  0.91015972  1  0  0.486282  0  2.242229  0  0  0.37492  0  2.718434  0  0  0.418954  0  2.694835  0  0  0.335188  0.34498  0  2.735294  0
Hg  Hg1  1  0.67435709  0.55253771  0.41016060  1  0  0.486277  0  2.242266  0  0  0.374923  0  2.718473  0  0  0.418959  0  2.694873  0  0  0.335155  0.344986  0  2.735332  0
Hg  Hg2  1  0.17438651  0.05255430  0.08984587  1  0  0.486305  0  2.242212  0  0  0.374949  0  2.718391  0  0  0.418986  0  2.69479  0  0  0.335207  0.345013  0  2.735249  0
Hg  Hg3  1  0.32564374  0.44745320  0.58984048  1  0  0.486264  0  2.242259  0  0  0.374892  0  2.718461  0  0  0.418931  0  2.69486  0  0  0.335147  0.344955  0  2.735323  0
H  H4  1  0.50690295  0.88961208  0.78837260  1  0  0.071345  0  0.962173  0  0  0.074974  0  1.037318  0  0  0.077711  0  1.03443  0  0  0.100897  0.072984  0  1.03936  0
H  H5  1  0.99299489  0.61037544  0.28836946  1  0  0.071387  0  0.962252  0  0  0.075066  0  1.037299  0  0  0.077804  0  1.034408  0  0  0.100946  0.073112  0  1.039313  0
H  H6  1  0.49304097  0.11040472  0.21162725  1  0  0.071387  0  0.962429  0  0  0.075043  0  1.037459  0  0  0.077776  0  1.034577  0  0  0.100966  0.073058  0  1.039493  0
H  H7  1  0.00701374  0.38960489  0.71162875  1  0  0.071352  0  0.962454  0  0  0.075027  0  1.037496  0  0  0.077762  0  1.03461  0  0  0.100984  0.073081  0  1.039503  0
H  H8  1  0.35610543  0.73643453  0.72446337  1  0  0.116752  0  0.975567  0  0  0.121921  0  1.04316  0  0  0.126153  0  1.040831  0  0  0.098269  0.118842  0  1.045082  0
H  H9  1  0.14386908  0.76354949  0.22446249  1  0  0.116704  0  0.97555  0  0  0.121851  0  1.043186  0  0  0.126085  0  1.040859  0  0  0.098279  0.118802  0  1.045077  0
H  H10  1  0.64385354  0.26357335  0.27553975  1  0  0.116813  0  0.975519  0  0  0.122027  0  1.043057  0  0  0.126265  0  1.040726  0  0  0.098321  0.118943  0  1.044986  0
H  H11  1  0.85612871  0.23643651  0.77553654  1  0  0.116812  0  0.975559  0  0  0.121978  0  1.043148  0  0  0.126231  0  1.040793  0  0  0.098314  0.118897  0  1.045072  0
H  H12  1  0.50628776  0.54638445  0.74899623  1  0  0.099082  0  0.949521  0  0  0.104948  0  1.019312  0  0  0.108602  0  1.015471  0  0  0.102408  0.102261  0  1.022095  0
H  H13  1  0.99374055  0.95360460  0.24899361  1  0  0.099032  0  0.949405  0  0  0.104936  0  1.01917  0  0  0.108588  0  1.015329  0  0  0.102392  0.102248  0  1.021954  0
H  H14  1  0.49371869  0.45362935  0.25100689  1  0  0.099146  0  0.949473  0  0  0.10513  0  1.01914  0  0  0.108727  0  1.015352  0  0  0.102429  0.102444  0  1.021923  0
H  H15  1  0.00622165  0.04637716  0.75100296  1  0  0.099083  0  0.949807  0  0  0.105078  0  1.01942  0  0  0.108667  0  1.015646  0  0  0.102439  0.102392  0  1.022204  0
H  H16  1  0.95245354  0.68513004  0.89396160  1  0  0.078381  0  0.966793  0  0  0.079423  0  1.047149  0  0  0.083552  0  1.042121  0  0  0.101405  0.076459  0  1.050669  0
H  H17  1  0.54757963  0.81487891  0.39396621  1  0  0.078275  0  0.966877  0  0  0.079322  0  1.047238  0  0  0.083438  0  1.042225  0  0  0.101392  0.076358  0  1.05076  0
H  H18  1  0.04756658  0.31489770  0.10603784  1  0  0.078213  0  0.966896  0  0  0.079199  0  1.047354  0  0  0.083339  0  1.042317  0  0  0.101337  0.076236  0  1.050878  0
H  H19  1  0.45241628  0.18509402  0.60603405  1  0  0.078258  0  0.966816  0  0  0.079172  0  1.047346  0  0  0.083344  0  1.042281  0  0  0.101319  0.076212  0  1.050864  0
H  H20  1  0.26267033  0.35200979  0.86467235  1  0  0.058724  0  0.940777  0  0  0.071441  0  1.00663  0  0  0.071546  0  1.006321  0  0  0.096242  0.071328  0  1.006916  0
H  H21  1  0.23734959  0.14799012  0.36466850  1  0  0.058692  0  0.940769  0  0  0.071488  0  1.006538  0  0  0.071596  0  1.006225  0  0  0.096255  0.071374  0  1.006826  0
H  H22  1  0.73736296  0.64801230  0.13532750  1  0  0.058785  0  0.940698  0  0  0.071453  0  1.006568  0  0  0.071559  0  1.006259  0  0  0.0962  0.071341  0  1.006853  0
H  H23  1  0.76265543  0.85199754  0.63533053  1  0  0.058844  0  0.940738  0  0  0.071528  0  1.00659  0  0  0.071637  0  1.006276  0  0  0.096251  0.071416  0  1.006874  0
H  H24  1  0.91173726  0.32335455  0.90223355  1  0  0.052256  0  0.943196  0  0  0.06323  0  1.016174  0  0  0.063408  0  1.015602  0  0  0.092668  0.063028  0  1.016678  0
H  H25  1  0.58827514  0.17665008  0.40223328  1  0  0.052325  0  0.943212  0  0  0.063243  0  1.016249  0  0  0.063421  0  1.015677  0  0  0.092687  0.063041  0  1.01675  0
H  H26  1  0.08829264  0.67666017  0.09776016  1  0  0.052441  0  0.943147  0  0  0.063453  0  1.016031  0  0  0.063632  0  1.015457  0  0  0.092741  0.063249  0  1.016536  0
H  H27  1  0.41172756  0.82333758  0.59776493  1  0  0.052396  0  0.943167  0  0  0.063398  0  1.016078  0  0  0.063578  0  1.015505  0  0  0.092761  0.063194  0  1.016584  0
H  H28  1  0.49525468  0.45616162  0.94661062  1  0  0.107259  0  0.951971  0  0  0.128266  0  1.011099  0  0  0.129506  0  1.011664  0  0  0.088275  0.127306  0  1.01077  0
H  H29  1  0.00474741  0.04384035  0.44660860  1  0  0.107277  0  0.951916  0  0  0.128297  0  1.011027  0  0  0.129537  0  1.01159  0  0  0.088278  0.127336  0  1.0107  0
H  H30  1  0.50475784  0.54384567  0.05339414  1  0  0.107275  0  0.951976  0  0  0.128293  0  1.011089  0  0  0.129533  0  1.011655  0  0  0.088296  0.127334  0  1.010759  0
H  H31  1  0.99524700  0.95615462  0.55339330  1  0  0.107371  0  0.951897  0  0  0.128364  0  1.011036  0  0  0.129602  0  1.011605  0  0  0.088328  0.127404  0  1.010709  0
H  H32  1  0.38673155  0.31737246  0.96294370  1  0  0.105773  0  0.977436  0  0  0.125343  0  1.045586  0  0  0.126504  0  1.045703  0  0  0.075397  0.124375  0  1.045755  0
H  H33  1  0.11327227  0.18263110  0.46294254  1  0  0.105792  0  0.977346  0  0  0.125326  0  1.045553  0  0  0.126487  0  1.045668  0  0  0.075378  0.124363  0  1.045712  0
H  H34  1  0.61326404  0.68263068  0.03705574  1  0  0.105724  0  0.977428  0  0  0.125327  0  1.045552  0  0  0.126487  0  1.045669  0  0  0.075391  0.124354  0  1.045722  0
H  H35  1  0.88673883  0.81736639  0.53705812  1  0  0.105753  0  0.977391  0  0  0.125382  0  1.045474  0  0  0.126541  0  1.045592  0  0  0.075409  0.124416  0  1.04564  0
H  H36  1  0.14614236  0.42168907  0.98436916  1  0  0.103634  0  0.951774  0  0  0.124709  0  1.013286  0  0  0.126194  0  1.012903  0  0  0.085627  0.123569  0  1.013614  0
H  H37  1  0.35386678  0.07831035  0.48436676  1  0  0.103559  0  0.95184  0  0  0.124669  0  1.013305  0  0  0.12614  0  1.012938  0  0  0.085619  0.123527  0  1.013638  0
H  H38  1  0.85385066  0.57831243  0.01563233  1  0  0.103554  0  0.951868  0  0  0.124663  0  1.01336  0  0  0.126141  0  1.012986  0  0  0.085631  0.123521  0  1.013691  0
H  H39  1  0.64614864  0.92168471  0.51563391  1  0  0.103573  0  0.951917  0  0  0.124674  0  1.013406  0  0  0.126148  0  1.013035  0  0  0.085638  0.123538  0  1.01373  0
C  C40  1  0.57225416  0.80664008  0.79689546  1  0  0.151859  0  3.664363  0  0  0.120332  0  3.912768  0  0  0.129158  0  3.93021  0  0  0.051076  0.11477  0  3.900625  0
C  C41  1  0.92769261  0.69335007  0.29689608  1  0  0.151541  0  3.664306  0  0  0.120004  0  3.912724  0  0  0.128831  0  3.930168  0  0  0.050861  0.114404  0  3.900583  0
C  C42  1  0.42771508  0.19337437  0.20310398  1  0  0.151842  0  3.664363  0  0  0.120354  0  3.912682  0  0  0.129183  0  3.930124  0  0  0.051045  0.114784  0  3.900548  0
C  C43  1  0.07230448  0.30663103  0.70310377  1  0  0.151783  0  3.664349  0  0  0.120239  0  3.912728  0  0  0.129069  0  3.930171  0  0  0.050948  0.114638  0  3.900569  0
C  C44  1  0.48627869  0.72062235  0.76160353  1  0  -0.111663  0  3.703629  0  0  -0.120596  0  3.94976  0  0  -0.129141  0  3.970942  0  0  -0.084543  -0.115139  0  3.935544  0
C  C45  1  0.01370442  0.77936973  0.26160251  1  0  -0.111431  0  3.703493  0  0  -0.120384  0  3.949668  0  0  -0.128931  0  3.970854  0  0  -0.084541  -0.114951  0  3.935437  0
C  C46  1  0.51369159  0.27938312  0.23839796  1  0  -0.111542  0  3.703514  0  0  -0.120519  0  3.949595  0  0  -0.129067  0  3.970755  0  0  -0.084515  -0.115058  0  3.935382  0
C  C47  1  0.98628613  0.22061461  0.73839652  1  0  -0.111442  0  3.703472  0  0  -0.120392  0  3.949606  0  0  -0.128947  0  3.970751  0  0  -0.084506  -0.114935  0  3.935411  0
C  C48  1  0.57009861  0.61630513  0.77513229  1  0  -0.006727  0  3.701585  0  0  -0.037118  0  3.950828  0  0  -0.031357  0  3.96811  0  0  -0.062838  -0.040451  0  3.938908  0
C  C49  1  0.92992428  0.88368788  0.27513273  1  0  -0.006752  0  3.701559  0  0  -0.037149  0  3.950769  0  0  -0.031382  0  3.968055  0  0  -0.062822  -0.040482  0  3.938851  0
C  C50  1  0.42990784  0.38370867  0.22487002  1  0  -0.007095  0  3.701558  0  0  -0.037627  0  3.950837  0  0  -0.031808  0  3.968137  0  0  -0.062977  -0.040961  0  3.938919  0
C  C51  1  0.07005157  0.11629149  0.72486834  1  0  -0.007194  0  3.701994  0  0  -0.03767  0  3.951204  0  0  -0.031854  0  3.968514  0  0  -0.062987  -0.041003  0  3.939288  0
C  C52  1  0.74102836  0.60141674  0.82316673  1  0  -0.123088  0  3.773221  0  0  -0.098709  0  4.010942  0  0  -0.111982  0  4.035236  0  0  -0.01466  -0.09028  0  3.994694  0
C  C53  1  0.75899291  0.89858180  0.32316671  1  0  -0.123004  0  3.772967  0  0  -0.098624  0  4.01071  0  0  -0.111898  0  4.035003  0  0  -0.014577  -0.090196  0  3.994461  0
C  C54  1  0.25898790  0.39860036  0.17683312  1  0  -0.123114  0  3.772948  0  0  -0.098625  0  4.010661  0  0  -0.111906  0  4.034943  0  0  -0.014627  -0.090195  0  3.994412  0
C  C55  1  0.24098516  0.10139677  0.67683272  1  0  -0.122937  0  3.772661  0  0  -0.098521  0  4.010438  0  0  -0.111794  0  4.03473  0  0  -0.014522  -0.090092  0  3.994193  0
C  C56  1  0.81920455  0.69238401  0.85613272  1  0  0.126974  0  3.67862  0  0  0.084236  0  3.931952  0  0  0.093541  0  3.949184  0  0  0.048453  0.078334  0  3.920141  0
C  C57  1  0.68081166  0.80762337  0.35613582  1  0  0.127163  0  3.678438  0  0  0.084439  0  3.931771  0  0  0.093752  0  3.949006  0  0  0.048419  0.078539  0  3.919954  0
C  C58  1  0.18079900  0.30764202  0.14386303  1  0  0.12748  0  3.678167  0  0  0.084701  0  3.931581  0  0  0.094003  0  3.948798  0  0  0.04853  0.078798  0  3.919771  0
C  C59  1  0.31919196  0.19235449  0.64386075  1  0  0.127352  0  3.677829  0  0  0.084646  0  3.931258  0  0  0.093915  0  3.948464  0  0  0.048421  0.078742  0  3.919452  0
C  C60  1  0.83350264  0.48981055  0.83694623  1  0  0.589203  0  3.824155  0  0  0.537415  0  4.118919  0  0  0.570755  0  4.112248  0  0  0.235605  0.514846  0  4.12304  0
C  C61  1  0.66651940  0.01018947  0.33695003  1  0  0.589212  0  3.82387  0  0  0.537323  0  4.118775  0  0  0.570664  0  4.112106  0  0  0.235551  0.514745  0  4.122905  0
C  C62  1  0.16654174  0.51020750  0.16304788  1  0  0.589079  0  3.824457  0  0  0.537084  0  4.119504  0  0  0.570432  0  4.112837  0  0  0.235439  0.514519  0  4.123618  0
C  C63  1  0.33343755  0.98978820  0.66305104  1  0  0.588951  0  3.824816  0  0  0.536936  0  4.119827  0  0  0.570276  0  4.113163  0  0  0.235352  0.514376  0  4.12395  0
C  C64  1  0.11731375  0.38087986  0.89807085  1  0  0.145041  0  3.594656  0  0  0.085932  0  3.871018  0  0  0.095632  0  3.876163  0  0  -0.074936  0.079426  0  3.8673  0
C  C65  1  0.38271182  0.11912240  0.39806918  1  0  0.145  0  3.594535  0  0  0.085827  0  3.870979  0  0  0.09553  0  3.876118  0  0  -0.074988  0.079315  0  3.867262  0
C  C66  1  0.88271382  0.61913485  0.10192777  1  0  0.144627  0  3.594584  0  0  0.085595  0  3.870805  0  0  0.095296  0  3.875944  0  0  -0.074897  0.079094  0  3.867087  0
C  C67  1  0.61729122  0.88086771  0.60193067  1  0  0.144694  0  3.594796  0  0  0.08558  0  3.87109  0  0  0.095283  0  3.876226  0  0  -0.074988  0.079082  0  3.867374  0
C  C68  1  0.29664981  0.39581571  0.95101571  1  0  -0.323652  0  3.711377  0  0  -0.400304  0  3.956097  0  0  -0.40334  0  3.965117  0  0  -0.254694  -0.397895  0  3.949847  0
C  C69  1  0.20335649  0.10418464  0.45101321  1  0  -0.323606  0  3.71129  0  0  -0.400262  0  3.956054  0  0  -0.403284  0  3.96508  0  0  -0.254654  -0.397855  0  3.949807  0
C  C70  1  0.70334858  0.60419071  0.04898536  1  0  -0.323413  0  3.711327  0  0  -0.400195  0  3.956085  0  0  -0.403221  0  3.965103  0  0  -0.254726  -0.397781  0  3.949841  0
C  C71  1  0.79665893  0.89581042  0.54898787  1  0  -0.323658  0  3.711487  0  0  -0.400442  0  3.95632  0  0  -0.403463  0  3.96534  0  0  -0.254819  -0.398037  0  3.950065  0
I  I72  1  0.47945968  0.09542563  0.86014897  1  0  -0.286068  0  1.255709  0  0  -0.239935  0  1.60693  0  0  -0.259255  0  1.589214  0  0  -0.129357  -0.226885  0  1.620191  0
I  I73  1  0.02053142  0.40456682  0.36015479  1  0  -0.286056  0  1.255704  0  0  -0.239947  0  1.606958  0  0  -0.25927  0  1.589242  0  0  -0.129346  -0.226897  0  1.620229  0
I  I74  1  0.52053044  0.90458810  0.13985621  1  0  -0.286021  0  1.255696  0  0  -0.239897  0  1.60692  0  0  -0.259215  0  1.589207  0  0  -0.129326  -0.226848  0  1.620188  0
I  I75  1  0.97947243  0.59541268  0.63985080  1  0  -0.286008  0  1.25573  0  0  -0.239899  0  1.60698  0  0  -0.259222  0  1.589275  0  0  -0.129304  -0.226851  0  1.620252  0
I  I76  1  0.21088571  0.84434056  0.97822030  1  0  -0.288249  0  1.372699  0  0  -0.243958  0  1.743624  0  0  -0.264438  0  1.725458  0  0  -0.135089  -0.230077  0  1.757085  0
I  I77  1  0.28909825  0.65566869  0.47821797  1  0  -0.288228  0  1.372696  0  0  -0.243914  0  1.743589  0  0  -0.264393  0  1.72542  0  0  -0.135069  -0.230037  0  1.75706  0
I  I78  1  0.78911375  0.15567321  0.02178570  1  0  -0.288265  0  1.372684  0  0  -0.243956  0  1.743552  0  0  -0.264436  0  1.725388  0  0  -0.135099  -0.230078  0  1.757018  0
I  I79  1  0.71089991  0.34433609  0.52177737  1  0  -0.288232  0  1.372786  0  0  -0.243905  0  1.743667  0  0  -0.264388  0  1.725511  0  0  -0.135073  -0.23003  0  1.757138  0
N  N80  1  0.73449097  0.79241841  0.84318043  1  0  -0.295715  0  3.252785  0  0  -0.219885  0  3.515243  0  0  -0.241736  0  3.538203  0  0  -0.314748  -0.205015  0  3.499103  0
N  N81  1  0.76548015  0.70757903  0.34318385  1  0  -0.29574  0  3.252601  0  0  -0.21995  0  3.515115  0  0  -0.2418  0  3.538066  0  0  -0.314629  -0.205082  0  3.498983  0
N  N82  1  0.26549613  0.20760674  0.15681696  1  0  -0.295994  0  3.252373  0  0  -0.220152  0  3.514843  0  0  -0.242009  0  3.537799  0  0  -0.314842  -0.205281  0  3.498707  0
N  N83  1  0.23451880  0.29239881  0.65681600  1  0  -0.295951  0  3.252318  0  0  -0.220076  0  3.514738  0  0  -0.241934  0  3.537709  0  0  -0.314727  -0.205205  0  3.498617  0
O  O84  1  0.01200024  0.48789972  0.88235424  1  0  -0.334195  0  2.259335  0  0  -0.257293  0  2.495528  0  0  -0.280456  0  2.49518  0  0  -0.167034  -0.241359  0  2.495328  0
O  O85  1  0.48802811  0.01210016  0.38235448  1  0  -0.334167  0  2.259349  0  0  -0.257182  0  2.495546  0  0  -0.280352  0  2.495204  0  0  -0.16696  -0.241229  0  2.495336  0
O  O86  1  0.98800890  0.51211654  0.11764807  1  0  -0.334113  0  2.259556  0  0  -0.257163  0  2.495781  0  0  -0.280333  0  2.495439  0  0  -0.16703  -0.241234  0  2.49558  0
O  O87  1  0.51197399  0.98788341  0.61764865  1  0  -0.334136  0  2.259342  0  0  -0.257049  0  2.495463  0  0  -0.280219  0  2.495132  0  0  -0.166988  -0.24113  0  2.495269  0
O  O88  1  0.75432442  0.40872021  0.80963554  1  0  -0.523212  0  1.950966  0  0  -0.479321  0  2.170543  0  0  -0.499545  0  2.163691  0  0  -0.273618  -0.465437  0  2.1749  0
O  O89  1  0.74570333  0.09127748  0.30963542  1  0  -0.523253  0  1.950741  0  0  -0.479326  0  2.170347  0  0  -0.499551  0  2.163495  0  0  -0.273629  -0.465439  0  2.174704  0
O  O90  1  0.24575741  0.59129882  0.19035775  1  0  -0.523104  0  1.95112  0  0  -0.479091  0  2.170717  0  0  -0.499315  0  2.163856  0  0  -0.273481  -0.465212  0  2.17509  0
O  O91  1  0.25424464  0.90870259  0.69035993  1  0  -0.522936  0  1.951673  0  0  -0.478933  0  2.171252  0  0  -0.499151  0  2.164388  0  0  -0.273398  -0.465054  0  2.175614  0
