# generated using pymatgen
data_AlH7(C4O3)3
_symmetry_space_group_name_H-M   'P 1'
_cell_length_a   6.61851928
_cell_length_b   11.25085427
_cell_length_c   11.00333578
_cell_angle_alpha   87.41957456
_cell_angle_beta   74.26935387
_cell_angle_gamma   70.50156957
_symmetry_Int_Tables_number   1
_chemical_formula_structural   AlH7(C4O3)3
_chemical_formula_sum   'Al2 H14 C24 O18'
_cell_volume   742.50144694
_cell_formula_units_Z   2
loop_
 _symmetry_equiv_pos_site_id
 _symmetry_equiv_pos_as_xyz
  1  'x, y, z'
loop_
 _atom_site_type_symbol
 _atom_site_label
 _atom_site_symmetry_multiplicity
 _atom_site_fract_x
 _atom_site_fract_y
 _atom_site_fract_z
 _atom_site_occupancy
 _atom_site_pbe_bader_charge
 _atom_site_pbe_bader_spin_density
 _atom_site_pbe_cm5_charge
 _atom_site_pbe_ddec_charge
 _atom_site_pbe_ddec_spin_density
 _atom_site_pbe_ddec_sum_bond_order
 _atom_site_pbe_magmom
Al  Al0  1  0.47975618  0.52057045  0.52205644  1  2.502187  0  0.390042  1.638491  0  2.607334  0
Al  Al1  1  0.98526891  0.51536455  0.51593562  1  2.503115  0  0.40497  1.6345  0  2.567022  0
H  H2  1  0.19866606  0.45257277  0.66669667  1  0.618777  0  0.347188  0.420353  0  0.877049  0
H  H3  1  0.68434700  0.66273311  0.44823188  1  0.632927  0  0.350443  0.425193  0  0.86821  0
H  H4  1  0.14706009  0.35167232  0.22527354  1  0.056449  0  0.102936  0.118927  0  1.060651  0
H  H5  1  0.46134103  0.33338704  0.76180948  1  0.046835  0  0.101673  0.105967  0  1.073648  0
H  H6  1  0.29528567  0.21572468  0.34935210  1  0.096006  0  0.101708  0.120399  0  1.063863  0
H  H7  1  0.42874392  0.75776376  0.31411819  1  0.046145  0  0.101252  0.110285  0  1.062686  0
H  H8  1  0.86255849  0.59471605  0.82280441  1  0.619544  0  0.320826  0.357616  0  0.938114  0
H  H9  1  0.68164539  0.54972671  0.24557767  1  0.654469  0  0.321071  0.360302  0  0.951422  0
H  H10  1  0.05348754  0.17807557  0.18425907  1  0.603844  0  0.320286  0.345648  0  0.918334  0
H  H11  1  0.33507635  0.16606082  0.75982291  1  0.652684  0  0.316101  0.357362  0  0.931283  0
H  H12  1  0.71580991  0.82626039  0.59669566  1  0.638772  0  0.319499  0.357708  0  0.942828  0
H  H13  1  0.53488691  0.25045441  0.56694724  1  0.663982  0  0.31824  0.354692  0  0.973725  0
H  H14  1  0.61522647  0.17283205  0.17993034  1  0.616799  0  0.326206  0.352682  0  0.901644  0
H  H15  1  0.73639134  0.74947751  0.15254388  1  0.651655  0  0.313381  0.354793  0  0.940563  0
C  C16  1  0.87233889  0.28605722  0.49823518  1  1.496381  0  0.264141  0.655629  0  4.055073  0
C  C17  1  0.62296622  0.51952116  0.74943181  1  1.486332  0  0.270069  0.67492  0  4.057361  0
C  C18  1  0.10265109  0.74797407  0.51130793  1  1.502048  0  0.26892  0.670126  0  4.058764  0
C  C19  1  0.36029392  0.49204672  0.28831847  1  1.475811  0  0.26348  0.654574  0  4.072932  0
C  C20  1  0.44096521  0.48286500  0.14959784  1  0.041164  0  -0.031622  -0.230751  0  3.97253  0
C  C21  1  0.35790302  0.42056253  0.07279507  1  0.056465  0  -0.011588  0.08178  0  4.017482  0
C  C22  1  0.60940297  0.53373371  0.09324594  1  0.556197  0  0.088574  0.208122  0  4.009966  0
C  C23  1  0.21904375  0.34794994  0.12369996  1  -0.021086  0  -0.124228  -0.302486  0  4.044145  0
C  C24  1  0.17438344  0.26994466  0.04859607  1  0.556797  0  0.073131  0.220707  0  4.075837  0
C  C25  1  0.57717865  0.49428379  0.88451211  1  0.048971  0  -0.0297  -0.224063  0  3.956352  0
C  C26  1  0.67311750  0.54331971  0.95988119  1  0.548823  0  0.090964  0.212514  0  4.055894  0
C  C27  1  0.43597687  0.42136245  0.93849000  1  0.035864  0  -0.008215  0.094312  0  4.009696  0
C  C28  1  0.38685147  0.34174642  0.86333812  1  0.006342  0  -0.124  -0.296543  0  4.020258  0
C  C29  1  0.26531261  0.26363659  0.91481746  1  0.48418  0  0.077997  0.232732  0  4.085511  0
C  C30  1  0.93454910  0.14815946  0.48412871  1  0.021587  0  -0.033092  -0.236423  0  3.953645  0
C  C31  1  0.15389750  0.06845840  0.41448416  1  0.022089  0  -0.013401  0.078174  0  4.015513  0
C  C32  1  0.76777092  0.09433027  0.53757875  1  0.541066  0  0.092356  0.21698  0  4.000816  0
C  C33  1  0.32011207  0.11568497  0.34116232  1  -0.005244  0  -0.127566  -0.312236  0  4.04836  0
C  C34  1  0.51462823  0.03847557  0.25922523  1  0.488255  0  0.075234  0.223249  0  4.079321  0
C  C35  1  0.04031827  0.88277778  0.48635015  1  0.027857  0  -0.029535  -0.223549  0  3.961558  0
C  C36  1  0.82251500  0.96091480  0.54256296  1  0.592719  0  0.091001  0.213925  0  4.053392  0
C  C37  1  0.20162500  0.93481268  0.41041872  1  -0.020966  0  -0.010605  0.08845  0  4.01723  0
C  C38  1  0.40018310  0.85793103  0.32551084  1  0.028886  0  -0.124887  -0.294491  0  4.024093  0
C  C39  1  0.55380142  0.90634450  0.24796322  1  0.528944  0  0.077543  0.231622  0  4.090049  0
O  O40  1  0.66155711  0.34922296  0.52024063  1  -1.275436  0  -0.244279  -0.618341  0  2.453514  0
O  O41  1  0.81802586  0.52578102  0.69288308  1  -1.274147  0  -0.244585  -0.631846  0  2.354658  0
O  O42  1  0.95092975  0.69484802  0.53264280  1  -1.258365  0  -0.245288  -0.625737  0  2.344495  0
O  O43  1  0.50366735  0.49107203  0.34838231  1  -1.269178  0  -0.242205  -0.609679  0  2.408271  0
O  O44  1  0.30207242  0.68957529  0.51462660  1  -1.276882  0  -0.23292  -0.5971  0  2.389803  0
O  O45  1  0.15889010  0.50390224  0.34408518  1  -1.264971  0  -0.226758  -0.56482  0  2.344388  0
O  O46  1  0.01457378  0.34076638  0.49210740  1  -1.250152  0  -0.227154  -0.558137  0  2.328616  0
O  O47  1  0.46954219  0.53662079  0.69481089  1  -1.261825  0  -0.233947  -0.589375  0  2.353862  0
O  O48  1  0.23544382  0.46463325  0.57624833  1  -1.428827  0  -0.44973  -0.985607  0  2.195073  0
O  O49  1  0.72722320  0.57302558  0.46346270  1  -1.441799  0  -0.449355  -0.985341  0  2.19455  0
O  O50  1  0.82010258  0.60486946  0.91600164  1  -1.107312  0  -0.337444  -0.400001  0  2.285075  0
O  O51  1  0.71539666  0.58107832  0.15866479  1  -1.161238  0  -0.330345  -0.420318  0  2.359994  0
O  O52  1  0.05132450  0.19379110  0.09643461  1  -1.116145  0  -0.346394  -0.413168  0  2.29656  0
O  O53  1  0.23222717  0.17863147  0.84540451  1  -1.149954  0  -0.349693  -0.415394  0  2.26389  0
O  O54  1  0.65636365  0.91963921  0.60733601  1  -1.125732  0  -0.337488  -0.399147  0  2.277974  0
O  O55  1  0.55053485  0.16130057  0.59076448  1  -1.170726  0  -0.331567  -0.418356  0  2.353772  0
O  O56  1  0.67399705  0.08128779  0.18424576  1  -1.12139  0  -0.34232  -0.406602  0  2.298756  0
O  O57  1  0.73849968  0.83602159  0.16027569  1  -1.14959  0  -0.349318  -0.413224  0  2.272592  0
