# generated using pymatgen
data_CdH16C16(N3O4)2
_symmetry_space_group_name_H-M   'P 1'
_cell_length_a   7.39889755
_cell_length_b   7.66061496
_cell_length_c   8.98535148
_cell_angle_alpha   81.11134865
_cell_angle_beta   80.02465173
_cell_angle_gamma   64.09219200
_symmetry_Int_Tables_number   1
_chemical_formula_structural   CdH16C16(N3O4)2
_chemical_formula_sum   'Cd1 H16 C16 N6 O8'
_cell_volume   449.39087858
_cell_formula_units_Z   1
loop_
 _symmetry_equiv_pos_site_id
 _symmetry_equiv_pos_as_xyz
  1  'x, y, z'
loop_
 _atom_site_type_symbol
 _atom_site_label
 _atom_site_symmetry_multiplicity
 _atom_site_fract_x
 _atom_site_fract_y
 _atom_site_fract_z
 _atom_site_occupancy
 _atom_site_hle17_bader_spin_density
 _atom_site_hle17_ddec_charge
 _atom_site_hle17_ddec_spin_density
 _atom_site_hle17_ddec_sum_bond_order
 _atom_site_hle17_magmom
 _atom_site_hse06_10hf_bader_spin_density
 _atom_site_hse06_10hf_ddec_charge
 _atom_site_hse06_10hf_ddec_spin_density
 _atom_site_hse06_10hf_ddec_sum_bond_order
 _atom_site_hse06_10hf_magmom
 _atom_site_hse06_bader_spin_density
 _atom_site_hse06_ddec_charge
 _atom_site_hse06_ddec_spin_density
 _atom_site_hse06_ddec_sum_bond_order
 _atom_site_hse06_magmom
 _atom_site_pbe_bader_spin_density
 _atom_site_pbe_cm5_charge
 _atom_site_pbe_ddec_charge
 _atom_site_pbe_ddec_spin_density
 _atom_site_pbe_ddec_sum_bond_order
 _atom_site_pbe_magmom
Cd  Cd0  1  0.99999858  0.99999930  0.00000060  1  0  1.15866  0  1.679669  0  0  0.962129  0  2.140209  0  0  1.016105  0  2.087579  0  0  0.804305  0.92302  0  2.17693  0
H  H1  1  0.98613640  0.80422101  0.71278495  1  0  0.087694  0  0.952976  0  0  0.090481  0  1.025743  0  0  0.094102  0  1.021901  0  0  0.115421  0.087944  0  1.028258  0
H  H2  1  0.01386387  0.19577729  0.28721558  1  0  0.087702  0  0.952956  0  0  0.09049  0  1.025722  0  0  0.09411  0  1.02188  0  0  0.115423  0.087951  0  1.028237  0
H  H3  1  0.11221793  0.47806519  0.61615890  1  0  0.12091  0  0.958093  0  0  0.124104  0  1.030026  0  0  0.128653  0  1.026413  0  0  0.110294  0.120613  0  1.033053  0
H  H4  1  0.88777959  0.52193310  0.38384204  1  0  0.120919  0  0.958082  0  0  0.124122  0  1.030002  0  0  0.12867  0  1.026387  0  0  0.110298  0.120625  0  1.033031  0
H  H5  1  0.43340678  0.23107461  0.01101805  1  0  0.127541  0  0.959061  0  0  0.136206  0  1.01849  0  0  0.139969  0  1.016837  0  0  0.112259  0.133249  0  1.020164  0
H  H6  1  0.56659486  0.76892370  0.98898228  1  0  0.127545  0  0.959094  0  0  0.136228  0  1.018503  0  0  0.139991  0  1.016848  0  0  0.112272  0.133272  0  1.020176  0
H  H7  1  0.29441710  0.56788989  0.09118257  1  0  0.077783  0  0.99381  0  0  0.080354  0  1.067772  0  0  0.082831  0  1.066176  0  0  0.112343  0.079032  0  1.068156  0
H  H8  1  0.70558663  0.43210988  0.90881614  1  0  0.07775  0  0.993853  0  0  0.080334  0  1.067802  0  0  0.082813  0  1.066205  0  0  0.11234  0.079014  0  1.068189  0
H  H9  1  0.70300622  0.09810711  0.51103218  1  0  0.092088  0  0.933591  0  0  0.104818  0  0.999224  0  0  0.105328  0  0.999106  0  0  0.112447  0.104396  0  0.999327  0
H  H10  1  0.29699204  0.90189265  0.48896957  1  0  0.092101  0  0.93355  0  0  0.104829  0  0.999217  0  0  0.105335  0  0.999097  0  0  0.112448  0.104406  0  0.999322  0
H  H11  1  0.47970749  0.31443966  0.54987704  1  0  0.09578  0  0.948524  0  0  0.11014  0  1.011382  0  0  0.110621  0  1.012076  0  0  0.115875  0.109819  0  1.01084  0
H  H12  1  0.52029215  0.68556011  0.45012562  1  0  0.095734  0  0.948576  0  0  0.110106  0  1.011444  0  0  0.110585  0  1.012135  0  0  0.115863  0.109787  0  1.010901  0
H  H13  1  0.29874557  0.22605564  0.38711515  1  0  0.084659  0  0.925104  0  0  0.098491  0  0.99031  0  0  0.098836  0  0.989918  0  0  0.111455  0.098114  0  0.990791  0
H  H14  1  0.70125269  0.77394413  0.61288660  1  0  0.084672  0  0.925088  0  0  0.098508  0  0.990288  0  0  0.098855  0  0.989897  0  0  0.111466  0.09813  0  0.99077  0
H  H15  1  0.52787744  0.22418025  0.28240600  1  0  0.10075  0  0.931749  0  0  0.115195  0  0.989338  0  0  0.116553  0  0.988673  0  0  0.118855  0.114102  0  0.990059  0
H  H16  1  0.47212082  0.77581951  0.71759574  1  0  0.100801  0  0.931747  0  0  0.11525  0  0.989327  0  0  0.116609  0  0.988661  0  0  0.118891  0.114155  0  0.990043  0
C  C17  1  0.08376344  0.67276330  0.77609116  1  0  0.133927  0  3.68106  0  0  0.104435  0  3.932557  0  0  0.111088  0  3.950148  0  0  0.048801  0.099915  0  3.920496  0
C  C18  1  0.91623481  0.32723645  0.22390836  1  0  0.133905  0  3.681091  0  0  0.104418  0  3.932582  0  0  0.111066  0  3.950176  0  0  0.048801  0.099904  0  3.920515  0
C  C19  1  0.15566082  0.48978321  0.72265486  1  0  -0.131568  0  3.682985  0  0  -0.154241  0  3.933552  0  0  -0.159698  0  3.953231  0  0  -0.078454  -0.150653  0  3.920331  0
C  C20  1  0.84433808  0.51021509  0.27734588  1  0  -0.131532  0  3.682973  0  0  -0.154184  0  3.933563  0  0  -0.159631  0  3.953236  0  0  -0.07843  -0.150592  0  3.920335  0
C  C21  1  0.28134095  0.32669170  0.80860765  1  0  0.018522  0  3.724886  0  0  0.033504  0  3.966336  0  0  0.0331  0  3.985132  0  0  0.012837  0.033944  0  3.953739  0
C  C22  1  0.71865869  0.67330808  0.19139501  1  0  0.018554  0  3.724813  0  0  0.033436  0  3.966396  0  0  0.03302  0  3.985189  0  0  0.012822  0.033875  0  3.953798  0
C  C23  1  0.33254447  0.35455545  0.94311005  1  0  -0.112106  0  3.673866  0  0  -0.134005  0  3.922354  0  0  -0.138851  0  3.940474  0  0  -0.074956  -0.131106  0  3.910882  0
C  C24  1  0.66745450  0.64544576  0.05688805  1  0  -0.112168  0  3.673786  0  0  -0.134069  0  3.922321  0  0  -0.138908  0  3.940442  0  0  -0.075012  -0.131168  0  3.91085  0
C  C25  1  0.25589890  0.54136888  0.98774582  1  0  0.117681  0  3.703149  0  0  0.089086  0  3.953408  0  0  0.094797  0  3.97324  0  0  0.039604  0.08499  0  3.939684  0
C  C26  1  0.74410346  0.45863088  0.01225309  1  0  0.117752  0  3.703164  0  0  0.089154  0  3.953423  0  0  0.094862  0  3.973254  0  0  0.03964  0.085055  0  3.939702  0
C  C27  1  0.35263577  0.11876989  0.77728512  1  0  0.509174  0  3.790933  0  0  0.451837  0  4.082843  0  0  0.482446  0  4.081093  0  0  0.253312  0.43085  0  4.08383  0
C  C28  1  0.64736248  0.88122987  0.22271551  1  0  0.509074  0  3.791117  0  0  0.45178  0  4.082972  0  0  0.482398  0  4.081212  0  0  0.253276  0.43079  0  4.083962  0
C  C29  1  0.53678323  0.16306825  0.52476781  1  0  -0.021424  0  3.607118  0  0  -0.085538  0  3.863712  0  0  -0.082043  0  3.876176  0  0  -0.057177  -0.087768  0  3.855262  0
C  C30  1  0.46321504  0.83693151  0.47523393  1  0  -0.02135  0  3.6071  0  0  -0.085525  0  3.863749  0  0  -0.082054  0  3.876275  0  0  -0.057154  -0.087747  0  3.855281  0
C  C31  1  0.46471306  0.15320438  0.37809882  1  0  -0.00875  0  3.595624  0  0  -0.068882  0  3.84952  0  0  -0.064015  0  3.859146  0  0  -0.057134  -0.072112  0  3.843142  0
C  C32  1  0.53528520  0.84679538  0.62190181  1  0  -0.008782  0  3.595579  0  0  -0.068885  0  3.849536  0  0  -0.064022  0  3.859159  0  0  -0.057143  -0.072114  0  3.843153  0
N  N33  1  0.13105183  0.69839910  0.90672438  1  0  -0.3377  0  3.267835  0  0  -0.256188  0  3.529175  0  0  -0.27635  0  3.548767  0  0  -0.328586  -0.242118  0  3.515466  0
N  N34  1  0.86894706  0.30159920  0.09327636  1  0  -0.337746  0  3.267892  0  0  -0.256241  0  3.52923  0  0  -0.2764  0  3.548821  0  0  -0.328628  -0.242176  0  3.515527  0
N  N35  1  0.46935497  0.05043641  0.64940182  1  0  -0.17596  0  3.403556  0  0  -0.089097  0  3.639063  0  0  -0.109923  0  3.660686  0  0  -0.261958  -0.075016  0  3.624311  0
N  N36  1  0.53064329  0.94956334  0.35059881  1  0  -0.175943  0  3.403605  0  0  -0.088999  0  3.639024  0  0  -0.109829  0  3.660639  0  0  -0.261892  -0.074915  0  3.624273  0
N  N37  1  0.14153157  0.75430974  0.32475073  1  0  0.687188  0  4.160602  0  0  0.730133  0  4.443766  0  0  0.758636  0  4.448781  0  0  0.094725  0.711094  0  4.439826  0
N  N38  1  0.85847150  0.24569147  0.67524565  1  0  0.687137  0  4.160422  0  0  0.730072  0  4.443608  0  0  0.758573  0  4.448625  0  0  0.094712  0.711031  0  4.439672  0
O  O39  1  0.30668146  0.00853476  0.88123280  1  0  -0.599309  0  2.053473  0  0  -0.54183  0  2.317871  0  0  -0.567736  0  2.307508  0  0  -0.308726  -0.523532  0  2.324678  0
O  O40  1  0.69331680  0.99146499  0.11876783  1  0  -0.59924  0  2.053503  0  0  -0.541786  0  2.317888  0  0  -0.567694  0  2.307524  0  0  -0.308706  -0.523486  0  2.324692  0
O  O41  1  0.19119299  0.85467122  0.20844586  1  0  -0.535197  0  1.807334  0  0  -0.509593  0  2.048366  0  0  -0.52837  0  2.038129  0  0  -0.225428  -0.496487  0  2.055317  0
O  O42  1  0.80880343  0.14533582  0.79155405  1  0  -0.535144  0  1.807249  0  0  -0.509548  0  2.048293  0  0  -0.528336  0  2.038073  0  0  -0.225424  -0.496434  0  2.055237  0
O  O43  1  0.26527568  0.58168378  0.35517147  1  0  -0.452741  0  1.762328  0  0  -0.450382  0  1.980769  0  0  -0.464384  0  1.976483  0  0  -0.181327  -0.440085  0  1.98291  0
O  O44  1  0.73473085  0.41831889  0.64482197  1  0  -0.45277  0  1.76228  0  0  -0.450394  0  1.980718  0  0  -0.464395  0  1.976434  0  0  -0.181326  -0.440099  0  1.982864  0
O  O45  1  0.97378414  0.83130931  0.40395590  1  0  -0.458294  0  1.762459  0  0  -0.460128  0  1.983348  0  0  -0.473663  0  1.977942  0  0  -0.186665  -0.450737  0  1.986474  0
O  O46  1  0.02621677  0.16868754  0.59604474  1  0  -0.458278  0  1.762447  0  0  -0.460122  0  1.983358  0  0  -0.47365  0  1.977946  0  0  -0.186659  -0.450732  0  1.986488  0
