# generated using pymatgen
data_CuH11C15N2
_symmetry_space_group_name_H-M   'P 1'
_cell_length_a   9.11673591
_cell_length_b   11.36633214
_cell_length_c   12.72196359
_cell_angle_alpha   116.56530683
_cell_angle_beta   94.40275506
_cell_angle_gamma   90.02789461
_symmetry_Int_Tables_number   1
_chemical_formula_structural   CuH11C15N2
_chemical_formula_sum   'Cu4 H44 C60 N8'
_cell_volume   1174.74376603
_cell_formula_units_Z   4
loop_
 _symmetry_equiv_pos_site_id
 _symmetry_equiv_pos_as_xyz
  1  'x, y, z'
loop_
 _atom_site_type_symbol
 _atom_site_label
 _atom_site_symmetry_multiplicity
 _atom_site_fract_x
 _atom_site_fract_y
 _atom_site_fract_z
 _atom_site_occupancy
 _atom_site_hle17_bader_spin_density
 _atom_site_hle17_ddec_charge
 _atom_site_hle17_ddec_spin_density
 _atom_site_hle17_ddec_sum_bond_order
 _atom_site_hle17_magmom
 _atom_site_hse06_10hf_bader_spin_density
 _atom_site_hse06_10hf_ddec_charge
 _atom_site_hse06_10hf_ddec_spin_density
 _atom_site_hse06_10hf_ddec_sum_bond_order
 _atom_site_hse06_10hf_magmom
 _atom_site_hse06_bader_spin_density
 _atom_site_hse06_ddec_charge
 _atom_site_hse06_ddec_spin_density
 _atom_site_hse06_ddec_sum_bond_order
 _atom_site_hse06_magmom
 _atom_site_pbe_bader_spin_density
 _atom_site_pbe_cm5_charge
 _atom_site_pbe_ddec_charge
 _atom_site_pbe_ddec_spin_density
 _atom_site_pbe_ddec_sum_bond_order
 _atom_site_pbe_magmom
Cu  Cu0  1  0.76339745  0.37399942  0.50093900  1  0  0.441945  0  1.683855  0  0  0.322823  0  2.102348  0  0  0.335929  0  2.065009  0  0  0.515829  0.314783  0  2.128338  0
Cu  Cu1  1  0.73683347  0.87303000  0.49903259  1  0  0.442096  0  1.685628  0  0  0.322794  0  2.104302  0  0  0.335929  0  2.06705  0  0  0.516282  0.314936  0  2.130065  0
Cu  Cu2  1  0.23660144  0.62600359  0.49906031  1  0  0.441934  0  1.683887  0  0  0.322805  0  2.102347  0  0  0.335934  0  2.065047  0  0  0.515826  0.31477  0  2.128356  0
Cu  Cu3  1  0.26317204  0.12697212  0.50096820  1  0  0.442068  0  1.68567  0  0  0.322775  0  2.104345  0  0  0.335903  0  2.067063  0  0  0.516281  0.314911  0  2.130076  0
H  H4  1  0.03482975  0.79409843  0.05935932  1  0  0.085588  0  0.961647  0  0  0.098064  0  1.018626  0  0  0.100309  0  1.018737  0  0  0.096056  0.096327  0  1.018819  0
H  H5  1  0.46441380  0.73470025  0.94002123  1  0  0.085305  0  0.96134  0  0  0.098005  0  1.01814  0  0  0.100238  0  1.018251  0  0  0.095795  0.096308  0  1.018274  0
H  H6  1  0.96516897  0.20589965  0.94063728  1  0  0.085571  0  0.961675  0  0  0.098042  0  1.018655  0  0  0.100286  0  1.018765  0  0  0.096056  0.096306  0  1.018847  0
H  H7  1  0.53558297  0.26530374  0.05997995  1  0  0.08531  0  0.961312  0  0  0.098002  0  1.018127  0  0  0.100236  0  1.018239  0  0  0.095799  0.096308  0  1.018262  0
H  H8  1  0.90309021  0.57688714  0.98367360  1  0  0.083882  0  0.979041  0  0  0.094395  0  1.042352  0  0  0.096225  0  1.043021  0  0  0.096576  0.092911  0  1.04234  0
H  H9  1  0.59605378  0.59361168  0.01599804  1  0  0.084107  0  0.979509  0  0  0.095094  0  1.042249  0  0  0.096901  0  1.042899  0  0  0.09666  0.093543  0  1.042311  0
H  H10  1  0.09690623  0.42310990  0.01632094  1  0  0.08391  0  0.979117  0  0  0.094427  0  1.04239  0  0  0.096259  0  1.043056  0  0  0.096591  0.092942  0  1.042377  0
H  H11  1  0.40394200  0.40639333  0.98400586  1  0  0.084054  0  0.979634  0  0  0.095041  0  1.042389  0  0  0.096866  0  1.04302  0  0  0.096637  0.093488  0  1.042454  0
H  H12  1  0.82375295  0.49468345  0.12221612  1  0  0.095681  0  0.944578  0  0  0.107994  0  1.001939  0  0  0.110457  0  1.002127  0  0  0.101028  0.106293  0  1.001836  0
H  H13  1  0.67612722  0.37298274  0.87770816  1  0  0.096031  0  0.943954  0  0  0.107978  0  1.001875  0  0  0.110335  0  1.002203  0  0  0.101037  0.106267  0  1.00181  0
H  H14  1  0.17624695  0.50531662  0.87778209  1  0  0.095674  0  0.944594  0  0  0.107974  0  1.001973  0  0  0.110436  0  1.002163  0  0  0.101021  0.106272  0  1.00187  0
H  H15  1  0.32386637  0.62702033  0.12229725  1  0  0.096045  0  0.943933  0  0  0.108002  0  1.00185  0  0  0.110353  0  1.002181  0  0  0.101075  0.106289  0  1.001784  0
H  H16  1  0.07685259  0.93514066  0.27754035  1  0  0.074896  0  0.979864  0  0  0.084211  0  1.049009  0  0  0.087431  0  1.046613  0  0  0.091315  0.081167  0  1.052009  0
H  H17  1  0.42305883  0.65723595  0.72180831  1  0  0.07363  0  0.979824  0  0  0.083266  0  1.048778  0  0  0.086406  0  1.046486  0  0  0.091022  0.080294  0  1.051699  0
H  H18  1  0.92315164  0.06485941  0.72245567  1  0  0.074854  0  0.980009  0  0  0.084235  0  1.049064  0  0  0.08747  0  1.046652  0  0  0.091326  0.081188  0  1.052073  0
H  H19  1  0.57694339  0.34276614  0.27819235  1  0  0.07361  0  0.979887  0  0  0.083244  0  1.048845  0  0  0.086386  0  1.046544  0  0  0.09102  0.080274  0  1.051764  0
H  H20  1  0.99804910  0.85334623  0.41527779  1  0  0.075889  0  0.990061  0  0  0.083822  0  1.062791  0  0  0.08808  0  1.058272  0  0  0.089176  0.080199  0  1.067257  0
H  H21  1  0.50219598  0.43764532  0.58434562  1  0  0.076325  0  0.989121  0  0  0.08381  0  1.062527  0  0  0.088083  0  1.057974  0  0  0.088944  0.080177  0  1.066996  0
H  H22  1  0.00195293  0.14665383  0.58471814  1  0  0.075921  0  0.990089  0  0  0.083856  0  1.062804  0  0  0.088116  0  1.058282  0  0  0.089176  0.080232  0  1.067267  0
H  H23  1  0.49780408  0.56235580  0.41565693  1  0  0.076349  0  0.989135  0  0  0.083822  0  1.062532  0  0  0.088093  0  1.057981  0  0  0.088967  0.080191  0  1.067  0
H  H24  1  0.78097890  0.24452009  0.29589484  1  0  0.066667  0  1.009808  0  0  0.075498  0  1.085474  0  0  0.080306  0  1.079733  0  0  0.082773  0.07201  0  1.0897  0
H  H25  1  0.71896095  0.94866172  0.70418665  1  0  0.067168  0  1.00937  0  0  0.075785  0  1.085187  0  0  0.080608  0  1.079489  0  0  0.082996  0.072321  0  1.089326  0
H  H26  1  0.21902210  0.75547999  0.70410341  1  0  0.066659  0  1.009794  0  0  0.075483  0  1.085469  0  0  0.080288  0  1.079731  0  0  0.082744  0.071992  0  1.089701  0
H  H27  1  0.28103792  0.05133838  0.29581388  1  0  0.067199  0  1.009339  0  0  0.075808  0  1.085159  0  0  0.080633  0  1.079456  0  0  0.082991  0.072341  0  1.089299  0
H  H28  1  0.11671992  0.47868213  0.24655130  1  0  0.087549  0  0.976488  0  0  0.094142  0  1.048566  0  0  0.097503  0  1.046708  0  0  0.094666  0.0918  0  1.049742  0
H  H29  1  0.38379454  0.23243146  0.75341484  1  0  0.08801  0  0.976964  0  0  0.094982  0  1.048359  0  0  0.098275  0  1.046567  0  0  0.094541  0.092634  0  1.04957  0
H  H30  1  0.88328094  0.52131400  0.75344462  1  0  0.087558  0  0.976452  0  0  0.094143  0  1.048541  0  0  0.09751  0  1.046675  0  0  0.094639  0.091802  0  1.049717  0
H  H31  1  0.61620777  0.76756971  0.24658939  1  0  0.088008  0  0.976961  0  0  0.094984  0  1.048361  0  0  0.09829  0  1.046559  0  0  0.094551  0.092633  0  1.049578  0
H  H32  1  0.23616236  0.27653403  0.11827500  1  0  0.080294  0  0.990158  0  0  0.091094  0  1.053168  0  0  0.092831  0  1.054137  0  0  0.09383  0.090162  0  1.052162  0
H  H33  1  0.26416067  0.15903963  0.88187754  1  0  0.079199  0  0.990894  0  0  0.090099  0  1.053983  0  0  0.091816  0  1.055006  0  0  0.093156  0.089177  0  1.052863  0
H  H34  1  0.76383748  0.72346310  0.88172285  1  0  0.080336  0  0.990155  0  0  0.091142  0  1.053144  0  0  0.09288  0  1.054114  0  0  0.093839  0.09021  0  1.052138  0
H  H35  1  0.73584268  0.84096056  0.11812556  1  0  0.07925  0  0.990808  0  0  0.090144  0  1.053893  0  0  0.091861  0  1.054915  0  0  0.09317  0.089221  0  1.052774  0
H  H36  1  0.90442060  0.04251462  0.17138159  1  0  0.082338  0  0.974303  0  0  0.093629  0  1.037012  0  0  0.095558  0  1.037393  0  0  0.095497  0.091538  0  1.038234  0
H  H37  1  0.59533185  0.87174983  0.82897180  1  0  0.082212  0  0.974134  0  0  0.093756  0  1.036657  0  0  0.095693  0  1.037039  0  0  0.09548  0.09166  0  1.0379  0
H  H38  1  0.09558050  0.95748454  0.82862024  1  0  0.082369  0  0.974292  0  0  0.093657  0  1.037005  0  0  0.095585  0  1.037385  0  0  0.095498  0.091564  0  1.038233  0
H  H39  1  0.40466816  0.12825127  0.17102916  1  0  0.082222  0  0.974132  0  0  0.09376  0  1.036663  0  0  0.095698  0  1.037044  0  0  0.09548  0.091666  0  1.037905  0
H  H40  1  0.13295555  0.05567442  0.08060278  1  0  0.083192  0  0.957716  0  0  0.095256  0  1.017258  0  0  0.097712  0  1.016997  0  0  0.095889  0.093571  0  1.017347  0
H  H41  1  0.36702219  0.97600695  0.91974363  1  0  0.083212  0  0.958854  0  0  0.095442  0  1.018013  0  0  0.097897  0  1.017753  0  0  0.096154  0.09373  0  1.018152  0
H  H42  1  0.86704547  0.94432276  0.91939750  1  0  0.083208  0  0.957679  0  0  0.095262  0  1.017234  0  0  0.097718  0  1.016973  0  0  0.095886  0.093577  0  1.017324  0
H  H43  1  0.63297996  0.02399220  0.08025667  1  0  0.083203  0  0.958862  0  0  0.095444  0  1.018017  0  0  0.0979  0  1.017756  0  0  0.09616  0.093734  0  1.018156  0
H  H44  1  0.71197403  0.66920737  0.59961306  1  0  0.075143  0  0.946063  0  0  0.089252  0  1.005309  0  0  0.090344  0  1.004491  0  0  0.12402  0.088278  0  1.006414  0
H  H45  1  0.78824586  0.06934743  0.40033306  1  0  0.075537  0  0.94595  0  0  0.089744  0  1.005178  0  0  0.090847  0  1.00434  0  0  0.124287  0.088871  0  1.006085  0
H  H46  1  0.28803361  0.33079377  0.40038587  1  0  0.075208  0  0.945983  0  0  0.089288  0  1.005252  0  0  0.09038  0  1.004433  0  0  0.124018  0.088314  0  1.006357  0
H  H47  1  0.21175314  0.93065757  0.59966861  1  0  0.075575  0  0.945967  0  0  0.089761  0  1.005208  0  0  0.090864  0  1.004368  0  0  0.124272  0.088888  0  1.006113  0
C  C48  1  0.99851940  0.75979290  0.12101596  1  0  -0.089027  0  3.778779  0  0  -0.099461  0  4.021496  0  0  -0.101786  0  4.043011  0  0  -0.098913  -0.097668  0  4.006624  0
C  C49  1  0.50089709  0.63875895  0.87845997  1  0  -0.090429  0  3.780441  0  0  -0.101312  0  4.02405  0  0  -0.103635  0  4.045553  0  0  -0.099505  -0.099593  0  4.009148  0
C  C50  1  0.00147610  0.24020713  0.87898206  1  0  -0.088939  0  3.778643  0  0  -0.099355  0  4.021363  0  0  -0.101679  0  4.042882  0  0  -0.098876  -0.097564  0  4.006496  0
C  C51  1  0.49910193  0.36124413  0.12154330  1  0  -0.09047  0  3.780401  0  0  -0.101346  0  4.024007  0  0  -0.10367  0  4.045518  0  0  -0.099525  -0.099627  0  4.009108  0
C  C52  1  0.92569426  0.63690309  0.07830432  1  0  -0.072098  0  3.793039  0  0  -0.084093  0  4.039713  0  0  -0.085382  0  4.061131  0  0  -0.094242  -0.083411  0  4.025676  0
C  C53  1  0.57372652  0.55884089  0.92135426  1  0  -0.071888  0  3.792918  0  0  -0.084213  0  4.039478  0  0  -0.085444  0  4.060924  0  0  -0.094047  -0.083463  0  4.025343  0
C  C54  1  0.07430447  0.36309596  0.92169187  1  0  -0.072206  0  3.793051  0  0  -0.084203  0  4.039726  0  0  -0.085494  0  4.061145  0  0  -0.094307  -0.08352  0  4.02569  0
C  C55  1  0.42626693  0.44116016  0.07864800  1  0  -0.071841  0  3.793087  0  0  -0.084173  0  4.039643  0  0  -0.085421  0  4.061077  0  0  -0.09405  -0.083423  0  4.02551  0
C  C56  1  0.88085707  0.59058925  0.15594109  1  0  -0.11035  0  3.722355  0  0  -0.126267  0  3.960676  0  0  -0.129447  0  3.981482  0  0  -0.089043  -0.123997  0  3.947172  0
C  C57  1  0.61898563  0.43493620  0.84385609  1  0  -0.111077  0  3.721522  0  0  -0.126584  0  3.96027  0  0  -0.129707  0  3.981031  0  0  -0.08919  -0.124339  0  3.946773  0
C  C58  1  0.11914168  0.40941078  0.84405548  1  0  -0.110357  0  3.7223  0  0  -0.126261  0  3.960617  0  0  -0.129441  0  3.981425  0  0  -0.089039  -0.123992  0  3.947108  0
C  C59  1  0.38100786  0.56506487  0.15614697  1  0  -0.111087  0  3.721753  0  0  -0.126632  0  3.960479  0  0  -0.12975  0  3.981234  0  0  -0.089233  -0.124385  0  3.946977  0
C  C60  1  0.02182161  0.83837816  0.24268956  1  0  -0.067763  0  3.796291  0  0  -0.080285  0  4.042984  0  0  -0.082897  0  4.06674  0  0  -0.097539  -0.077737  0  4.025568  0
C  C61  1  0.47799551  0.59547510  0.75677973  1  0  -0.063947  0  3.795004  0  0  -0.076574  0  4.041384  0  0  -0.079111  0  4.065149  0  0  -0.096069  -0.07418  0  4.024133  0
C  C62  1  0.97818036  0.16161993  0.75730559  1  0  -0.067756  0  3.796326  0  0  -0.080349  0  4.043051  0  0  -0.082973  0  4.066801  0  0  -0.09754  -0.077803  0  4.025643  0
C  C63  1  0.52200243  0.40452799  0.24322429  1  0  -0.063934  0  3.794987  0  0  -0.076561  0  4.041369  0  0  -0.079096  0  4.065135  0  0  -0.096074  -0.074168  0  4.024119  0
C  C64  1  0.97596573  0.79301893  0.32045802  1  0  -0.11805  0  3.757854  0  0  -0.136938  0  4.002575  0  0  -0.139146  0  4.022286  0  0  -0.099823  -0.135194  0  3.987651  0
C  C65  1  0.52409383  0.47231672  0.67916922  1  0  -0.119975  0  3.75798  0  0  -0.138369  0  4.002713  0  0  -0.140606  0  4.022344  0  0  -0.100195  -0.136585  0  3.987792  0
C  C66  1  0.02403629  0.20698016  0.67953831  1  0  -0.118062  0  3.757829  0  0  -0.136938  0  4.002549  0  0  -0.139149  0  4.022264  0  0  -0.099812  -0.135194  0  3.987619  0
C  C67  1  0.47590077  0.52768437  0.32083468  1  0  -0.119924  0  3.75789  0  0  -0.138318  0  4.002585  0  0  -0.14056  0  4.022225  0  0  -0.100162  -0.136535  0  3.987666  0
C  C68  1  0.90732291  0.66744356  0.27843296  1  0  0.040895  0  3.820368  0  0  0.060726  0  4.044753  0  0  0.061823  0  4.067171  0  0  -0.011085  0.05962  0  4.029566  0
C  C69  1  0.59274263  0.38900615  0.72134476  1  0  0.04191  0  3.819123  0  0  0.061153  0  4.044027  0  0  0.062325  0  4.066319  0  0  -0.010913  0.060048  0  4.028828  0
C  C70  1  0.09267807  0.33255651  0.72156450  1  0  0.040886  0  3.820464  0  0  0.060721  0  4.044843  0  0  0.061819  0  4.067256  0  0  -0.011093  0.059623  0  4.029639  0
C  C71  1  0.40725513  0.61099489  0.27865452  1  0  0.04182  0  3.819206  0  0  0.061167  0  4.044009  0  0  0.062343  0  4.066295  0  0  -0.010927  0.06006  0  4.028812  0
C  C72  1  0.86253716  0.62081479  0.36190237  1  0  0.071301  0  3.768581  0  0  0.06385  0  4.013726  0  0  0.065639  0  4.037759  0  0  0.072657  0.06316  0  3.996665  0
C  C73  1  0.63763126  0.25883580  0.63798915  1  0  0.0694  0  3.766409  0  0  0.062636  0  4.011307  0  0  0.064364  0  4.035333  0  0  0.072018  0.061891  0  3.994205  0
C  C74  1  0.13746379  0.37918430  0.63809471  1  0  0.071341  0  3.768595  0  0  0.063893  0  4.013772  0  0  0.065681  0  4.037803  0  0  0.072662  0.063196  0  3.996705  0
C  C75  1  0.36236664  0.74116533  0.36201490  1  0  0.069531  0  3.766286  0  0  0.062654  0  4.011261  0  0  0.064382  0  4.03529  0  0  0.072067  0.06191  0  3.994165  0
C  C76  1  0.87162788  0.49782523  0.36137562  1  0  0.067553  0  3.761381  0  0  0.059343  0  4.008737  0  0  0.060286  0  4.033248  0  0  0.072109  0.059485  0  3.990879  0
C  C77  1  0.62860924  0.13638197  0.63855485  1  0  0.068672  0  3.761092  0  0  0.060407  0  4.00872  0  0  0.061375  0  4.033212  0  0  0.07228  0.060546  0  3.990926  0
C  C78  1  0.12837415  0.50217288  0.63862112  1  0  0.067665  0  3.761287  0  0  0.059427  0  4.008716  0  0  0.060374  0  4.033223  0  0  0.07215  0.059568  0  3.990855  0
C  C79  1  0.37138864  0.86361915  0.36144840  1  0  0.068487  0  3.761194  0  0  0.060304  0  4.008791  0  0  0.061274  0  4.033286  0  0  0.07222  0.060444  0  3.991002  0
C  C80  1  0.88240363  0.25248613  0.25843496  1  0  -0.122836  0  3.761044  0  0  -0.138625  0  3.999788  0  0  -0.141754  0  4.019338  0  0  -0.100832  -0.136371  0  3.986023  0
C  C81  1  0.61766766  0.99427979  0.74171091  1  0  -0.123917  0  3.760728  0  0  -0.139161  0  3.999812  0  0  -0.14237  0  4.01932  0  0  -0.101674  -0.136913  0  3.986166  0
C  C82  1  0.11759842  0.74751200  0.74156257  1  0  -0.122935  0  3.761001  0  0  -0.138709  0  3.999786  0  0  -0.141839  0  4.019336  0  0  -0.100844  -0.136457  0  3.986025  0
C  C83  1  0.38233127  0.00571936  0.25829162  1  0  -0.12387  0  3.760477  0  0  -0.13909  0  3.999573  0  0  -0.142295  0  4.01908  0  0  -0.101597  -0.136844  0  3.985928  0
C  C84  1  0.93987389  0.37749210  0.28156019  1  0  0.049685  0  3.808856  0  0  0.066597  0  4.034602  0  0  0.068214  0  4.057722  0  0  -0.00916  0.065408  0  4.018556  0
C  C85  1  0.56039437  0.09604598  0.71845499  1  0  0.050393  0  3.80946  0  0  0.066122  0  4.03708  0  0  0.067791  0  4.06011  0  0  -0.008685  0.064885  0  4.021275  0
C  C86  1  0.06012475  0.62250497  0.71843444  1  0  0.049826  0  3.808526  0  0  0.066693  0  4.034373  0  0  0.068311  0  4.057496  0  0  -0.00909  0.065506  0  4.018313  0
C  C87  1  0.43960794  0.90395520  0.28154924  1  0  0.050453  0  3.809459  0  0  0.06613  0  4.037125  0  0  0.067795  0  4.060165  0  0  -0.008679  0.064892  0  4.021319  0
C  C88  1  0.06838854  0.38327988  0.22907623  1  0  -0.115322  0  3.733065  0  0  -0.134893  0  3.981478  0  0  -0.137335  0  4.000635  0  0  -0.092709  -0.132526  0  3.967804  0
C  C89  1  0.43202886  0.15460317  0.77100850  1  0  -0.116327  0  3.737125  0  0  -0.13583  0  3.985968  0  0  -0.138197  0  4.005072  0  0  -0.092338  -0.133706  0  3.972487  0
C  C90  1  0.93161128  0.61671627  0.77092123  1  0  -0.115315  0  3.732915  0  0  -0.13486  0  3.981341  0  0  -0.137307  0  4.000491  0  0  -0.092693  -0.132494  0  3.967665  0
C  C91  1  0.56797233  0.84539798  0.22899489  1  0  -0.116391  0  3.737208  0  0  -0.135895  0  3.986039  0  0  -0.138274  0  4.005145  0  0  -0.092391  -0.133768  0  3.97256  0
C  C92  1  0.13664245  0.26860876  0.15725404  1  0  -0.076457  0  3.795344  0  0  -0.086774  0  4.039689  0  0  -0.088382  0  4.062048  0  0  -0.098167  -0.085759  0  4.023397  0
C  C93  1  0.36361478  0.11203646  0.84288835  1  0  -0.075013  0  3.796433  0  0  -0.085423  0  4.040684  0  0  -0.087024  0  4.063029  0  0  -0.098112  -0.084086  0  4.023914  0
C  C94  1  0.86335621  0.73138735  0.84274179  1  0  -0.076627  0  3.795454  0  0  -0.086945  0  4.039806  0  0  -0.088554  0  4.062165  0  0  -0.098223  -0.085928  0  4.023514  0
C  C95  1  0.63638860  0.88796471  0.15711513  1  0  -0.075061  0  3.796328  0  0  -0.08546  0  4.040584  0  0  -0.087061  0  4.062931  0  0  -0.098092  -0.084124  0  4.023812  0
C  C96  1  0.95140517  0.13787207  0.18740731  1  0  -0.080348  0  3.81153  0  0  -0.090106  0  4.053047  0  0  -0.092033  0  4.076457  0  0  -0.101058  -0.088784  0  4.038013  0
C  C97  1  0.54855127  0.95105906  0.81289910  1  0  -0.080474  0  3.811938  0  0  -0.090423  0  4.053305  0  0  -0.092366  0  4.076753  0  0  -0.101356  -0.089141  0  4.038308  0
C  C98  1  0.04859580  0.86212606  0.81259097  1  0  -0.080363  0  3.811544  0  0  -0.090118  0  4.053043  0  0  -0.092042  0  4.076448  0  0  -0.101039  -0.088793  0  4.038004  0
C  C99  1  0.45144876  0.04894205  0.18710266  1  0  -0.080518  0  3.811711  0  0  -0.090459  0  4.05309  0  0  -0.092403  0  4.076535  0  0  -0.101366  -0.08918  0  4.038092  0
C  C100  1  0.07926078  0.14531747  0.13651370  1  0  -0.092669  0  3.793945  0  0  -0.10402  0  4.039137  0  0  -0.107104  0  4.061773  0  0  -0.101813  -0.1011  0  4.023019  0
C  C101  1  0.42079974  0.00960031  0.86379900  1  0  -0.092587  0  3.79407  0  0  -0.104047  0  4.039497  0  0  -0.107141  0  4.062133  0  0  -0.101249  -0.101078  0  4.023174  0
C  C102  1  0.92074139  0.85468072  0.86348780  1  0  -0.092617  0  3.793908  0  0  -0.103955  0  4.039086  0  0  -0.107037  0  4.061719  0  0  -0.101803  -0.101036  0  4.022969  0
C  C103  1  0.57920261  0.99040282  0.13620521  1  0  -0.092578  0  3.794043  0  0  -0.104058  0  4.039483  0  0  -0.107152  0  4.062119  0  0  -0.101299  -0.101089  0  4.023159  0
C  C104  1  0.76423915  0.63136447  0.51754097  1  0  0.197233  0  3.75771  0  0  0.151795  0  4.009373  0  0  0.163617  0  4.026298  0  0  0.117046  0.142683  0  3.999299  0
C  C105  1  0.73594021  0.11366379  0.48237498  1  0  0.196726  0  3.758631  0  0  0.15112  0  4.010381  0  0  0.162909  0  4.027355  0  0  0.116804  0.141928  0  4.000366  0
C  C106  1  0.23576075  0.36863560  0.48245723  1  0  0.197201  0  3.757704  0  0  0.151797  0  4.009347  0  0  0.163619  0  4.026272  0  0  0.117035  0.142681  0  3.99927  0
C  C107  1  0.26405992  0.88634027  0.51762793  1  0  0.196577  0  3.758817  0  0  0.150991  0  4.010537  0  0  0.162782  0  4.027513  0  0  0.116773  0.1418  0  4.000521  0
N  N108  1  0.79455203  0.70367173  0.46147729  1  0  -0.41311  0  3.482686  0  0  -0.33139  0  3.791884  0  0  -0.349328  0  3.80198  0  0  -0.423964  -0.319429  0  3.785566  0
N  N109  1  0.70562696  0.24206672  0.53841725  1  0  -0.412464  0  3.480835  0  0  -0.331034  0  3.790034  0  0  -0.348941  0  3.800077  0  0  -0.423479  -0.31905  0  3.783924  0
N  N110  1  0.20545337  0.29632743  0.53852156  1  0  -0.41317  0  3.482749  0  0  -0.331466  0  3.791962  0  0  -0.349399  0  3.80204  0  0  -0.423988  -0.319497  0  3.785617  0
N  N111  1  0.29436771  0.75793829  0.46158660  1  0  -0.412314  0  3.48087  0  0  -0.330852  0  3.790068  0  0  -0.348767  0  3.800142  0  0  -0.423393  -0.318871  0  3.78397  0
N  N112  1  0.80764266  0.50686793  0.46044974  1  0  -0.401993  0  3.461702  0  0  -0.319847  0  3.766436  0  0  -0.337872  0  3.777738  0  0  -0.42044  -0.307662  0  3.758719  0
N  N113  1  0.69257391  0.04629907  0.53949005  1  0  -0.40151  0  3.463687  0  0  -0.318991  0  3.768357  0  0  -0.33704  0  3.779732  0  0  -0.420307  -0.306811  0  3.760783  0
N  N114  1  0.19235824  0.49313015  0.53954616  1  0  -0.402109  0  3.461773  0  0  -0.319924  0  3.766464  0  0  -0.33796  0  3.777793  0  0  -0.42045  -0.307743  0  3.758758  0
N  N115  1  0.30742833  0.95370304  0.46051140  1  0  -0.401471  0  3.463718  0  0  -0.318968  0  3.768349  0  0  -0.337015  0  3.77971  0  0  -0.420357  -0.306786  0  3.76076  0
