# generated using pymatgen
data_Li2NpH10C14(NO6)2
_symmetry_space_group_name_H-M   'P 1'
_cell_length_a   7.02243038
_cell_length_b   8.28688430
_cell_length_c   8.49399557
_cell_angle_alpha   83.29232823
_cell_angle_beta   70.96785875
_cell_angle_gamma   70.18999366
_symmetry_Int_Tables_number   1
_chemical_formula_structural   Li2NpH10C14(NO6)2
_chemical_formula_sum   'Li2 Np1 H10 C14 N2 O12'
_cell_volume   439.61577926
_cell_formula_units_Z   1
loop_
 _symmetry_equiv_pos_site_id
 _symmetry_equiv_pos_as_xyz
  1  'x, y, z'
loop_
 _atom_site_type_symbol
 _atom_site_label
 _atom_site_symmetry_multiplicity
 _atom_site_fract_x
 _atom_site_fract_y
 _atom_site_fract_z
 _atom_site_occupancy
 _atom_site_hle17_ddec_charge
 _atom_site_hle17_ddec_spin_density
 _atom_site_hle17_ddec_sum_bond_order
 _atom_site_hle17_magmom
 _atom_site_hse06_10hf_ddec_charge
 _atom_site_hse06_10hf_ddec_spin_density
 _atom_site_hse06_10hf_ddec_sum_bond_order
 _atom_site_hse06_10hf_magmom
 _atom_site_hse06_ddec_charge
 _atom_site_hse06_ddec_spin_density
 _atom_site_hse06_ddec_sum_bond_order
 _atom_site_hse06_magmom
 _atom_site_pbe_cm5_charge
 _atom_site_pbe_ddec_charge
 _atom_site_pbe_ddec_spin_density
 _atom_site_pbe_ddec_sum_bond_order
 _atom_site_pbe_magmom
Li  Li0  1  0.77714001  0.34827785  0.91094188  1  0.862413  -0.000798  0.393556  0.0  0.829386  -0.000449  0.4882  0.0  0.839703  -0.00028  0.470318  0.0  0.521548  0.821693  -0.000596  0.501414  0.0
Li  Li1  1  0.22286366  0.65171811  0.08906447  1  0.862439  -0.000797  0.393544  0.0  0.829393  -0.000449  0.488228  0.0  0.839705  -0.00028  0.470342  0.0  0.521555  0.821694  -0.000595  0.501444  0.0
Np  Np2  1  0.00002429  0.49999820  0.50000142  1  2.339286  1.623858  3.958613  1.553  2.399981  1.187938  4.629924  1.154  2.529676  1.192974  4.57154  1.155  2.055354  2.311931  1.182503  4.668456  1.15
H  H3  1  0.94786549  0.21134701  0.13134020  1  0.438584  -9.8e-05  0.860239  0.0  0.407442  -4.5e-05  0.925194  0.0  0.417912  -2.9e-05  0.909692  0.0  0.300284  0.400078  -5.9e-05  0.936074  0.0
H  H4  1  0.05208640  0.78866953  0.86869314  1  0.438599  -9.8e-05  0.860222  0.0  0.407401  -4.5e-05  0.925282  0.0  0.417871  -2.9e-05  0.90978  0.0  0.30016  0.40004  -5.9e-05  0.936161  0.0
H  H5  1  0.90489705  0.40667475  0.15082319  1  0.432726  -0.00037  0.846308  0.0  0.411081  -0.00025  0.895621  0.0  0.418793  -0.000226  0.883955  0.0  0.320503  0.405655  -0.000263  0.90388  0.0
H  H6  1  0.09500167  0.59334317  0.84924918  1  0.432963  -0.00037  0.845854  0.0  0.4113  -0.000249  0.895305  0.0  0.419009  -0.000226  0.883643  0.0  0.320591  0.405876  -0.000263  0.903565  0.0
H  H7  1  0.31487860  0.76880983  0.55399065  1  0.125766  -0.000609  0.938284  0.0  0.135431  -0.000334  0.997621  0.0  0.138937  -0.000286  0.994905  0.0  0.124096  0.132893  -0.000363  0.99974  0.0
H  H8  1  0.68512756  0.23118352  0.44600003  1  0.125745  -0.000607  0.938292  0.0  0.135401  -0.000334  0.99765  0.0  0.138889  -0.000286  0.994956  0.0  0.124072  0.132858  -0.000363  0.999766  0.0
H  H9  1  0.59418513  0.70921085  0.27455615  1  0.115182  -0.000394  0.928914  0.0  0.128389  -0.000228  0.980149  0.0  0.131373  -0.000212  0.977491  0.0  0.128942  0.126161  -0.000238  0.982344  0.0
H  H10  1  0.40582856  0.29078636  0.72543791  1  0.115211  -0.000397  0.928897  0.0  0.128367  -0.000228  0.98017  0.0  0.13135  -0.000212  0.977514  0.0  0.128953  0.126137  -0.000238  0.982375  0.0
H  H11  1  0.63943472  0.96056798  0.08294750  1  0.127421  -0.00027  0.929884  0.0  0.135681  -9.4e-05  0.990321  0.0  0.139279  -6.3e-05  0.988616  0.0  0.125614  0.132983  -0.000116  0.99179  0.0
H  H12  1  0.36057899  0.03942538  0.91704584  1  0.127404  -0.000267  0.929861  0.0  0.135663  -9.4e-05  0.990277  0.0  0.139261  -6.3e-05  0.988572  0.0  0.125594  0.132969  -0.000116  0.991744  0.0
C  C13  1  0.05177754  0.09471352  0.67533548  1  0.636695  0.000488  3.926392  0.003  0.591988  -0.000231  4.229848  0.0  0.626736  -0.000198  4.221451  0.0  0.23045  0.56832  -0.000269  4.234577  0.0
C  C14  1  0.94825878  0.90527985  0.32465642  1  0.636718  0.000483  3.926722  0.003  0.592041  -0.000231  4.230028  0.0  0.626789  -0.000199  4.221627  0.0  0.230387  0.568371  -0.000269  4.23475  0.0
C  C15  1  0.39299774  0.29852724  0.15232861  1  0.668821  0.000421  3.906349  0.003  0.629001  -0.000201  4.197442  0.0  0.665286  -0.000171  4.184587  0.0  0.248038  0.604212  -0.000236  4.2053  0.0
C  C16  1  0.60700587  0.70146479  0.84764879  1  0.668975  0.000419  3.906438  0.003  0.62909  -0.000202  4.197558  0.0  0.665381  -0.000171  4.184696  0.0  0.248094  0.604302  -0.000236  4.205417  0.0
C  C17  1  0.21619219  0.04192116  0.51015961  1  0.08624  -0.000457  3.787324  0.0  0.094648  0.000149  4.038282  0.001  0.095434  0.000215  4.059416  0.001  0.118268  0.093826  0.000167  4.024285  0.001
C  C18  1  0.78382753  0.95807218  0.48982739  1  0.086108  -0.000431  3.787268  0.0  0.094664  0.000148  4.037993  0.001  0.095451  0.000216  4.059118  0.001  0.118215  0.093838  0.000166  4.023989  0.001
C  C19  1  0.34014052  0.87239847  0.46681932  1  -0.08419  -0.002697  3.638059  -0.002  -0.112092  -0.00114  3.891659  -0.001  -0.115054  -0.001186  3.909808  -0.001  -0.054908  -0.109959  -0.001158  3.879455  -0.001
C  C20  1  0.65986010  0.12759745  0.53317375  1  -0.084139  -0.002769  3.637946  -0.002  -0.112078  -0.001137  3.891485  -0.001  -0.115024  -0.00119  3.90964  -0.001  -0.054891  -0.109935  -0.001158  3.879265  -0.001
C  C21  1  0.49384763  0.83977668  0.31099017  1  0.028401  0.000591  3.628542  0.001  0.008708  0.000491  3.884359  0.001  0.012113  0.00045  3.898236  0.001  -0.037787  0.006353  0.000624  3.875098  0.001
C  C22  1  0.50615801  0.16022181  0.68900358  1  0.028353  0.000616  3.628666  0.001  0.008689  0.00049  3.884507  0.001  0.012092  0.000452  3.898382  0.001  -0.037851  0.006339  0.000623  3.875249  0.001
C  C23  1  0.51847456  0.97734042  0.20425352  1  -0.069483  -0.00265  3.630145  -0.002  -0.095219  -0.000993  3.880047  -0.001  -0.09708  -0.00104  3.896508  -0.001  -0.049019  -0.094079  -0.001022  3.869343  -0.001
C  C24  1  0.48153609  0.02266063  0.79573856  1  -0.069464  -0.002718  3.630259  -0.002  -0.095205  -0.000994  3.880071  -0.001  -0.097063  -0.001044  3.896529  -0.001  -0.048986  -0.094067  -0.001022  3.869373  -0.001
C  C25  1  0.38451089  0.14207072  0.25675125  1  0.094698  -0.000533  3.764113  0.0  0.10331  0.000149  4.008851  0.001  0.104359  0.000219  4.027915  0.001  0.125245  0.102345  0.000158  3.996288  0.001
C  C26  1  0.61549825  0.85792646  0.74323464  1  0.094582  -0.000511  3.764405  0.0  0.103322  0.000149  4.008962  0.001  0.104367  0.00022  4.028026  0.001  0.125273  0.102353  0.000157  3.996409  0.001
N  N27  1  0.23689204  0.17442893  0.40653664  1  -0.379534  -0.024325  3.288135  -0.022  -0.362599  -0.007208  3.566488  -0.007  -0.385397  -0.006371  3.597391  -0.006  -0.326699  -0.34718  -0.007363  3.545768  -0.007
N  N28  1  0.76311055  0.82557339  0.59345043  1  -0.379492  -0.024381  3.288292  -0.022  -0.362646  -0.007208  3.566534  -0.007  -0.385444  -0.006375  3.597438  -0.006  -0.326687  -0.347218  -0.007364  3.545811  -0.007
O  O29  1  0.19631265  0.51881103  0.58341564  1  -0.680798  -0.158404  1.569345  -0.138  -0.687336  -0.055014  1.868009  -0.05  -0.707127  -0.064707  1.848828  -0.059  -0.715395  -0.675829  -0.047997  1.881703  -0.044
O  O30  1  0.80369601  0.48118747  0.41657847  1  -0.681025  -0.158521  1.568619  -0.138  -0.687641  -0.055052  1.867272  -0.05  -0.70745  -0.064746  1.848104  -0.06  -0.715294  -0.676112  -0.048028  1.880938  -0.044
O  O31  1  0.93210345  0.32183214  0.06915198  1  -0.888352  -0.001088  1.716166  -0.001  -0.844325  -0.00044  1.8574  0.0  -0.858418  -0.000377  1.82803  0.0  -0.64123  -0.83445  -0.000496  1.878024  0.0
O  O32  1  0.06779516  0.67820114  0.93090802  1  -0.888562  -0.001084  1.715673  -0.001  -0.844508  -0.00044  1.857033  0.0  -0.8586  -0.000376  1.82767  0.0  -0.641137  -0.834631  -0.000495  1.877645  0.0
O  O33  1  0.96254592  0.25957211  0.69004038  1  -0.732774  -0.04575  2.106649  -0.043  -0.71483  -0.011431  2.385742  -0.011  -0.751703  -0.009601  2.381524  -0.01  -0.414122  -0.688598  -0.012359  2.387471  -0.012
O  O34  1  0.03750598  0.74042770  0.30996301  1  -0.732845  -0.045742  2.106854  -0.043  -0.714914  -0.01143  2.385918  -0.011  -0.751785  -0.009601  2.381695  -0.01  -0.414063  -0.68868  -0.012361  2.387636  -0.012
O  O35  1  0.00741356  0.99016338  0.78706857  1  -0.565515  -0.017442  1.95386  -0.015  -0.523418  -0.00292  2.175113  -0.003  -0.547511  -0.001709  2.166856  -0.002  -0.27158  -0.506174  -0.003991  2.180123  -0.003
O  O36  1  0.99260669  0.00982485  0.21292241  1  -0.5654  -0.017434  1.95409  -0.015  -0.523386  -0.002921  2.175325  -0.003  -0.547479  -0.001708  2.167068  -0.002  -0.271515  -0.506147  -0.003992  2.180333  -0.003
O  O37  1  0.25309877  0.43911254  0.22136197  1  -0.740165  -0.041664  2.116052  -0.039  -0.720164  -0.010904  2.386655  -0.011  -0.756235  -0.009209  2.379673  -0.009  -0.40847  -0.694548  -0.011766  2.39036  -0.011
O  O38  1  0.74691989  0.56088721  0.77861867  1  -0.740242  -0.041662  2.116168  -0.039  -0.720235  -0.010903  2.386782  -0.011  -0.756313  -0.00921  2.3798  -0.009  -0.408499  -0.69462  -0.011766  2.390493  -0.011
O  O39  1  0.52495247  0.28943966  0.01125261  1  -0.645673  -0.015775  1.961432  -0.014  -0.614886  -0.002856  2.195403  -0.002  -0.636046  -0.001683  2.181327  -0.001  -0.351543  -0.599498  -0.003891  2.204351  -0.003
O  O40  1  0.47504612  0.71054979  0.98872058  1  -0.645676  -0.015766  1.961424  -0.014  -0.614891  -0.002858  2.195462  -0.002  -0.636038  -0.001683  2.181356  -0.001  -0.351561  -0.599501  -0.00389  2.204408  -0.003
