# generated using pymatgen
data_AgH5C4N4O3
_symmetry_space_group_name_H-M   'P 1'
_cell_length_a   3.71546288
_cell_length_b   12.67049229
_cell_length_c   15.28815475
_cell_angle_alpha   89.99963497
_cell_angle_beta   90.00017921
_cell_angle_gamma   98.91074709
_symmetry_Int_Tables_number   1
_chemical_formula_structural   AgH5C4N4O3
_chemical_formula_sum   'Ag4 H20 C16 N16 O12'
_cell_volume   711.03016144
_cell_formula_units_Z   4
loop_
 _symmetry_equiv_pos_site_id
 _symmetry_equiv_pos_as_xyz
  1  'x, y, z'
loop_
 _atom_site_type_symbol
 _atom_site_label
 _atom_site_symmetry_multiplicity
 _atom_site_fract_x
 _atom_site_fract_y
 _atom_site_fract_z
 _atom_site_occupancy
 _atom_site_hle17_bader_spin_density
 _atom_site_hle17_ddec_charge
 _atom_site_hle17_ddec_spin_density
 _atom_site_hle17_ddec_sum_bond_order
 _atom_site_hle17_magmom
 _atom_site_hse06_10hf_bader_spin_density
 _atom_site_hse06_10hf_ddec_charge
 _atom_site_hse06_10hf_ddec_spin_density
 _atom_site_hse06_10hf_ddec_sum_bond_order
 _atom_site_hse06_10hf_magmom
 _atom_site_hse06_bader_spin_density
 _atom_site_hse06_ddec_charge
 _atom_site_hse06_ddec_spin_density
 _atom_site_hse06_ddec_sum_bond_order
 _atom_site_hse06_magmom
 _atom_site_pbe_bader_spin_density
 _atom_site_pbe_cm5_charge
 _atom_site_pbe_ddec_charge
 _atom_site_pbe_ddec_spin_density
 _atom_site_pbe_ddec_sum_bond_order
 _atom_site_pbe_magmom
Ag  Ag0  1  0.57620764  0.50897164  0.61726827  1  0  0.545339  0  1.387666  0  0  0.396328  0  1.829167  0  0  0.427415  0  1.781261  0  0  0.480329  0.375012  0  1.862541  0
Ag  Ag1  1  0.42379634  0.49103020  0.11726416  1  0  0.545277  0  1.387649  0  0  0.396308  0  1.829169  0  0  0.427396  0  1.781261  0  0  0.480297  0.374993  0  1.862543  0
Ag  Ag2  1  0.98496471  0.99821482  0.50933521  1  0  0.52309  0  1.405959  0  0  0.369301  0  1.836881  0  0  0.397891  0  1.794824  0  0  0.474034  0.349728  0  1.866069  0
Ag  Ag3  1  0.01502750  0.00178778  0.00933533  1  0  0.523068  0  1.405999  0  0  0.369311  0  1.836876  0  0  0.397899  0  1.794827  0  0  0.474035  0.349748  0  1.866064  0
H  H4  1  0.77312214  0.39242998  0.45982781  1  0  0.089771  0  0.987537  0  0  0.090857  0  1.065293  0  0  0.094858  0  1.060208  0  0  0.113815  0.087929  0  1.068958  0
H  H5  1  0.22687734  0.60757572  0.95982263  1  0  0.089805  0  0.987452  0  0  0.090891  0  1.065226  0  0  0.094877  0  1.060155  0  0  0.113806  0.087965  0  1.06889  0
H  H6  1  0.91996480  0.21294725  0.41625866  1  0  0.104395  0  0.950056  0  0  0.113402  0  1.011491  0  0  0.116151  0  1.010894  0  0  0.116149  0.111404  0  1.012099  0
H  H7  1  0.08003968  0.78705879  0.91625373  1  0  0.104377  0  0.950146  0  0  0.113393  0  1.011575  0  0  0.116131  0  1.010992  0  0  0.116136  0.111398  0  1.01218  0
H  H8  1  0.57417814  0.09176109  0.66073570  1  0  0.104662  0  0.982171  0  0  0.108648  0  1.053062  0  0  0.112  0  1.049817  0  0  0.115929  0.106201  0  1.055604  0
H  H9  1  0.42584510  0.90824048  0.16072940  1  0  0.104772  0  0.982085  0  0  0.108759  0  1.052947  0  0  0.112112  0  1.0497  0  0  0.115954  0.106313  0  1.055489  0
H  H10  1  0.36772398  0.61923118  0.46012271  1  0  0.098854  0  0.959663  0  0  0.107579  0  1.023058  0  0  0.110258  0  1.019971  0  0  0.119106  0.105604  0  1.025385  0
H  H11  1  0.63224728  0.38076646  0.96012034  1  0  0.098838  0  0.959654  0  0  0.107576  0  1.023038  0  0  0.110254  0  1.019953  0  0  0.119109  0.105598  0  1.025365  0
H  H12  1  0.14365429  0.78834528  0.41558770  1  0  0.106548  0  0.949842  0  0  0.114576  0  1.011399  0  0  0.117594  0  1.010449  0  0  0.117249  0.112398  0  1.012269  0
H  H13  1  0.85631768  0.21164950  0.91558835  1  0  0.106623  0  0.949782  0  0  0.114674  0  1.01131  0  0  0.117697  0  1.010352  0  0  0.117254  0.112495  0  1.012183  0
H  H14  1  0.33772071  0.90768673  0.66784420  1  0  0.106016  0  0.984309  0  0  0.111179  0  1.051583  0  0  0.114453  0  1.048775  0  0  0.11725  0.108738  0  1.053941  0
H  H15  1  0.66228872  0.09231396  0.16784956  1  0  0.106081  0  0.984193  0  0  0.11113  0  1.05159  0  0  0.1144  0  1.048785  0  0  0.117233  0.108691  0  1.053944  0
H  H16  1  0.27042200  0.33979412  0.73400211  1  0  0.335131  0  0.922049  0  0  0.313182  0  0.993671  0  0  0.322116  0  0.985587  0  0  0.294468  0.306801  0  0.999419  0
H  H17  1  0.72957916  0.66020446  0.23399604  1  0  0.335298  0  0.921996  0  0  0.313358  0  0.993567  0  0  0.322287  0  0.985488  0  0  0.294546  0.306976  0  0.999317  0
H  H18  1  0.30369098  0.20541181  0.75898260  1  0  0.333216  0  0.907625  0  0  0.313888  0  0.973244  0  0  0.321791  0  0.966887  0  0  0.299636  0.308258  0  0.977729  0
H  H19  1  0.69632079  0.79458583  0.25897710  1  0  0.333144  0  0.907657  0  0  0.313857  0  0.973225  0  0  0.321756  0  0.966872  0  0  0.299614  0.308227  0  0.977709  0
H  H20  1  0.71436170  0.67498485  0.74958667  1  0  0.333577  0  0.928867  0  0  0.311597  0  1.001548  0  0  0.320751  0  0.992927  0  0  0.293452  0.305034  0  1.007755  0
H  H21  1  0.28563730  0.32501441  0.24958791  1  0  0.333575  0  0.928894  0  0  0.31163  0  1.001535  0  0  0.320785  0  0.992912  0  0  0.293459  0.305066  0  1.00774  0
H  H22  1  0.64346038  0.80690870  0.76882733  1  0  0.334847  0  0.907356  0  0  0.315701  0  0.972488  0  0  0.32366  0  0.966157  0  0  0.300135  0.309984  0  0.977018  0
H  H23  1  0.35654228  0.19309203  0.26882932  1  0  0.334854  0  0.907387  0  0  0.315723  0  0.972486  0  0  0.32368  0  0.966156  0  0  0.300167  0.310007  0  0.977014  0
C  C24  1  0.72395860  0.32483719  0.50463782  1  0  0.091449  0  3.727031  0  0  0.061275  0  3.978135  0  0  0.067452  0  3.996804  0  0  0.039598  0.057029  0  3.965926  0
C  C25  1  0.27604554  0.67516787  0.00463002  1  0  0.091339  0  3.726948  0  0  0.061181  0  3.978106  0  0  0.06737  0  3.996783  0  0  0.039551  0.05691  0  3.965936  0
C  C26  1  0.80765282  0.22655251  0.48007727  1  0  0.0125  0  3.701858  0  0  -0.024329  0  3.964067  0  0  -0.027235  0  3.986661  0  0  0.009276  -0.022757  0  3.949234  0
C  C27  1  0.19236302  0.77345309  0.98007119  1  0  0.012696  0  3.701968  0  0  -0.024138  0  3.964164  0  0  -0.027034  0  3.98676  0  0  0.009425  -0.022558  0  3.949322  0
C  C28  1  0.61232452  0.15816871  0.61497331  1  0  -0.038056  0  3.647234  0  0  -0.070498  0  3.903967  0  0  -0.070101  0  3.917133  0  0  0.03792  -0.071283  0  3.895623  0
C  C29  1  0.38769830  0.84183321  0.11496668  1  0  -0.038124  0  3.647316  0  0  -0.070528  0  3.904036  0  0  -0.070133  0  3.917203  0  0  0.037927  -0.071309  0  3.895695  0
C  C30  1  0.51801951  0.25852719  0.64048688  1  0  0.450408  0  3.811146  0  0  0.42248  0  4.06293  0  0  0.440485  0  4.079178  0  0  0.232571  0.410345  0  4.051692  0
C  C31  1  0.48199237  0.74147371  0.14047954  1  0  0.450453  0  3.811299  0  0  0.422518  0  4.063098  0  0  0.440528  0  4.079341  0  0  0.232637  0.410384  0  4.051857  0
C  C32  1  0.36471522  0.68413125  0.50655326  1  0  0.091802  0  3.724452  0  0  0.060646  0  3.977555  0  0  0.067247  0  3.996415  0  0  0.040777  0.05585  0  3.965565  0
C  C33  1  0.63527729  0.31586658  0.00655350  1  0  0.091894  0  3.724508  0  0  0.060771  0  3.97762  0  0  0.067374  0  3.996484  0  0  0.040781  0.055996  0  3.965592  0
C  C34  1  0.24030445  0.77668395  0.48135110  1  0  0.017864  0  3.699555  0  0  -0.019247  0  3.964467  0  0  -0.022048  0  3.985992  0  0  0.012143  -0.017691  0  3.950154  0
C  C35  1  0.75967280  0.22331435  0.98135293  1  0  0.017563  0  3.699588  0  0  -0.019572  0  3.964492  0  0  -0.022375  0  3.986013  0  0  0.012055  -0.018021  0  3.950188  0
C  C36  1  0.35155414  0.84420262  0.62072684  1  0  -0.036326  0  3.643641  0  0  -0.066997  0  3.897514  0  0  -0.06657  0  3.910659  0  0  0.03817  -0.067789  0  3.889104  0
C  C37  1  0.64844678  0.15579839  0.12073187  1  0  -0.036227  0  3.643432  0  0  -0.066934  0  3.897517  0  0  -0.066494  0  3.910652  0  0  0.038209  -0.067726  0  3.889108  0
C  C38  1  0.48659812  0.74983862  0.64721105  1  0  0.451416  0  3.825836  0  0  0.421999  0  4.081845  0  0  0.440028  0  4.097744  0  0  0.233201  0.409914  0  4.070707  0
C  C39  1  0.51339765  0.25016218  0.14721285  1  0  0.451471  0  3.825896  0  0  0.422114  0  4.08184  0  0  0.440144  0  4.097738  0  0  0.233263  0.410027  0  4.070703  0
N  N40  1  0.58881172  0.34261488  0.58443480  1  0  -0.385254  0  3.247761  0  0  -0.295566  0  3.51748  0  0  -0.317874  0  3.532925  0  0  -0.350319  -0.280385  0  3.506848  0
N  N41  1  0.41119466  0.65738721  0.08442850  1  0  -0.385329  0  3.247726  0  0  -0.29569  0  3.517526  0  0  -0.318002  0  3.53297  0  0  -0.350418  -0.280496  0  3.506879  0
N  N42  1  0.75879566  0.14370055  0.53741401  1  0  -0.249948  0  3.421953  0  0  -0.161433  0  3.697501  0  0  -0.173118  0  3.713468  0  0  -0.340065  -0.153119  0  3.686659  0
N  N43  1  0.24121877  0.85630270  0.03740915  1  0  -0.250028  0  3.42211  0  0  -0.161537  0  3.697686  0  0  -0.173221  0  3.713649  0  0  -0.340133  -0.153228  0  3.686849  0
N  N44  1  0.36621713  0.27012344  0.71866039  1  0  -0.645819  0  3.117314  0  0  -0.60368  0  3.343959  0  0  -0.628231  0  3.343749  0  0  -0.566875  -0.586554  0  3.343849  0
N  N45  1  0.63379737  0.72987530  0.21865388  1  0  -0.645863  0  3.117362  0  0  -0.603787  0  3.344077  0  0  -0.628338  0  3.343868  0  0  -0.566931  -0.586656  0  3.343972  0
N  N46  1  0.02216995  0.99432297  0.30768724  1  0  0.697461  0  4.138284  0  0  0.724979  0  4.432689  0  0  0.753658  0  4.438903  0  0  0.093638  0.705573  0  4.428007  0
N  N47  1  0.97782840  0.00567348  0.80768645  1  0  0.697335  0  4.138237  0  0  0.724969  0  4.432526  0  0  0.753585  0  4.43882  0  0  0.093777  0.705605  0  4.427785  0
N  N48  1  0.03258683  0.50105070  0.81291694  1  0  0.70248  0  4.132059  0  0  0.744221  0  4.410428  0  0  0.77353  0  4.415561  0  0  0.094794  0.724458  0  4.406493  0
N  N49  1  0.96741235  0.49894730  0.31291582  1  0  0.702653  0  4.131993  0  0  0.744272  0  4.410475  0  0  0.773578  0  4.415606  0  0  0.094946  0.724509  0  4.40654  0
N  N50  1  0.22858097  0.85622940  0.54034885  1  0  -0.250582  0  3.418321  0  0  -0.163673  0  3.694535  0  0  -0.174973  0  3.710104  0  0  -0.341253  -0.155579  0  3.683885  0
N  N51  1  0.77141303  0.14377058  0.04035403  1  0  -0.250587  0  3.418106  0  0  -0.163628  0  3.694259  0  0  -0.17493  0  3.709828  0  0  -0.341249  -0.155538  0  3.683618  0
N  N52  1  0.61362414  0.74170511  0.72831181  1  0  -0.648041  0  3.129639  0  0  -0.608192  0  3.361469  0  0  -0.632749  0  3.361197  0  0  -0.565843  -0.591049  0  3.361371  0
N  N53  1  0.38637467  0.25829430  0.22831414  1  0  -0.648111  0  3.129785  0  0  -0.608271  0  3.361547  0  0  -0.632828  0  3.361273  0  0  -0.565896  -0.591127  0  3.361448  0
N  N54  1  0.48062737  0.66856629  0.58882161  1  0  -0.40063  0  3.287678  0  0  -0.313269  0  3.570973  0  0  -0.335602  0  3.585507  0  0  -0.356316  -0.298027  0  3.560834  0
N  N55  1  0.51936248  0.33143492  0.08882234  1  0  -0.40059  0  3.287668  0  0  -0.313297  0  3.570998  0  0  -0.335633  0  3.585532  0  0  -0.356289  -0.29806  0  3.560866  0
O  O56  1  0.19590934  0.07169575  0.35128296  1  0  -0.479414  0  1.783696  0  0  -0.455852  0  2.00847  0  0  -0.472382  0  2.000199  0  0  -0.192604  -0.444102  0  2.014001  0
O  O57  1  0.80407592  0.92830034  0.85128111  1  0  -0.479432  0  1.78365  0  0  -0.455885  0  2.008392  0  0  -0.472387  0  2.000138  0  0  -0.192651  -0.444153  0  2.013914  0
O  O58  1  0.84187340  0.91509572  0.34758662  1  0  -0.476439  0  1.778041  0  0  -0.453674  0  1.999419  0  0  -0.470364  0  1.992103  0  0  -0.19039  -0.441905  0  2.004386  0
O  O59  1  0.15811262  0.08490199  0.84758937  1  0  -0.476436  0  1.777948  0  0  -0.45368  0  1.999297  0  0  -0.47037  0  1.992023  0  0  -0.190457  -0.441926  0  2.004252  0
O  O60  1  0.02893935  0.99645346  0.22523778  1  0  -0.474674  0  1.810051  0  0  -0.460858  0  2.041357  0  0  -0.476649  0  2.035037  0  0  -0.185816  -0.449684  0  2.045729  0
O  O61  1  0.97107790  0.00354523  0.72523700  1  0  -0.474457  0  1.810148  0  0  -0.460778  0  2.041461  0  0  -0.476543  0  2.035165  0  0  -0.185807  -0.449609  0  2.045809  0
O  O62  1  0.03974874  0.46409259  0.73432809  1  0  -0.537349  0  1.8954  0  0  -0.514005  0  2.162244  0  0  -0.532126  0  2.146976  0  0  -0.220286  -0.501304  0  2.172699  0
O  O63  1  0.96027129  0.53590605  0.23432677  1  0  -0.537376  0  1.895264  0  0  -0.514018  0  2.162198  0  0  -0.532125  0  2.146917  0  0  -0.220312  -0.501321  0  2.172657  0
O  O64  1  0.90233389  0.58589100  0.82627314  1  0  -0.461106  0  1.785685  0  0  -0.448192  0  1.991352  0  0  -0.463863  0  1.985787  0  0  -0.18241  -0.43724  0  1.99501  0
O  O65  1  0.09765463  0.41410687  0.32627639  1  0  -0.461026  0  1.785676  0  0  -0.448191  0  1.991424  0  0  -0.463874  0  1.985886  0  0  -0.182421  -0.437242  0  1.995084  0
O  O66  1  0.15474296  0.45141644  0.87448505  1  0  -0.447284  0  1.7429  0  0  -0.442414  0  1.950796  0  0  -0.457485  0  1.94483  0  0  -0.181481  -0.431844  0  1.954776  0
O  O67  1  0.84525028  0.54858428  0.37448226  1  0  -0.447437  0  1.74284  0  0  -0.442463  0  1.950765  0  0  -0.457535  0  1.944803  0  0  -0.181598  -0.431885  0  1.954736  0
