# generated using pymatgen
data_UH20(C2O)7
_symmetry_space_group_name_H-M   'P 1'
_cell_length_a   6.27751669
_cell_length_b   10.16399908
_cell_length_c   11.95802794
_cell_angle_alpha   92.62902515
_cell_angle_beta   97.19819828
_cell_angle_gamma   94.84507338
_symmetry_Int_Tables_number   1
_chemical_formula_structural   UH20(C2O)7
_chemical_formula_sum   'U2 H40 C28 O14'
_cell_volume   753.02911615
_cell_formula_units_Z   2
loop_
 _symmetry_equiv_pos_site_id
 _symmetry_equiv_pos_as_xyz
  1  'x, y, z'
loop_
 _atom_site_type_symbol
 _atom_site_label
 _atom_site_symmetry_multiplicity
 _atom_site_fract_x
 _atom_site_fract_y
 _atom_site_fract_z
 _atom_site_occupancy
 _atom_site_hle17_bader_spin_density
 _atom_site_hle17_ddec_charge
 _atom_site_hle17_ddec_spin_density
 _atom_site_hle17_ddec_sum_bond_order
 _atom_site_hle17_magmom
 _atom_site_hse06_10hf_bader_spin_density
 _atom_site_hse06_10hf_ddec_charge
 _atom_site_hse06_10hf_ddec_spin_density
 _atom_site_hse06_10hf_ddec_sum_bond_order
 _atom_site_hse06_10hf_magmom
 _atom_site_hse06_bader_spin_density
 _atom_site_hse06_ddec_charge
 _atom_site_hse06_ddec_spin_density
 _atom_site_hse06_ddec_sum_bond_order
 _atom_site_hse06_magmom
 _atom_site_pbe_bader_spin_density
 _atom_site_pbe_cm5_charge
 _atom_site_pbe_ddec_charge
 _atom_site_pbe_ddec_spin_density
 _atom_site_pbe_ddec_sum_bond_order
 _atom_site_pbe_magmom
U  U0  1  0.00051147  0.25147675  0.42138089  1  0  2.48815  0  4.121945  0  0  2.547645  0  4.778108  0  0  2.657692  0  4.742085  0  0  2.198434  2.469864  0  4.804061  0
U  U1  1  0.99943857  0.74852469  0.57861812  1  0  2.488621  0  4.121934  0  0  2.547965  0  4.778314  0  0  2.658118  0  4.742131  0  0  2.198755  2.470212  0  4.804231  0
H  H2  1  0.74175106  0.48417639  0.43614675  1  0  0.453528  0  0.833232  0  0  0.434244  0  0.878229  0  0  0.446232  0  0.860642  0  0  0.315344  0.425733  0  0.890732  0
H  H3  1  0.25815642  0.51583080  0.56384884  1  0  0.453593  0  0.833161  0  0  0.434292  0  0.878199  0  0  0.446283  0  0.860605  0  0  0.315388  0.425783  0  0.8907  0
H  H4  1  0.56297404  0.36199335  0.38684592  1  0  0.449572  0  0.844651  0  0  0.425821  0  0.896125  0  0  0.438633  0  0.877731  0  0  0.311389  0.416579  0  0.909359  0
H  H5  1  0.43696741  0.63800407  0.61314906  1  0  0.449613  0  0.844471  0  0  0.425811  0  0.896052  0  0  0.438626  0  0.877651  0  0  0.311427  0.416567  0  0.909287  0
H  H6  1  0.53113977  0.71921344  0.27277479  1  0  0.079273  0  0.928985  0  0  0.097089  0  0.988731  0  0  0.098143  0  0.988642  0  0  0.091596  0.096479  0  0.988636  0
H  H7  1  0.46885836  0.28077545  0.72723865  1  0  0.079429  0  0.928874  0  0  0.097199  0  0.988618  0  0  0.098259  0  0.988517  0  0  0.091614  0.096585  0  0.988531  0
H  H8  1  0.28475856  0.69627630  0.32980846  1  0  0.092464  0  0.949198  0  0  0.105696  0  1.013668  0  0  0.107626  0  1.01295  0  0  0.097665  0.104416  0  1.014127  0
H  H9  1  0.71521531  0.30371146  0.67019919  1  0  0.092617  0  0.949277  0  0  0.10582  0  1.013706  0  0  0.107746  0  1.012993  0  0  0.097747  0.104539  0  1.014169  0
H  H10  1  0.02987937  0.97274437  0.17423405  1  0  0.075188  0  0.953465  0  0  0.091627  0  1.017879  0  0  0.092669  0  1.01768  0  0  0.091075  0.090873  0  1.01829  0
H  H11  1  0.97015151  0.02726130  0.82576284  1  0  0.075264  0  0.953387  0  0  0.091623  0  1.017883  0  0  0.092662  0  1.017685  0  0  0.091064  0.090871  0  1.018294  0
H  H12  1  0.97834112  0.84430317  0.26516517  1  0  0.074233  0  0.939737  0  0  0.090355  0  1.004157  0  0  0.091841  0  1.003512  0  0  0.094846  0.089297  0  1.004621  0
H  H13  1  0.02166898  0.15569149  0.73482415  1  0  0.074331  0  0.939729  0  0  0.090444  0  1.004111  0  0  0.09193  0  1.003464  0  0  0.094867  0.089389  0  1.004577  0
H  H14  1  0.80519493  0.77968143  0.07062824  1  0  0.032771  0  0.963945  0  0  0.04862  0  1.024182  0  0  0.048766  0  1.025161  0  0  0.087383  0.04863  0  1.023337  0
H  H15  1  0.19482735  0.22033200  0.92935580  1  0  0.032792  0  0.963888  0  0  0.048713  0  1.023994  0  0  0.048856  0  1.024975  0  0  0.087422  0.048718  0  1.02315  0
H  H16  1  0.93951733  0.61003219  0.19932070  1  0  0.090507  0  0.950691  0  0  0.106841  0  1.011091  0  0  0.109079  0  1.00958  0  0  0.09216  0.105243  0  1.01209  0
H  H17  1  0.06047993  0.38997425  0.80066566  1  0  0.090398  0  0.950799  0  0  0.106779  0  1.011127  0  0  0.109022  0  1.009618  0  0  0.092149  0.105184  0  1.012135  0
H  H18  1  0.95451166  0.56091389  0.05724494  1  0  0.058973  0  0.985488  0  0  0.074408  0  1.055457  0  0  0.075184  0  1.055671  0  0  0.082364  0.073691  0  1.055688  0
H  H19  1  0.04550619  0.43909061  0.94273768  1  0  0.058994  0  0.985439  0  0  0.074399  0  1.055448  0  0  0.075174  0  1.055665  0  0  0.082395  0.073702  0  1.055657  0
H  H20  1  0.54979979  0.65070816  0.06926304  1  0  0.065638  0  0.965492  0  0  0.080999  0  1.034668  0  0  0.081637  0  1.035275  0  0  0.086646  0.080591  0  1.034096  0
H  H21  1  0.45022709  0.34927980  0.93074472  1  0  0.065647  0  0.965767  0  0  0.080982  0  1.034917  0  0  0.081627  0  1.035528  0  0  0.086577  0.080571  0  1.034349  0
H  H22  1  0.31350476  0.59142781  0.97822363  1  0  0.068681  0  0.950682  0  0  0.085648  0  1.016012  0  0  0.086361  0  1.01651  0  0  0.088521  0.085112  0  1.015769  0
H  H23  1  0.68653072  0.40857600  0.02178521  1  0  0.068699  0  0.950804  0  0  0.085644  0  1.016119  0  0  0.08636  0  1.016634  0  0  0.088559  0.085121  0  1.015846  0
H  H24  1  0.41822508  0.82724083  0.94630907  1  0  0.042443  0  0.925924  0  0  0.059064  0  0.979957  0  0  0.05951  0  0.980367  0  0  0.091738  0.058618  0  0.980055  0
H  H25  1  0.58184040  0.17275919  0.05370578  1  0  0.042353  0  0.925701  0  0  0.059037  0  0.979835  0  0  0.059483  0  0.980243  0  0  0.09173  0.058595  0  0.979931  0
H  H26  1  0.38314036  0.00106544  0.09716428  1  0  0.070811  0  0.942736  0  0  0.088872  0  1.003918  0  0  0.089626  0  1.004397  0  0  0.090991  0.088137  0  1.004061  0
H  H27  1  0.61691721  0.99893552  0.90284925  1  0  0.070725  0  0.942654  0  0  0.088896  0  1.003777  0  0  0.089656  0  1.004255  0  0  0.090941  0.088163  0  1.003914  0
H  H28  1  0.59464543  0.90324099  0.14112987  1  0  0.077304  0  0.942952  0  0  0.096795  0  1.001588  0  0  0.09742  0  1.002547  0  0  0.092451  0.096445  0  1.000667  0
H  H29  1  0.40536422  0.09673813  0.85889152  1  0  0.077219  0  0.942986  0  0  0.096755  0  1.001619  0  0  0.097375  0  1.002598  0  0  0.092489  0.096404  0  1.000693  0
H  H30  1  0.03134953  0.74071110  0.91622858  1  0  0.067086  0  0.949159  0  0  0.08442  0  1.01223  0  0  0.084998  0  1.012796  0  0  0.08905  0.08381  0  1.012183  0
H  H31  1  0.96870721  0.25930749  0.08376707  1  0  0.067294  0  0.948946  0  0  0.084447  0  1.012183  0  0  0.085026  0  1.012756  0  0  0.089069  0.083835  0  1.012132  0
H  H32  1  0.05973021  0.90897830  0.96411566  1  0  0.066188  0  0.959269  0  0  0.083025  0  1.023711  0  0  0.083897  0  1.023824  0  0  0.087515  0.082262  0  1.023916  0
H  H33  1  0.94033965  0.09103051  0.03588554  1  0  0.066205  0  0.959623  0  0  0.083166  0  1.023814  0  0  0.084036  0  1.02393  0  0  0.08757  0.0824  0  1.024025  0
H  H34  1  0.28055508  0.41682052  0.10450773  1  0  0.118616  0  0.925354  0  0  0.135588  0  0.983045  0  0  0.137171  0  0.983251  0  0  0.112963  0.133949  0  0.983628  0
H  H35  1  0.71944756  0.58317814  0.89549043  1  0  0.118622  0  0.925336  0  0  0.135589  0  0.983053  0  0  0.137174  0  0.983256  0  0  0.112975  0.133937  0  0.983659  0
H  H36  1  0.49973494  0.48302149  0.20153053  1  0  0.118382  0  0.9128  0  0  0.134748  0  0.966353  0  0  0.13707  0  0.965191  0  0  0.110924  0.133067  0  0.967242  0
H  H37  1  0.50025553  0.51697028  0.79847665  1  0  0.11828  0  0.912934  0  0  0.134692  0  0.966445  0  0  0.137006  0  0.965287  0  0  0.110918  0.133012  0  0.967333  0
H  H38  1  0.56303929  0.94520753  0.35485082  1  0  0.135789  0  0.919836  0  0  0.150317  0  0.976689  0  0  0.152979  0  0.975576  0  0  0.11807  0.148442  0  0.977581  0
H  H39  1  0.43695207  0.05479034  0.64517502  1  0  0.135732  0  0.919686  0  0  0.150306  0  0.976581  0  0  0.152967  0  0.975468  0  0  0.118079  0.148444  0  0.977459  0
H  H40  1  0.41340676  0.06701298  0.28967309  1  0  0.124969  0  0.928425  0  0  0.135627  0  0.990523  0  0  0.138185  0  0.989118  0  0  0.11147  0.134003  0  0.991542  0
H  H41  1  0.58660834  0.93298280  0.71032997  1  0  0.12498  0  0.928402  0  0  0.135671  0  0.990558  0  0  0.138229  0  0.989152  0  0  0.111503  0.134066  0  0.991559  0
C  C42  1  0.26576574  0.62330342  0.15435428  1  0  0.175261  0  3.533184  0  0  0.197609  0  3.764866  0  0  0.198228  0  3.784545  0  0  -0.012854  0.197313  0  3.751178  0
C  C43  1  0.73423355  0.37669425  0.84564531  1  0  0.175336  0  3.533403  0  0  0.197708  0  3.764995  0  0  0.198347  0  3.784651  0  0  -0.012833  0.197441  0  3.751239  0
C  C44  1  0.35513665  0.72310119  0.25342364  1  0  -0.225043  0  3.577736  0  0  -0.266049  0  3.80918  0  0  -0.269175  0  3.824203  0  0  -0.161697  -0.263621  0  3.798467  0
C  C45  1  0.64486320  0.27688866  0.74658576  1  0  -0.225474  0  3.578156  0  0  -0.266346  0  3.809394  0  0  -0.269472  0  3.824407  0  0  -0.161755  -0.263923  0  3.798689  0
C  C46  1  0.30801509  0.86494999  0.22407233  1  0  0.176325  0  3.530159  0  0  0.202358  0  3.758593  0  0  0.203008  0  3.778584  0  0  -0.008604  0.202127  0  3.744573  0
C  C47  1  0.69200044  0.13504882  0.77593839  1  0  0.176322  0  3.530149  0  0  0.202441  0  3.758512  0  0  0.203087  0  3.77851  0  0  -0.008593  0.202204  0  3.744503  0
C  C48  1  0.06336221  0.87088504  0.19298827  1  0  -0.204543  0  3.624777  0  0  -0.250108  0  3.868896  0  0  -0.252278  0  3.883104  0  0  -0.163832  -0.248495  0  3.858888  0
C  C49  1  0.93664872  0.12911559  0.80700548  1  0  -0.204891  0  3.625145  0  0  -0.250391  0  3.869136  0  0  -0.252563  0  3.88335  0  0  -0.163931  -0.248775  0  3.859132  0
C  C50  1  0.97967664  0.77419640  0.09181728  1  0  0.037879  0  3.650853  0  0  0.035432  0  3.893235  0  0  0.03502  0  3.910984  0  0  -0.095534  0.035711  0  3.880732  0
C  C51  1  0.02034148  0.22581010  0.90816710  1  0  0.037992  0  3.651297  0  0  0.035647  0  3.893322  0  0  0.035227  0  3.911082  0  0  -0.095449  0.035924  0  3.880823  0
C  C52  1  0.02132029  0.63410321  0.12596350  1  0  -0.205107  0  3.619838  0  0  -0.251503  0  3.865169  0  0  -0.253815  0  3.878878  0  0  -0.170325  -0.24971  0  3.855646  0
C  C53  1  0.97867536  0.36590322  0.87402276  1  0  -0.205062  0  3.619974  0  0  -0.251548  0  3.865329  0  0  -0.253801  0  3.878893  0  0  -0.170459  -0.24978  0  3.855824  0
C  C54  1  0.37590647  0.66095910  0.05060569  1  0  -0.199546  0  3.629043  0  0  -0.247104  0  3.880054  0  0  -0.249169  0  3.894633  0  0  -0.164984  -0.245378  0  3.869558  0
C  C55  1  0.62412380  0.33904175  0.94940605  1  0  -0.19965  0  3.629397  0  0  -0.247097  0  3.880511  0  0  -0.249186  0  3.895102  0  0  -0.16493  -0.245378  0  3.870016  0
C  C56  1  0.33573324  0.80208009  0.01954451  1  0  0.047283  0  3.626635  0  0  0.04484  0  3.868146  0  0  0.044723  0  3.885213  0  0  -0.090837  0.044909  0  3.856025  0
C  C57  1  0.66431643  0.19792180  0.98046435  1  0  0.047683  0  3.626044  0  0  0.044858  0  3.868172  0  0  0.044751  0  3.885249  0  0  -0.090858  0.044916  0  3.856055  0
C  C58  1  0.41843231  0.90062850  0.11986859  1  0  -0.19095  0  3.608124  0  0  -0.238213  0  3.856976  0  0  -0.240429  0  3.871626  0  0  -0.159596  -0.236304  0  3.846334  0
C  C59  1  0.58159717  0.09936648  0.88014960  1  0  -0.190759  0  3.607859  0  0  -0.238154  0  3.856984  0  0  -0.240387  0  3.871656  0  0  -0.159531  -0.236229  0  3.846321  0
C  C60  1  0.09266637  0.80922782  0.98930624  1  0  -0.167628  0  3.646144  0  0  -0.21244  0  3.897441  0  0  -0.21349  0  3.910926  0  0  -0.165548  -0.211486  0  3.888165  0
C  C61  1  0.90739732  0.19078289  0.01068961  1  0  -0.167989  0  3.646399  0  0  -0.212691  0  3.897762  0  0  -0.213748  0  3.911253  0  0  -0.16557  -0.211745  0  3.888489  0
C  C62  1  0.32358759  0.48312444  0.18139902  1  0  -0.316902  0  3.631066  0  0  -0.354234  0  3.867014  0  0  -0.360393  0  3.874536  0  0  -0.149441  -0.349798  0  3.862005  0
C  C63  1  0.67639832  0.51686924  0.81860207  1  0  -0.316648  0  3.630986  0  0  -0.354127  0  3.866976  0  0  -0.360286  0  3.874496  0  0  -0.149444  -0.349687  0  3.861978  0
C  C64  1  0.22061425  0.41196943  0.27111576  1  0  0.710912  0  3.786454  0  0  0.669363  0  4.096712  0  0  0.705675  0  4.088724  0  0  0.220359  0.644485  0  4.101326  0
C  C65  1  0.77935397  0.58803595  0.72887453  1  0  0.710647  0  3.787146  0  0  0.669236  0  4.097209  0  0  0.705548  0  4.08924  0  0  0.220347  0.644361  0  4.101824  0
C  C66  1  0.39923382  0.96740146  0.32129626  1  0  -0.340187  0  3.607334  0  0  -0.384192  0  3.839066  0  0  -0.392551  0  3.846998  0  0  -0.149914  -0.378289  0  3.833415  0
C  C67  1  0.60076804  0.03259135  0.67871170  1  0  -0.339996  0  3.606943  0  0  -0.384182  0  3.838944  0  0  -0.392552  0  3.846845  0  0  -0.149916  -0.378298  0  3.833291  0
C  C68  1  0.26748254  0.97102940  0.41809074  1  0  0.788569  0  3.717712  0  0  0.763643  0  4.006347  0  0  0.805193  0  3.990971  0  0  0.266704  0.734425  0  4.016554  0
C  C69  1  0.73247363  0.02895822  0.58190821  1  0  0.7885  0  3.717659  0  0  0.763578  0  4.006404  0  0  0.805184  0  3.990944  0  0  0.26676  0.734353  0  4.016624  0
O  O70  1  0.85665285  0.15648392  0.29970123  1  0  -0.690899  0  1.527079  0  0  -0.698806  0  1.808183  0  0  -0.719443  0  1.797044  0  0  -0.753412  -0.686576  0  1.816624  0
O  O71  1  0.14335068  0.84352153  0.70028300  1  0  -0.691011  0  1.527116  0  0  -0.698908  0  1.808272  0  0  -0.719571  0  1.797107  0  0  -0.753529  -0.686678  0  1.816718  0
O  O72  1  0.14848853  0.35243286  0.54155544  1  0  -0.744252  0  1.565142  0  0  -0.74845  0  1.848493  0  0  -0.770413  0  1.832027  0  0  -0.745495  -0.735106  0  1.860536  0
O  O73  1  0.85145712  0.64758337  0.45844210  1  0  -0.744301  0  1.565192  0  0  -0.748491  0  1.848573  0  0  -0.770457  0  1.832042  0  0  -0.745514  -0.735153  0  1.860626  0
O  O74  1  0.03351247  0.43154060  0.29465400  1  0  -0.616593  0  1.985493  0  0  -0.598593  0  2.241467  0  0  -0.631348  0  2.237637  0  0  -0.336782  -0.57505  0  2.242965  0
O  O75  1  0.96645174  0.56847066  0.70533288  1  0  -0.616695  0  1.985765  0  0  -0.598699  0  2.241691  0  0  -0.631474  0  2.237862  0  0  -0.336917  -0.575157  0  2.243195  0
O  O76  1  0.31887979  0.32041097  0.32276558  1  0  -0.680732  0  1.982115  0  0  -0.651518  0  2.226541  0  0  -0.683699  0  2.218441  0  0  -0.343248  -0.628592  0  2.231609  0
O  O77  1  0.68107683  0.67959153  0.67723892  1  0  -0.680691  0  1.98251  0  0  -0.651434  0  2.226854  0  0  -0.683631  0  2.218752  0  0  -0.343184  -0.628506  0  2.23192  0
O  O78  1  0.21295453  0.08279681  0.45377305  1  0  -0.68019  0  2.057565  0  0  -0.67869  0  2.344369  0  0  -0.716725  0  2.335943  0  0  -0.383694  -0.650908  0  2.348891  0
O  O79  1  0.78699664  0.91718969  0.54621217  1  0  -0.68026  0  2.057708  0  0  -0.678698  0  2.344517  0  0  -0.71676  0  2.336032  0  0  -0.383807  -0.65092  0  2.349042  0
O  O80  1  0.21375604  0.86473846  0.46333426  1  0  -0.654307  0  2.05295  0  0  -0.645894  0  2.328548  0  0  -0.682875  0  2.321078  0  0  -0.36164  -0.618943  0  2.332635  0
O  O81  1  0.78619479  0.13525704  0.53666294  1  0  -0.654156  0  2.052559  0  0  -0.64583  0  2.328264  0  0  -0.682805  0  2.320759  0  0  -0.361642  -0.618876  0  2.33236  0
O  O82  1  0.70714629  0.38668538  0.43285344  1  0  -0.870082  0  1.849321  0  0  -0.844959  0  2.028943  0  0  -0.870866  0  1.995722  0  0  -0.612296  -0.826031  0  2.052027  0
O  O83  1  0.29278763  0.61331586  0.56712863  1  0  -0.870139  0  1.848947  0  0  -0.845043  0  2.028641  0  0  -0.870966  0  1.995416  0  0  -0.612404  -0.826113  0  2.05172  0
