# generated using pymatgen
data_HoH8C6O7
_symmetry_space_group_name_H-M   'P 1'
_cell_length_a   7.62032220
_cell_length_b   10.67050178
_cell_length_c   12.64531961
_cell_angle_alpha   95.31592386
_cell_angle_beta   107.53106557
_cell_angle_gamma   110.92902768
_symmetry_Int_Tables_number   1
_chemical_formula_structural   HoH8C6O7
_chemical_formula_sum   'Ho4 H32 C24 O28'
_cell_volume   892.33288222
_cell_formula_units_Z   4
loop_
 _symmetry_equiv_pos_site_id
 _symmetry_equiv_pos_as_xyz
  1  'x, y, z'
loop_
 _atom_site_type_symbol
 _atom_site_label
 _atom_site_symmetry_multiplicity
 _atom_site_fract_x
 _atom_site_fract_y
 _atom_site_fract_z
 _atom_site_occupancy
 _atom_site_hle17_bader_spin_density
 _atom_site_hle17_ddec_charge
 _atom_site_hle17_ddec_spin_density
 _atom_site_hle17_ddec_sum_bond_order
 _atom_site_hle17_magmom
 _atom_site_hse06_10hf_bader_spin_density
 _atom_site_hse06_10hf_ddec_charge
 _atom_site_hse06_10hf_ddec_spin_density
 _atom_site_hse06_10hf_ddec_sum_bond_order
 _atom_site_hse06_10hf_magmom
 _atom_site_hse06_bader_spin_density
 _atom_site_hse06_ddec_charge
 _atom_site_hse06_ddec_spin_density
 _atom_site_hse06_ddec_sum_bond_order
 _atom_site_hse06_magmom
 _atom_site_pbe_bader_spin_density
 _atom_site_pbe_cm5_charge
 _atom_site_pbe_ddec_charge
 _atom_site_pbe_ddec_spin_density
 _atom_site_pbe_ddec_sum_bond_order
 _atom_site_pbe_magmom
Ho  Ho0  1  0.74412017  0.18933957  0.72960321  1  0  2.2777  0  1.601833  0  0  2.126967  0  2.070659  0  0  2.263434  0  1.871256  0  0  1.53517  2.089768  0  2.100101  0
Ho  Ho1  1  0.32514544  0.31060183  0.77034375  1  0  2.276907  0  1.604286  0  0  2.126192  0  2.073627  0  0  2.262739  0  1.874066  0  0  1.534821  2.088975  0  2.103083  0
Ho  Ho2  1  0.25587813  0.81066061  0.27039679  1  0  2.2777  0  1.601838  0  0  2.126971  0  2.070669  0  0  2.263439  0  1.871264  0  0  1.535178  2.089774  0  2.100111  0
Ho  Ho3  1  0.67485539  0.68939939  0.22965699  1  0  2.276914  0  1.604278  0  0  2.126213  0  2.073603  0  0  2.262749  0  1.874057  0  0  1.534822  2.088995  0  2.103059  0
H  H4  1  0.01002800  0.20183247  0.35066571  1  0  0.104571  0  0.912685  0  0  0.124271  0  0.963302  0  0  0.126385  0  0.962366  0  0  0.106417  0.122811  0  0.963782  0
H  H5  1  0.95750465  0.29831429  0.14922727  1  0  0.105104  0  0.912817  0  0  0.124785  0  0.963317  0  0  0.126876  0  0.962395  0  0  0.106674  0.123308  0  0.963832  0
H  H6  1  0.98997423  0.79816977  0.64933601  1  0  0.104571  0  0.912669  0  0  0.124259  0  0.963298  0  0  0.126377  0  0.962361  0  0  0.106405  0.122794  0  0.963782  0
H  H7  1  0.04249380  0.70168693  0.85077109  1  0  0.105099  0  0.91281  0  0  0.124767  0  0.963317  0  0  0.126857  0  0.962399  0  0  0.106654  0.123291  0  0.963832  0
H  H8  1  0.06867362  0.16424467  0.48571120  1  0  0.113437  0  0.940606  0  0  0.126206  0  1.003134  0  0  0.128569  0  1.002989  0  0  0.110866  0.124315  0  1.003667  0
H  H9  1  0.91859627  0.33580836  0.01414805  1  0  0.11414  0  0.941326  0  0  0.126919  0  1.003678  0  0  0.129266  0  1.003557  0  0  0.111532  0.12502  0  1.004215  0
H  H10  1  0.93132721  0.83575655  0.51428953  1  0  0.113404  0  0.940636  0  0  0.126158  0  1.003187  0  0  0.128521  0  1.003045  0  0  0.110828  0.124268  0  1.00372  0
H  H11  1  0.08140490  0.66419286  0.98585165  1  0  0.114146  0  0.941317  0  0  0.126919  0  1.003674  0  0  0.129267  0  1.003552  0  0  0.111534  0.12502  0  1.004211  0
H  H12  1  0.37304988  0.24186521  0.36251639  1  0  0.117613  0  0.912196  0  0  0.133159  0  0.965085  0  0  0.135921  0  0.963056  0  0  0.110531  0.131283  0  0.966219  0
H  H13  1  0.26840927  0.25814975  0.13740529  1  0  0.117759  0  0.912998  0  0  0.133166  0  0.965463  0  0  0.135974  0  0.963452  0  0  0.1104  0.131243  0  0.966633  0
H  H14  1  0.62694922  0.75813498  0.63748440  1  0  0.1176  0  0.912208  0  0  0.133145  0  0.965093  0  0  0.135908  0  0.963066  0  0  0.110521  0.131271  0  0.966228  0
H  H15  1  0.73159015  0.74185044  0.86259446  1  0  0.117752  0  0.913009  0  0  0.133162  0  0.965479  0  0  0.135969  0  0.963468  0  0  0.11039  0.13124  0  0.966648  0
H  H16  1  0.35098331  0.36377423  0.45941357  1  0  0.123249  0  0.919077  0  0  0.137444  0  0.976608  0  0  0.140248  0  0.974622  0  0  0.110781  0.135553  0  0.977713  0
H  H17  1  0.02750288  0.13628716  0.04055988  1  0  0.123059  0  0.919859  0  0  0.137072  0  0.977189  0  0  0.139924  0  0.975185  0  0  0.110784  0.135165  0  0.978301  0
H  H18  1  0.64901944  0.63622699  0.54058770  1  0  0.123253  0  0.91909  0  0  0.137448  0  0.976613  0  0  0.140252  0  0.974627  0  0  0.110785  0.135557  0  0.977717  0
H  H19  1  0.97249481  0.86371200  0.95943994  1  0  0.12306  0  0.919893  0  0  0.13708  0  0.977216  0  0  0.139931  0  0.975214  0  0  0.110784  0.135174  0  0.978328  0
H  H20  1  0.30346387  0.00024934  0.91748092  1  0  0.113169  0  0.90194  0  0  0.131105  0  0.953881  0  0  0.133063  0  0.953285  0  0  0.112423  0.129651  0  0.954324  0
H  H21  1  0.88587438  0.49990613  0.58258551  1  0  0.112407  0  0.902297  0  0  0.130535  0  0.954389  0  0  0.132469  0  0.953863  0  0  0.112304  0.129193  0  0.954683  0
H  H22  1  0.69653382  0.99974981  0.08251889  1  0  0.113144  0  0.901915  0  0  0.131126  0  0.953869  0  0  0.133086  0  0.953275  0  0  0.112432  0.129672  0  0.954312  0
H  H23  1  0.11412546  0.50009097  0.41741317  1  0  0.112406  0  0.902347  0  0  0.130538  0  0.95441  0  0  0.132468  0  0.953885  0  0  0.112324  0.129197  0  0.954701  0
H  H24  1  0.47987613  0.13670648  0.03088313  1  0  0.124749  0  0.921536  0  0  0.139919  0  0.975625  0  0  0.142921  0  0.973764  0  0  0.11178  0.137998  0  0.976427  0
H  H25  1  0.81221650  0.36333829  0.46920893  1  0  0.125057  0  0.921405  0  0  0.140216  0  0.97546  0  0  0.14322  0  0.973616  0  0  0.111961  0.138216  0  0.976427  0
H  H26  1  0.52012409  0.86329371  0.96911741  1  0  0.124719  0  0.921544  0  0  0.139926  0  0.975646  0  0  0.142931  0  0.973785  0  0  0.111778  0.138007  0  0.976448  0
H  H27  1  0.18778362  0.63665983  0.53079098  1  0  0.125066  0  0.92145  0  0  0.140214  0  0.975498  0  0  0.143215  0  0.973656  0  0  0.11196  0.138214  0  0.976465  0
H  H28  1  0.31162991  0.00502210  0.64706162  1  0  0.432189  0  0.864787  0  0  0.402826  0  0.925971  0  0  0.414067  0  0.909723  0  0  0.298504  0.395093  0  0.937237  0
H  H29  1  0.15966843  0.49495910  0.85298844  1  0  0.431524  0  0.866015  0  0  0.402251  0  0.926991  0  0  0.41348  0  0.910789  0  0  0.297765  0.394476  0  0.9383  0
H  H30  1  0.68836873  0.99497809  0.35293734  1  0  0.4322  0  0.864777  0  0  0.402835  0  0.925964  0  0  0.414076  0  0.909715  0  0  0.298505  0.3951  0  0.937231  0
H  H31  1  0.84033038  0.50504005  0.14701112  1  0  0.431506  0  0.86605  0  0  0.402237  0  0.927021  0  0  0.413465  0  0.910821  0  0  0.297735  0.394476  0  0.938319  0
H  H32  1  0.41602810  0.92290833  0.58794484  1  0  0.45036  0  0.84311  0  0  0.419344  0  0.905988  0  0  0.431155  0  0.888839  0  0  0.301482  0.411249  0  0.917856  0
H  H33  1  0.40526791  0.57712303  0.91207737  1  0  0.450736  0  0.842473  0  0  0.419711  0  0.905344  0  0  0.431536  0  0.888172  0  0  0.301579  0.411666  0  0.917096  0
H  H34  1  0.58397184  0.07709082  0.41205447  1  0  0.450366  0  0.843102  0  0  0.419353  0  0.905975  0  0  0.431162  0  0.888829  0  0  0.301496  0.411259  0  0.917842  0
H  H35  1  0.59473090  0.42287613  0.08792219  1  0  0.450762  0  0.84244  0  0  0.419736  0  0.905309  0  0  0.431561  0  0.888138  0  0  0.301572  0.411691  0  0.917062  0
C  C36  1  0.04827267  0.01358759  0.35431647  1  0  0.763704  0  3.780096  0  0  0.719604  0  4.079099  0  0  0.754726  0  4.072593  0  0  0.239671  0.696299  0  4.085398  0
C  C37  1  0.18032277  0.48652903  0.14552747  1  0  0.76011  0  3.786648  0  0  0.717195  0  4.08384  0  0  0.752261  0  4.077483  0  0  0.239006  0.693915  0  4.090046  0
C  C38  1  0.95172643  0.98641260  0.64568433  1  0  0.763711  0  3.780166  0  0  0.719681  0  4.079054  0  0  0.754802  0  4.072553  0  0  0.239711  0.696375  0  4.085355  0
C  C39  1  0.81968387  0.51347116  0.85447260  1  0  0.760124  0  3.786536  0  0  0.717215  0  4.083708  0  0  0.752283  0  4.077349  0  0  0.23902  0.69393  0  4.089926  0
C  C40  1  0.57703198  0.10633577  0.89396476  1  0  0.735049  0  3.815005  0  0  0.691437  0  4.112036  0  0  0.725044  0  4.111402  0  0  0.209644  0.668363  0  4.117891  0
C  C41  1  0.07674306  0.39373394  0.60604098  1  0  0.73415  0  3.817885  0  0  0.691385  0  4.113724  0  0  0.725043  0  4.113013  0  0  0.209057  0.668316  0  4.119552  0
C  C42  1  0.42296544  0.89366236  0.10603382  1  0  0.735024  0  3.814917  0  0  0.691426  0  4.112002  0  0  0.725033  0  4.111371  0  0  0.209661  0.66835  0  4.117861  0
C  C43  1  0.92326053  0.60626625  0.39395881  1  0  0.734225  0  3.817727  0  0  0.691438  0  4.113579  0  0  0.725095  0  4.112866  0  0  0.209084  0.668366  0  4.119406  0
C  C44  1  0.47248551  0.23185615  0.53670621  1  0  0.752596  0  3.762152  0  0  0.709004  0  4.055906  0  0  0.74344  0  4.053654  0  0  0.226624  0.685502  0  4.062455  0
C  C45  1  0.20386968  0.26796653  0.96318876  1  0  0.752917  0  3.75968  0  0  0.708054  0  4.054934  0  0  0.742491  0  4.052826  0  0  0.227284  0.684507  0  4.061424  0
C  C46  1  0.52751532  0.76814507  0.46329453  1  0  0.752562  0  3.762152  0  0  0.708968  0  4.055905  0  0  0.743407  0  4.053652  0  0  0.226583  0.685465  0  4.062453  0
C  C47  1  0.79612914  0.73203262  0.03681081  1  0  0.75292  0  3.75967  0  0  0.70807  0  4.054909  0  0  0.742505  0  4.052798  0  0  0.22731  0.684522  0  4.061397  0
C  C48  1  0.10772204  0.16302367  0.40884506  1  0  -0.238855  0  3.636992  0  0  -0.279677  0  3.889861  0  0  -0.284338  0  3.895272  0  0  -0.153866  -0.275891  0  3.884361  0
C  C49  1  0.03575670  0.33706805  0.09099084  1  0  -0.238942  0  3.638148  0  0  -0.280434  0  3.890405  0  0  -0.285005  0  3.895798  0  0  -0.15463  -0.27669  0  3.884896  0
C  C50  1  0.89227827  0.83697858  0.59115612  1  0  -0.238767  0  3.637  0  0  -0.279594  0  3.889838  0  0  -0.284257  0  3.895248  0  0  -0.153791  -0.275807  0  3.884347  0
C  C51  1  0.96424385  0.66293214  0.90900866  1  0  -0.238953  0  3.638131  0  0  -0.280425  0  3.890372  0  0  -0.284997  0  3.89576  0  0  -0.154632  -0.27668  0  3.884867  0
C  C52  1  0.32996388  0.25617906  0.43653590  1  0  -0.234676  0  3.638689  0  0  -0.276806  0  3.891738  0  0  -0.280543  0  3.895683  0  0  -0.156459  -0.273678  0  3.887395  0
C  C53  1  0.13706008  0.24384665  0.06336373  1  0  -0.235465  0  3.639465  0  0  -0.276113  0  3.890597  0  0  -0.280016  0  3.894771  0  0  -0.156344  -0.272866  0  3.886122  0
C  C54  1  0.67003685  0.74382010  0.56346420  1  0  -0.234712  0  3.638741  0  0  -0.276838  0  3.891766  0  0  -0.280579  0  3.895718  0  0  -0.156481  -0.273711  0  3.887422  0
C  C55  1  0.86293935  0.75615354  0.93663603  1  0  -0.235485  0  3.639495  0  0  -0.276149  0  3.890618  0  0  -0.280051  0  3.894793  0  0  -0.156341  -0.272899  0  3.88614  0
C  C56  1  0.46507813  0.04984076  0.97004570  1  0  -0.236529  0  3.682376  0  0  -0.275893  0  3.933199  0  0  -0.280241  0  3.938841  0  0  -0.15798  -0.272366  0  3.927765  0
C  C57  1  0.94518851  0.45023835  0.52999073  1  0  -0.23569  0  3.682013  0  0  -0.275633  0  3.933562  0  0  -0.279954  0  3.939143  0  0  -0.157956  -0.272125  0  3.928175  0
C  C58  1  0.53491877  0.95015839  0.02995332  1  0  -0.236395  0  3.682234  0  0  -0.27598  0  3.933242  0  0  -0.280336  0  3.938891  0  0  -0.157997  -0.272452  0  3.927809  0
C  C59  1  0.05481256  0.54976080  0.47000833  1  0  -0.235764  0  3.68211  0  0  -0.275649  0  3.933618  0  0  -0.279959  0  3.939187  0  0  -0.157937  -0.272141  0  3.928231  0
O  O60  1  0.18444220  0.98161587  0.33910515  1  0  -0.704722  0  2.057788  0  0  -0.648537  0  2.31195  0  0  -0.686422  0  2.297535  0  0  -0.398396  -0.630826  0  2.318367  0
O  O61  1  0.36374178  0.51846805  0.16093267  1  0  -0.702663  0  2.058936  0  0  -0.647366  0  2.312921  0  0  -0.685314  0  2.298681  0  0  -0.398002  -0.629501  0  2.319147  0
O  O62  1  0.81555577  0.01838432  0.66089590  1  0  -0.704736  0  2.057814  0  0  -0.648581  0  2.311941  0  0  -0.686467  0  2.297526  0  0  -0.398416  -0.63087  0  2.318359  0
O  O63  1  0.63625877  0.48153214  0.83906683  1  0  -0.702666  0  2.058752  0  0  -0.647396  0  2.312769  0  0  -0.685339  0  2.298516  0  0  -0.398008  -0.629525  0  2.318998  0
O  O64  1  0.71045609  0.06904022  0.88146053  1  0  -0.65751  0  1.953196  0  0  -0.613199  0  2.188914  0  0  -0.645721  0  2.179675  0  0  -0.358245  -0.596558  0  2.193832  0
O  O65  1  0.25994546  0.43101048  0.61849435  1  0  -0.657177  0  1.953217  0  0  -0.613398  0  2.188917  0  0  -0.645943  0  2.179584  0  0  -0.35757  -0.596663  0  2.193798  0
O  O66  1  0.28954133  0.93095791  0.11853805  1  0  -0.657513  0  1.953142  0  0  -0.613196  0  2.188856  0  0  -0.64572  0  2.179618  0  0  -0.358269  -0.596557  0  2.193776  0
O  O67  1  0.74005421  0.56898765  0.38150372  1  0  -0.657208  0  1.953155  0  0  -0.613429  0  2.188867  0  0  -0.645977  0  2.179536  0  0  -0.357587  -0.596692  0  2.193749  0
O  O68  1  0.59467783  0.18093956  0.52479662  1  0  -0.687297  0  2.048755  0  0  -0.632789  0  2.284866  0  0  -0.666444  0  2.274256  0  0  -0.341135  -0.61505  0  2.290916  0
O  O69  1  0.38891486  0.31888527  0.97513286  1  0  -0.687809  0  2.046025  0  0  -0.6327  0  2.282398  0  0  -0.666362  0  2.271873  0  0  -0.341782  -0.614963  0  2.288247  0
O  O70  1  0.40532178  0.81905960  0.47520373  1  0  -0.687285  0  2.048773  0  0  -0.632757  0  2.284856  0  0  -0.666416  0  2.274249  0  0  -0.341117  -0.615017  0  2.290905  0
O  O71  1  0.61108456  0.68111491  0.02486689  1  0  -0.687793  0  2.046022  0  0  -0.632701  0  2.282403  0  0  -0.666361  0  2.271878  0  0  -0.341787  -0.614964  0  2.288253  0
O  O72  1  0.53591108  0.19545775  0.83970602  1  0  -0.851795  0  2.17824  0  0  -0.798341  0  2.450505  0  0  -0.845538  0  2.439942  0  0  -0.460915  -0.779387  0  2.456098  0
O  O73  1  0.00073611  0.30455146  0.66026708  1  0  -0.85119  0  2.178787  0  0  -0.797814  0  2.45051  0  0  -0.845008  0  2.439862  0  0  -0.460331  -0.778878  0  2.456146  0
O  O74  1  0.46408774  0.80454141  0.16029354  1  0  -0.851787  0  2.178259  0  0  -0.798322  0  2.450523  0  0  -0.845518  0  2.439966  0  0  -0.460906  -0.779368  0  2.456119  0
O  O75  1  0.99926618  0.69544975  0.33973236  1  0  -0.851215  0  2.178711  0  0  -0.797848  0  2.450462  0  0  -0.845042  0  2.43982  0  0  -0.460369  -0.778924  0  2.45613  0
O  O76  1  0.47742726  0.26592958  0.63820347  1  0  -0.829528  0  2.147039  0  0  -0.771107  0  2.406442  0  0  -0.818458  0  2.396597  0  0  -0.431016  -0.751854  0  2.411464  0
O  O77  1  0.07329376  0.23384763  0.86167673  1  0  -0.828708  0  2.147715  0  0  -0.770244  0  2.407872  0  0  -0.817588  0  2.3981  0  0  -0.43093  -0.750973  0  2.412826  0
O  O78  1  0.52257427  0.73406958  0.36179742  1  0  -0.829502  0  2.146988  0  0  -0.771082  0  2.406384  0  0  -0.818424  0  2.396523  0  0  -0.430998  -0.751831  0  2.411408  0
O  O79  1  0.92670506  0.76615153  0.13832283  1  0  -0.828694  0  2.147686  0  0  -0.77023  0  2.407841  0  0  -0.817574  0  2.398068  0  0  -0.43093  -0.750959  0  2.412799  0
O  O80  1  0.86429151  0.92965047  0.32761496  1  0  -0.747069  0  2.032104  0  0  -0.693017  0  2.281056  0  0  -0.730331  0  2.268202  0  0  -0.367586  -0.674413  0  2.287225  0
O  O81  1  0.10697156  0.57047025  0.17217217  1  0  -0.746122  0  2.034577  0  0  -0.692393  0  2.282824  0  0  -0.729649  0  2.270051  0  0  -0.367624  -0.673829  0  2.288983  0
O  O82  1  0.13570679  0.07034972  0.67238505  1  0  -0.747087  0  2.032114  0  0  -0.693056  0  2.281029  0  0  -0.730367  0  2.268169  0  0  -0.36761  -0.674451  0  2.287198  0
O  O83  1  0.89303029  0.42952890  0.82782768  1  0  -0.746142  0  2.034654  0  0  -0.692394  0  2.28287  0  0  -0.729653  0  2.2701  0  0  -0.367628  -0.673827  0  2.289028  0
O  O84  1  0.43516298  0.98938385  0.65538281  1  0  -0.920369  0  1.8845  0  0  -0.871716  0  2.07183  0  0  -0.900746  0  2.033251  0  0  -0.648592  -0.857756  0  2.093808  0
O  O85  1  0.29050594  0.51064268  0.84463015  1  0  -0.920137  0  1.885511  0  0  -0.871543  0  2.072982  0  0  -0.900581  0  2.034365  0  0  -0.647701  -0.857569  0  2.094965  0
O  O86  1  0.56483550  0.01061531  0.34461780  1  0  -0.920385  0  1.884481  0  0  -0.871745  0  2.071837  0  0  -0.900773  0  2.033259  0  0  -0.648613  -0.857786  0  2.093817  0
O  O87  1  0.70949461  0.48935751  0.15536935  1  0  -0.920149  0  1.885536  0  0  -0.87156  0  2.072994  0  0  -0.900595  0  2.034381  0  0  -0.647656  -0.8576  0  2.094944  0
