# generated using pymatgen
data_CdH16C12N2O9
_symmetry_space_group_name_H-M   'P 1'
_cell_length_a   5.00396997
_cell_length_b   5.00402402
_cell_length_c   30.91869854
_cell_angle_alpha   88.21151298
_cell_angle_beta   88.21066724
_cell_angle_gamma   86.55717850
_symmetry_Int_Tables_number   1
_chemical_formula_structural   CdH16C12N2O9
_chemical_formula_sum   'Cd2 H32 C24 N4 O18'
_cell_volume   772.09573610
_cell_formula_units_Z   2
loop_
 _symmetry_equiv_pos_site_id
 _symmetry_equiv_pos_as_xyz
  1  'x, y, z'
loop_
 _atom_site_type_symbol
 _atom_site_label
 _atom_site_symmetry_multiplicity
 _atom_site_fract_x
 _atom_site_fract_y
 _atom_site_fract_z
 _atom_site_occupancy
 _atom_site_pbe_bader_spin_density
 _atom_site_pbe_cm5_charge
 _atom_site_pbe_ddec_charge
 _atom_site_pbe_ddec_spin_density
 _atom_site_pbe_ddec_sum_bond_order
 _atom_site_pbe_magmom
Cd  Cd0  1  0.25493104  0.74505549  0.75000079  1  0  0.798899  1.118914  0  1.992296  0
Cd  Cd1  1  0.74505949  0.25493589  0.24999938  1  0  0.798898  1.11889  0  1.992365  0
H  H2  1  0.36069925  0.38893113  0.85868465  1  0  0.121374  0.120417  0  0.976589  0
H  H3  1  0.61103804  0.63926934  0.64132043  1  0  0.121363  0.120357  0  0.976581  0
H  H4  1  0.63927784  0.61105050  0.14131901  1  0  0.121325  0.120314  0  0.976677  0
H  H5  1  0.38896585  0.36074129  0.35867789  1  0  0.12135  0.12028  0  0.976625  0
H  H6  1  0.18587279  0.12826567  0.88486647  1  0  0.110875  0.101831  0  1.005238  0
H  H7  1  0.87169888  0.81411772  0.61513727  1  0  0.110908  0.101809  0  1.005249  0
H  H8  1  0.81413389  0.87170105  0.11513692  1  0  0.110926  0.101823  0  1.005242  0
H  H9  1  0.12829868  0.18588746  0.38486135  1  0  0.110948  0.101841  0  1.00525  0
H  H10  1  0.00077043  0.34663793  0.94077807  1  0  0.10844  0.106425  0  1.0089  0
H  H11  1  0.65336025  0.99922870  0.55922274  1  0  0.108435  0.106452  0  1.008951  0
H  H12  1  0.99924069  0.65337492  0.05922352  1  0  0.108428  0.106436  0  1.008963  0
H  H13  1  0.34663472  0.00076654  0.44077648  1  0  0.10845  0.106487  0  1.008872  0
H  H14  1  0.69008165  0.63164670  0.99946936  1  0  0.103552  0.103112  0  1.026347  0
H  H15  1  0.36835316  0.30992622  0.50053128  1  0  0.10354  0.103105  0  1.026337  0
H  H16  1  0.30993747  0.36836534  0.00053225  1  0  0.103546  0.10315  0  1.026258  0
H  H17  1  0.63163373  0.69006784  0.49946791  1  0  0.103536  0.10308  0  1.026257  0
H  H18  1  0.89218027  0.58136684  0.81819552  1  0  0.313702  0.421288  0  0.890566  0
H  H19  1  0.41862249  0.10779969  0.68180566  1  0  0.313719  0.421303  0  0.890529  0
H  H20  1  0.10781426  0.41862414  0.18180466  1  0  0.313689  0.42126  0  0.890598  0
H  H21  1  0.58136863  0.89220184  0.31819389  1  0  0.313731  0.421323  0  0.890523  0
H  H22  1  0.07648156  0.29707072  0.80527366  1  0  0.293767  0.396106  0  0.945237  0
H  H23  1  0.70292180  0.92350790  0.69472792  1  0  0.29375  0.396091  0  0.94526  0
H  H24  1  0.92351911  0.70292553  0.19472688  1  0  0.293768  0.396103  0  0.94525  0
H  H25  1  0.29706732  0.07649383  0.30527163  1  0  0.293769  0.396107  0  0.945235  0
H  H26  1  0.56749972  0.26042024  0.73338071  1  0  0.287291  0.394936  0  0.949284  0
H  H27  1  0.73957053  0.43248973  0.76661662  1  0  0.287298  0.394941  0  0.949262  0
H  H28  1  0.43249380  0.73957766  0.26661690  1  0  0.287314  0.395001  0  0.949188  0
H  H29  1  0.26042093  0.56750449  0.23338065  1  0  0.287294  0.394978  0  0.949234  0
H  H30  1  0.62135525  0.35926656  0.91507652  1  0  0.302663  0.269584  0  1.003258  0
H  H31  1  0.64071692  0.37863956  0.58492539  1  0  0.302641  0.269563  0  1.00326  0
H  H32  1  0.37864716  0.64072730  0.08492466  1  0  0.302664  0.269552  0  1.003291  0
H  H33  1  0.35928427  0.62136484  0.41507453  1  0  0.302636  0.269558  0  1.003284  0
C  C34  1  0.44020616  0.99914393  0.83286221  1  0  0.212833  0.616787  0  4.163582  0
C  C35  1  0.00084847  0.55979184  0.66713757  1  0  0.212903  0.616851  0  4.163454  0
C  C36  1  0.55979650  0.00085401  0.16713867  1  0  0.212814  0.616773  0  4.163488  0
C  C37  1  0.99913985  0.44022848  0.33286042  1  0  0.213018  0.61686  0  4.163337  0
C  C38  1  0.38276776  0.18125323  0.87130076  1  0  -0.06136  -0.158212  0  3.929057  0
C  C39  1  0.81871704  0.61722393  0.62870184  1  0  -0.061475  -0.158178  0  3.929008  0
C  C40  1  0.61723380  0.81872452  0.12870103  1  0  -0.061426  -0.158157  0  3.929042  0
C  C41  1  0.18128277  0.38278701  0.37129680  1  0  -0.061487  -0.158115  0  3.929049  0
C  C42  1  0.63299297  0.95370583  0.92995198  1  0  0.237385  0.46806  0  4.143028  0
C  C43  1  0.04628205  0.36701475  0.57004945  1  0  0.237373  0.467989  0  4.143157  0
C  C44  1  0.36702540  0.04629020  0.07004991  1  0  0.237397  0.468116  0  4.143272  0
C  C45  1  0.95371393  0.63299868  0.42994886  1  0  0.237349  0.468098  0  4.143067  0
C  C46  1  0.82249665  0.98466631  0.96576989  1  0  -0.010268  -0.027278  0  3.970508  0
C  C47  1  0.01533064  0.17751279  0.53423007  1  0  -0.010264  -0.027289  0  3.970629  0
C  C48  1  0.17751396  0.01533840  0.03423233  1  0  -0.010356  -0.027605  0  3.970835  0
C  C49  1  0.98466116  0.82249897  0.46576854  1  0  -0.010302  -0.027442  0  3.97073  0
C  C50  1  0.99782338  0.19296808  0.96652888  1  0  -0.081688  -0.098627  0  3.964139  0
C  C51  1  0.80702324  0.00218351  0.53347207  1  0  -0.081704  -0.098694  0  3.964147  0
C  C52  1  0.00219125  0.80703242  0.03347268  1  0  -0.081622  -0.098407  0  3.964048  0
C  C53  1  0.19297188  0.99781761  0.46652750  1  0  -0.081683  -0.098582  0  3.964051  0
C  C54  1  0.82680080  0.79280920  0.99973578  1  0  -0.080071  -0.08675  0  3.964427  0
C  C55  1  0.20718966  0.17320873  0.50026458  1  0  -0.080051  -0.086699  0  3.96451  0
C  C56  1  0.17321600  0.20719318  0.00026548  1  0  -0.080039  -0.086644  0  3.964302  0
C  C57  1  0.79280939  0.82678809  0.49973466  1  0  -0.079974  -0.086512  0  3.964268  0
N  N58  1  0.58029181  0.17446256  0.90436873  1  0  -0.421413  -0.339045  0  3.582453  0
N  N59  1  0.82551747  0.41970498  0.59563267  1  0  -0.421416  -0.339061  0  3.582453  0
N  N60  1  0.41971052  0.82552932  0.09563245  1  0  -0.421369  -0.33896  0  3.582538  0
N  N61  1  0.17447999  0.58030200  0.40436660  1  0  -0.421357  -0.339031  0  3.582487  0
O  O62  1  0.24416062  0.01966738  0.80579426  1  0  -0.337086  -0.605998  0  2.345608  0
O  O63  1  0.98032946  0.75583129  0.69420644  1  0  -0.337098  -0.606033  0  2.345575  0
O  O64  1  0.75584795  0.98032795  0.19420663  1  0  -0.337127  -0.606037  0  2.345528  0
O  O65  1  0.01966817  0.24417778  0.30579250  1  0  -0.337158  -0.606071  0  2.345498  0
O  O66  1  0.64630124  0.85089639  0.82871055  1  0  -0.315525  -0.546705  0  2.195719  0
O  O67  1  0.14909495  0.35369728  0.67129233  1  0  -0.315532  -0.546714  0  2.195649  0
O  O68  1  0.35371036  0.14908992  0.17129259  1  0  -0.315449  -0.546616  0  2.195722  0
O  O69  1  0.85090690  0.64632114  0.32870730  1  0  -0.315573  -0.54667  0  2.195647  0
O  O70  1  0.53089654  0.73597274  0.92431065  1  0  -0.306566  -0.504483  0  2.150025  0
O  O71  1  0.26399952  0.46912884  0.57568837  1  0  -0.306511  -0.50438  0  2.150016  0
O  O72  1  0.46913002  0.26402266  0.07569062  1  0  -0.306578  -0.504515  0  2.149951  0
O  O73  1  0.73598277  0.53088251  0.42430827  1  0  -0.30658  -0.50454  0  2.149819  0
O  O74  1  0.98996701  0.47734029  0.79550040  1  0  -0.566332  -0.777846  0  2.162377  0
O  O75  1  0.52264622  0.01001885  0.70450118  1  0  -0.566315  -0.777804  0  2.162419  0
O  O76  1  0.01002560  0.52265289  0.20449979  1  0  -0.566306  -0.777796  0  2.162399  0
O  O77  1  0.47733883  0.98997940  0.29549803  1  0  -0.566362  -0.777875  0  2.162398  0
O  O78  1  0.57201331  0.42799960  0.74999527  1  0  -0.622063  -0.826251  0  2.167228  0
O  O79  1  0.42799417  0.57201431  0.24999789  1  0  -0.622075  -0.826332  0  2.167087  0
