# generated using pymatgen
data_Zn5H34(C13O16)2
_symmetry_space_group_name_H-M   'P 1'
_cell_length_a   7.68209608
_cell_length_b   10.20511161
_cell_length_c   12.16907620
_cell_angle_alpha   89.98508560
_cell_angle_beta   90.23038721
_cell_angle_gamma   88.05155212
_symmetry_Int_Tables_number   1
_chemical_formula_structural   Zn5H34(C13O16)2
_chemical_formula_sum   'Zn5 H34 C26 O32'
_cell_volume   953.45540989
_cell_formula_units_Z   1
loop_
 _symmetry_equiv_pos_site_id
 _symmetry_equiv_pos_as_xyz
  1  'x, y, z'
loop_
 _atom_site_type_symbol
 _atom_site_label
 _atom_site_symmetry_multiplicity
 _atom_site_fract_x
 _atom_site_fract_y
 _atom_site_fract_z
 _atom_site_occupancy
 _atom_site_hle17_bader_spin_density
 _atom_site_hle17_ddec_charge
 _atom_site_hle17_ddec_spin_density
 _atom_site_hle17_ddec_sum_bond_order
 _atom_site_hle17_magmom
 _atom_site_hse06_10hf_bader_spin_density
 _atom_site_hse06_10hf_ddec_charge
 _atom_site_hse06_10hf_ddec_spin_density
 _atom_site_hse06_10hf_ddec_sum_bond_order
 _atom_site_hse06_10hf_magmom
 _atom_site_hse06_bader_spin_density
 _atom_site_hse06_ddec_charge
 _atom_site_hse06_ddec_spin_density
 _atom_site_hse06_ddec_sum_bond_order
 _atom_site_hse06_magmom
 _atom_site_pbe_bader_spin_density
 _atom_site_pbe_cm5_charge
 _atom_site_pbe_ddec_charge
 _atom_site_pbe_ddec_spin_density
 _atom_site_pbe_ddec_sum_bond_order
 _atom_site_pbe_magmom
Zn  Zn0  1  0.49999315  0.00000156  0.49999809  1  0  1.224035  0  1.737675  0  0  1.078053  0  2.17911  0  0  1.121733  0  2.120227  0  0  0.654232  1.047298  0  2.219855  0
Zn  Zn1  1  0.39527604  0.30669664  0.41034306  1  0  1.198774  0  1.700779  0  0  1.029712  0  2.156299  0  0  1.080202  0  2.092227  0  0  0.681599  0.993774  0  2.200893  0
Zn  Zn2  1  0.60477651  0.69331638  0.58964939  1  0  1.198819  0  1.700664  0  0  1.029778  0  2.156207  0  0  1.080253  0  2.092127  0  0  0.681645  0.993843  0  2.200807  0
Zn  Zn3  1  0.44134984  0.06254197  0.22929914  1  0  1.217633  0  1.651441  0  0  1.049257  0  2.113765  0  0  1.099121  0  2.049715  0  0  0.689701  1.013346  0  2.158968  0
Zn  Zn4  1  0.55864746  0.93746211  0.77069658  1  0  1.217656  0  1.651348  0  0  1.049321  0  2.113659  0  0  1.099173  0  2.049602  0  0  0.689718  1.013406  0  2.158863  0
H  H5  1  0.18331845  0.60461362  0.17359510  1  0  0.112003  0  0.962501  0  0  0.122124  0  1.025101  0  0  0.126217  0  1.021981  0  0  0.104479  0.119085  0  1.027729  0
H  H6  1  0.81667471  0.39539332  0.82640144  1  0  0.112033  0  0.962465  0  0  0.122183  0  1.025036  0  0  0.12628  0  1.021907  0  0  0.104516  0.119141  0  1.027665  0
H  H7  1  0.38993052  0.29309442  0.97098876  1  0  0.132407  0  0.958355  0  0  0.138773  0  1.025184  0  0  0.143031  0  1.022271  0  0  0.111335  0.13592  0  1.02686  0
H  H8  1  0.61007184  0.70691173  0.02901271  1  0  0.132363  0  0.958421  0  0  0.138701  0  1.025262  0  0  0.142951  0  1.02237  0  0  0.111287  0.135852  0  1.026936  0
H  H9  1  0.03154729  0.77419624  0.16529165  1  0  0.095663  0  0.914241  0  0  0.109563  0  0.969408  0  0  0.111802  0  0.967027  0  0  0.114741  0.107871  0  0.971354  0
H  H10  1  0.96844342  0.22580868  0.83470325  1  0  0.095585  0  0.914359  0  0  0.109562  0  0.969466  0  0  0.111798  0  0.967093  0  0  0.114736  0.107862  0  0.971408  0
H  H11  1  0.95069137  0.90202909  0.07952470  1  0  0.111512  0  0.9107  0  0  0.125582  0  0.965805  0  0  0.127554  0  0.964319  0  0  0.121422  0.124121  0  0.966926  0
H  H12  1  0.04930570  0.09797793  0.92047183  1  0  0.111561  0  0.910702  0  0  0.125654  0  0.965805  0  0  0.127628  0  0.964316  0  0  0.121456  0.124185  0  0.966923  0
H  H13  1  0.94264225  0.70230341  0.81908707  1  0  0.090001  0  0.969101  0  0  0.099625  0  1.036424  0  0  0.10097  0  1.035734  0  0  0.111019  0.098605  0  1.037116  0
H  H14  1  0.05735629  0.29770168  0.18091440  1  0  0.08997  0  0.969135  0  0  0.099576  0  1.036492  0  0  0.100912  0  1.035814  0  0  0.111029  0.098589  0  1.037141  0
H  H15  1  0.01261451  0.58086937  0.72088738  1  0  0.078902  0  0.955206  0  0  0.087018  0  1.025859  0  0  0.089208  0  1.023541  0  0  0.104487  0.085449  0  1.027614  0
H  H16  1  0.98737345  0.41913746  0.27910915  1  0  0.07886  0  0.955236  0  0  0.08699  0  1.025884  0  0  0.089182  0  1.023568  0  0  0.104452  0.085419  0  1.027642  0
H  H17  1  0.31186702  0.22270709  0.80754353  1  0  0.100936  0  0.927591  0  0  0.110652  0  0.992025  0  0  0.112552  0  0.990178  0  0  0.115105  0.109527  0  0.993075  0
H  H18  1  0.68812914  0.77729501  0.19245549  1  0  0.100946  0  0.927631  0  0  0.11066  0  0.992056  0  0  0.112564  0  0.990213  0  0  0.115093  0.109536  0  0.993104  0
H  H19  1  0.52467728  0.28509425  0.80319998  1  0  0.092637  0  0.931369  0  0  0.102269  0  0.997799  0  0  0.103388  0  0.997485  0  0  0.11105  0.101484  0  0.998164  0
H  H20  1  0.47532390  0.71490989  0.19679410  1  0  0.092645  0  0.931409  0  0  0.102287  0  0.997806  0  0  0.103408  0  0.9975  0  0  0.111068  0.101502  0  0.998172  0
H  H21  1  0.63438609  0.15771940  0.36417728  1  0  0.423085  0  0.876131  0  0  0.390936  0  0.948284  0  0  0.401105  0  0.933838  0  0  0.294781  0.38363  0  0.957937  0
H  H22  1  0.36562843  0.84226438  0.63581356  1  0  0.423193  0  0.876018  0  0  0.391037  0  0.948131  0  0  0.401199  0  0.933695  0  0  0.294835  0.383728  0  0.957811  0
H  H23  1  0.19852166  0.51252868  0.36056326  1  0  0.419665  0  0.880725  0  0  0.39102  0  0.941523  0  0  0.40084  0  0.926783  0  0  0.295896  0.384026  0  0.95204  0
H  H24  1  0.80142954  0.48748338  0.63945789  1  0  0.419476  0  0.88072  0  0  0.390738  0  0.941846  0  0  0.400563  0  0.927099  0  0  0.295766  0.383743  0  0.952365  0
H  H25  1  0.10156601  0.44766226  0.45745392  1  0  0.421754  0  0.842618  0  0  0.394003  0  0.918392  0  0  0.402588  0  0.908332  0  0  0.306308  0.387862  0  0.925628  0
H  H26  1  0.89851884  0.55220808  0.54254460  1  0  0.421747  0  0.842922  0  0  0.394071  0  0.918403  0  0  0.402639  0  0.908389  0  0  0.306336  0.387927  0  0.92564  0
H  H27  1  0.64780308  0.46026280  0.35410778  1  0  0.431849  0  0.854916  0  0  0.392244  0  0.942441  0  0  0.4029  0  0.926667  0  0  0.302117  0.384538  0  0.953878  0
H  H28  1  0.35222879  0.53976658  0.64591832  1  0  0.432078  0  0.854585  0  0  0.392439  0  0.942203  0  0  0.403095  0  0.926426  0  0  0.302248  0.384733  0  0.953642  0
H  H29  1  0.70738386  0.42067448  0.47484403  1  0  0.436364  0  0.860645  0  0  0.409189  0  0.91616  0  0  0.419559  0  0.901245  0  0  0.292263  0.401788  0  0.926838  0
H  H30  1  0.29263549  0.57929967  0.52517888  1  0  0.43621  0  0.860845  0  0  0.409124  0  0.916239  0  0  0.41949  0  0.901329  0  0  0.292134  0.401718  0  0.926926  0
H  H31  1  0.76236008  0.07736665  0.20895743  1  0  0.431692  0  0.859155  0  0  0.394319  0  0.937491  0  0  0.406107  0  0.920364  0  0  0.29824  0.38603  0  0.949481  0
H  H32  1  0.23763988  0.92263649  0.79103500  1  0  0.431631  0  0.859248  0  0  0.394275  0  0.937556  0  0  0.406063  0  0.920427  0  0  0.298256  0.385987  0  0.949544  0
H  H33  1  0.67950068  0.06043330  0.08556032  1  0  0.441511  0  0.856887  0  0  0.405048  0  0.929193  0  0  0.417021  0  0.911867  0  0  0.294542  0.396571  0  0.941412  0
H  H34  1  0.32049295  0.93956775  0.91443540  1  0  0.441543  0  0.856854  0  0  0.405085  0  0.929149  0  0  0.417057  0  0.911825  0  0  0.294556  0.39661  0  0.941369  0
H  H35  1  0.16709913  0.08297179  0.45988286  1  0  0.42258  0  0.882585  0  0  0.390993  0  0.947077  0  0  0.402407  0  0.930394  0  0  0.286874  0.38287  0  0.958942  0
H  H36  1  0.83289288  0.91704987  0.54011940  1  0  0.422479  0  0.882738  0  0  0.391076  0  0.946955  0  0  0.402488  0  0.930272  0  0  0.286937  0.382957  0  0.958812  0
H  H37  1  0.16678071  0.96631894  0.55065494  1  0  0.424176  0  0.876774  0  0  0.391472  0  0.941891  0  0  0.403098  0  0.924864  0  0  0.290278  0.383211  0  0.953992  0
H  H38  1  0.83321213  0.03369192  0.44933994  1  0  0.424286  0  0.876638  0  0  0.391613  0  0.941693  0  0  0.403236  0  0.924668  0  0  0.29033  0.383352  0  0.953794  0
C  C39  1  0.34212334  0.35937650  0.17627174  1  0  0.684746  0  3.846346  0  0  0.628655  0  4.141823  0  0  0.664347  0  4.132277  0  0  0.22269  0.604081  0  4.148066  0
C  C40  1  0.65787376  0.64063054  0.82373138  1  0  0.684692  0  3.84655  0  0  0.628543  0  4.142108  0  0  0.664238  0  4.132558  0  0  0.222667  0.60397  0  4.148344  0
C  C41  1  0.29508765  0.44383987  0.07948178  1  0  -0.036248  0  3.801606  0  0  -0.018243  0  4.050285  0  0  -0.023908  0  4.073207  0  0  -0.025964  -0.014551  0  4.035159  0
C  C42  1  0.70490576  0.55616414  0.92051805  1  0  -0.036293  0  3.801739  0  0  -0.018311  0  4.050488  0  0  -0.023974  0  4.073406  0  0  -0.026026  -0.014619  0  4.035363  0
C  C43  1  0.21479620  0.56847163  0.09172571  1  0  -0.213509  0  3.75266  0  0  -0.254129  0  4.026449  0  0  -0.257968  0  4.046205  0  0  -0.115012  -0.252154  0  4.014097  0
C  C44  1  0.78519842  0.43153338  0.90827165  1  0  -0.213599  0  3.752792  0  0  -0.254266  0  4.026558  0  0  -0.25811  0  4.046318  0  0  -0.115072  -0.252289  0  4.014207  0
C  C45  1  0.17448516  0.64266903  0.99783616  1  0  0.200604  0  3.806266  0  0  0.183899  0  4.079442  0  0  0.193174  0  4.095915  0  0  0.080175  0.177344  0  4.068742  0
C  C46  1  0.82550831  0.35733398  0.00215874  1  0  0.200744  0  3.806258  0  0  0.184116  0  4.07933  0  0  0.193368  0  4.095801  0  0  0.080202  0.177559  0  4.068637  0
C  C47  1  0.22482546  0.59529001  0.89355703  1  0  0.07657  0  3.744331  0  0  0.058391  0  4.014601  0  0  0.061666  0  4.030374  0  0  0.068015  0.056648  0  4.003736  0
C  C48  1  0.77517191  0.40471309  0.10643951  1  0  0.076478  0  3.744309  0  0  0.058322  0  4.014565  0  0  0.061595  0  4.03034  0  0  0.067976  0.056593  0  4.003681  0
C  C49  1  0.29506368  0.46695816  0.88215291  1  0  0.193787  0  3.80183  0  0  0.176667  0  4.072587  0  0  0.185226  0  4.088836  0  0  0.076295  0.170514  0  4.061429  0
C  C50  1  0.70493516  0.53304300  0.11784446  1  0  0.193906  0  3.801749  0  0  0.176798  0  4.072499  0  0  0.18536  0  4.088743  0  0  0.076373  0.17064  0  4.061343  0
C  C51  1  0.33084372  0.39123868  0.97544126  1  0  -0.20237  0  3.745546  0  0  -0.241215  0  4.010979  0  0  -0.244635  0  4.030752  0  0  -0.109716  -0.238345  0  3.997173  0
C  C52  1  0.66915482  0.60876641  0.02455857  1  0  -0.202311  0  3.745501  0  0  -0.241137  0  4.011  0  0  -0.244557  0  4.030763  0  0  -0.10966  -0.238271  0  3.997202  0
C  C53  1  0.06283318  0.83418261  0.09333496  1  0  -0.062335  0  3.6223  0  0  -0.116814  0  3.883019  0  0  -0.114111  0  3.883822  0  0  -0.060674  -0.118771  0  3.882783  0
C  C54  1  0.93716158  0.16582043  0.90665830  1  0  -0.06228  0  3.622383  0  0  -0.116867  0  3.883214  0  0  -0.114191  0  3.884026  0  0  -0.060683  -0.118788  0  3.882941  0
C  C55  1  0.22398883  0.91304843  0.11714766  1  0  0.645775  0  3.90618  0  0  0.593544  0  4.213073  0  0  0.625664  0  4.208532  0  0  0.202388  0.571873  0  4.215194  0
C  C56  1  0.77600734  0.08695366  0.88285135  1  0  0.645828  0  3.905992  0  0  0.593589  0  4.21295  0  0  0.625706  0  4.208411  0  0  0.202393  0.571912  0  4.215069  0
C  C57  1  0.03916090  0.67764676  0.75525927  1  0  -0.084004  0  3.640297  0  0  -0.14434  0  3.906145  0  0  -0.141811  0  3.906155  0  0  -0.076996  -0.146086  0  3.906271  0
C  C58  1  0.96083251  0.32235724  0.24473974  1  0  -0.083871  0  3.640323  0  0  -0.14415  0  3.906166  0  0  -0.141625  0  3.906197  0  0  -0.076908  -0.145908  0  3.906261  0
C  C59  1  0.02042062  0.78211515  0.66720325  1  0  0.71657  0  3.808642  0  0  0.657054  0  4.119194  0  0  0.691059  0  4.110343  0  0  0.223553  0.633917  0  4.12447  0
C  C60  1  0.97957126  0.21789178  0.33279739  1  0  0.716635  0  3.808554  0  0  0.657118  0  4.119102  0  0  0.69112  0  4.110253  0  0  0.223714  0.633978  0  4.124384  0
C  C61  1  0.39425777  0.29327002  0.76548630  1  0  -0.065131  0  3.597384  0  0  -0.120715  0  3.853937  0  0  -0.117839  0  3.854403  0  0  -0.063559  -0.122906  0  3.853665  0
C  C62  1  0.60574100  0.70673213  0.23451353  1  0  -0.065295  0  3.597549  0  0  -0.120814  0  3.854082  0  0  -0.117967  0  3.854581  0  0  -0.063593  -0.123  0  3.853801  0
C  C63  1  0.40970147  0.25067354  0.64604926  1  0  0.708485  0  3.824517  0  0  0.659205  0  4.11659  0  0  0.693538  0  4.108896  0  0  0.223769  0.635803  0  4.121201  0
C  C64  1  0.59029861  0.74932864  0.35395140  1  0  0.708617  0  3.824488  0  0  0.659284  0  4.116667  0  0  0.69363  0  4.10895  0  0  0.223772  0.635883  0  4.121282  0
O  O65  1  0.38313266  0.24076382  0.15714279  1  0  -0.631941  0  2.069812  0  0  -0.5671  0  2.34506  0  0  -0.592849  0  2.327923  0  0  -0.306746  -0.549347  0  2.356681  0
O  O66  1  0.61686313  0.75924318  0.84285950  1  0  -0.631896  0  2.069837  0  0  -0.567029  0  2.345054  0  0  -0.592774  0  2.32792  0  0  -0.306716  -0.549277  0  2.356672  0
O  O67  1  0.33541736  0.41212847  0.27294998  1  0  -0.697344  0  2.118577  0  0  -0.615526  0  2.383221  0  0  -0.645534  0  2.367689  0  0  -0.321137  -0.594489  0  2.39329  0
O  O68  1  0.66458348  0.58788060  0.72705395  1  0  -0.69742  0  2.118803  0  0  -0.615495  0  2.383347  0  0  -0.645527  0  2.367846  0  0  -0.321152  -0.594434  0  2.393383  0
O  O69  1  0.08173607  0.75959409  0.99506981  1  0  -0.246705  0  2.377568  0  0  -0.180015  0  2.612519  0  0  -0.196403  0  2.615395  0  0  -0.177506  -0.168713  0  2.610525  0
O  O70  1  0.91826097  0.24041292  0.00492262  1  0  -0.246834  0  2.377646  0  0  -0.180175  0  2.612626  0  0  -0.196503  0  2.615463  0  0  -0.177549  -0.168902  0  2.61064  0
O  O71  1  0.22497103  0.96891171  0.21176868  1  0  -0.628169  0  2.015529  0  0  -0.5586  0  2.280427  0  0  -0.588637  0  2.266561  0  0  -0.320625  -0.537498  0  2.289298  0
O  O72  1  0.77502814  0.03108554  0.78823117  1  0  -0.628249  0  2.015491  0  0  -0.558667  0  2.280393  0  0  -0.588704  0  2.266526  0  0  -0.320661  -0.537569  0  2.289272  0
O  O73  1  0.34317823  0.92066652  0.04747558  1  0  -0.607371  0  1.981211  0  0  -0.548667  0  2.205763  0  0  -0.573665  0  2.196121  0  0  -0.303938  -0.53121  0  2.211599  0
O  O74  1  0.65681715  0.07934538  0.95252259  1  0  -0.607317  0  1.981142  0  0  -0.548597  0  2.205706  0  0  -0.573598  0  2.196068  0  0  -0.303886  -0.531124  0  2.21151  0
O  O75  1  0.20956056  0.67573540  0.80333063  1  0  -0.2544  0  2.379381  0  0  -0.189895  0  2.620199  0  0  -0.202703  0  2.621692  0  0  -0.193445  -0.180998  0  2.618887  0
O  O76  1  0.79043972  0.32426383  0.19666510  1  0  -0.254386  0  2.379276  0  0  -0.189975  0  2.620187  0  0  -0.202783  0  2.621689  0  0  -0.193473  -0.181086  0  2.61888  0
O  O77  1  0.12870429  0.87314859  0.66607396  1  0  -0.632689  0  2.01833  0  0  -0.557677  0  2.229876  0  0  -0.584645  0  2.218829  0  0  -0.296702  -0.53881  0  2.237008  0
O  O78  1  0.87130120  0.12685074  0.33392178  1  0  -0.632706  0  2.018289  0  0  -0.557712  0  2.22985  0  0  -0.584677  0  2.218796  0  0  -0.296787  -0.538844  0  2.236982  0
O  O79  1  0.89170430  0.77319082  0.60112911  1  0  -0.67499  0  2.003428  0  0  -0.605632  0  2.247719  0  0  -0.634341  0  2.234277  0  0  -0.312224  -0.585281  0  2.256337  0
O  O80  1  0.10827741  0.22682966  0.39887971  1  0  -0.675163  0  2.003376  0  0  -0.605728  0  2.247683  0  0  -0.634435  0  2.234241  0  0  -0.31238  -0.585391  0  2.256335  0
O  O81  1  0.32401973  0.42450930  0.77634127  1  0  -0.256313  0  2.370888  0  0  -0.180363  0  2.599495  0  0  -0.19683  0  2.600909  0  0  -0.173592  -0.168716  0  2.598306  0
O  O82  1  0.67597789  0.57549086  0.22365610  1  0  -0.256273  0  2.370736  0  0  -0.180367  0  2.599325  0  0  -0.19683  0  2.600752  0  0  -0.173576  -0.168719  0  2.598131  0
O  O83  1  0.35009394  0.32775877  0.57105245  1  0  -0.656898  0  2.08023  0  0  -0.582796  0  2.34694  0  0  -0.611855  0  2.330054  0  0  -0.316913  -0.562334  0  2.35811  0
O  O84  1  0.64991591  0.67223475  0.42894166  1  0  -0.656904  0  2.07998  0  0  -0.582878  0  2.346829  0  0  -0.611919  0  2.329915  0  0  -0.316998  -0.562427  0  2.35801  0
O  O85  1  0.48250853  0.13925560  0.63361372  1  0  -0.64659  0  2.077333  0  0  -0.582891  0  2.339129  0  0  -0.611322  0  2.326056  0  0  -0.301301  -0.562973  0  2.347756  0
O  O86  1  0.51748537  0.86074254  0.36639023  1  0  -0.646618  0  2.077435  0  0  -0.582906  0  2.339269  0  0  -0.611339  0  2.326183  0  0  -0.301255  -0.562985  0  2.347897  0
O  O87  1  0.51094139  0.13588640  0.37412299  1  0  -0.995182  0  2.005635  0  0  -0.883187  0  2.321107  0  0  -0.918703  0  2.279737  0  0  -0.56492  -0.858192  0  2.349218  0
O  O88  1  0.48906531  0.86411393  0.62587110  1  0  -0.995225  0  2.005343  0  0  -0.883356  0  2.321074  0  0  -0.918821  0  2.279659  0  0  -0.564964  -0.858361  0  2.349209  0
O  O89  1  0.14472112  0.53198463  0.43255040  1  0  -0.796025  0  1.804653  0  0  -0.743823  0  1.960444  0  0  -0.761307  0  1.933927  0  0  -0.572237  -0.731536  0  1.979339  0
O  O90  1  0.85523943  0.46794420  0.56748736  1  0  -0.795761  0  1.804951  0  0  -0.743349  0  1.961012  0  0  -0.760834  0  1.934505  0  0  -0.572152  -0.731066  0  1.979908  0
O  O91  1  0.63712673  0.39211287  0.41040118  1  0  -0.848163  0  1.939936  0  0  -0.783515  0  2.16576  0  0  -0.805778  0  2.129943  0  0  -0.582119  -0.767609  0  2.190986  0
O  O92  1  0.36290999  0.60788709  0.58959951  1  0  -0.848252  0  1.939803  0  0  -0.783643  0  2.165398  0  0  -0.805897  0  2.129589  0  0  -0.582137  -0.767759  0  2.190663  0
O  O93  1  0.67882548  0.02760533  0.16380542  1  0  -0.84248  0  1.920237  0  0  -0.773761  0  2.15255  0  0  -0.797673  0  2.112377  0  0  -0.565145  -0.756748  0  2.180109  0
O  O94  1  0.32117075  0.97239578  0.83619031  1  0  -0.842469  0  1.920296  0  0  -0.773791  0  2.152621  0  0  -0.797705  0  2.112449  0  0  -0.56521  -0.756774  0  2.180166  0
O  O95  1  0.22792393  0.00047900  0.48539696  1  0  -0.842843  0  1.897644  0  0  -0.781449  0  2.097248  0  0  -0.802798  0  2.060299  0  0  -0.589718  -0.766377  0  2.123123  0
O  O96  1  0.77206338  0.99953567  0.51459545  1  0  -0.842875  0  1.897702  0  0  -0.781641  0  2.097117  0  0  -0.802988  0  2.060166  0  0  -0.589823  -0.766572  0  2.122989  0
