# generated using pymatgen
data_MgCu2H18(CO)12
_symmetry_space_group_name_H-M   'P 1'
_cell_length_a   8.30100846
_cell_length_b   11.19777766
_cell_length_c   11.20754946
_cell_angle_alpha   99.39590950
_cell_angle_beta   108.26734112
_cell_angle_gamma   108.32438812
_symmetry_Int_Tables_number   1
_chemical_formula_structural   MgCu2H18(CO)12
_chemical_formula_sum   'Mg2 Cu4 H36 C24 O24'
_cell_volume   898.63091560
_cell_formula_units_Z   2
loop_
 _symmetry_equiv_pos_site_id
 _symmetry_equiv_pos_as_xyz
  1  'x, y, z'
loop_
 _atom_site_type_symbol
 _atom_site_label
 _atom_site_symmetry_multiplicity
 _atom_site_fract_x
 _atom_site_fract_y
 _atom_site_fract_z
 _atom_site_occupancy
 _atom_site_hle17_ddec_charge
 _atom_site_hle17_ddec_spin_density
 _atom_site_hle17_ddec_sum_bond_order
 _atom_site_hle17_magmom
 _atom_site_hse06_10hf_ddec_charge
 _atom_site_hse06_10hf_ddec_spin_density
 _atom_site_hse06_10hf_ddec_sum_bond_order
 _atom_site_hse06_10hf_magmom
 _atom_site_hse06_ddec_charge
 _atom_site_hse06_ddec_spin_density
 _atom_site_hse06_ddec_sum_bond_order
 _atom_site_hse06_magmom
 _atom_site_pbe_cm5_charge
 _atom_site_pbe_ddec_charge
 _atom_site_pbe_ddec_spin_density
 _atom_site_pbe_ddec_sum_bond_order
 _atom_site_pbe_magmom
Mg  Mg0  1  0.74976042  0.58124396  0.41895594  1  1.568515  -0.000139  1.028988  0.0  1.462059  -0.000419  1.275655  0.0  1.489836  -0.000126  1.234601  0.0  0.820175  1.442339  -0.000632  1.304169  0.0
Mg  Mg1  1  0.25023401  0.41877029  0.58103242  1  1.568343  0.000137  1.029295  0.0  1.462029  0.00042  1.275753  0.0  1.489842  0.000129  1.234694  0.0  0.820209  1.442302  0.000632  1.304266  0.0
Cu  Cu2  1  0.54243149  0.51418917  0.90135599  1  0.898733  0.674536  1.835921  0.488  0.891063  0.799407  2.237039  0.635  0.991682  0.886076  2.156919  0.734  0.687602  0.822713  0.706345  2.299903  0.549
Cu  Cu3  1  0.95757647  0.09866572  0.48545640  1  0.898928  0.675525  1.83916  0.488  0.891193  0.799793  2.240639  0.635  0.991932  0.886049  2.160362  0.733  0.68839  0.823426  0.707348  2.302755  0.55
Cu  Cu4  1  0.45755295  0.48579955  0.09863825  1  0.898678  -0.674514  1.836231  -0.488  0.891055  -0.7994  2.237353  -0.635  0.991681  -0.886072  2.157219  -0.734  0.687552  0.822783  -0.706342  2.300127  -0.549
Cu  Cu5  1  0.04243984  0.90135373  0.51456781  1  0.89914  -0.675543  1.839088  -0.488  0.891428  -0.79981  2.240492  -0.635  0.991685  -0.886058  2.160518  -0.733  0.688514  0.823632  -0.707349  2.30262  -0.55
H  H6  1  0.90820079  0.66504172  0.87002015  1  0.139331  -1.2e-05  0.949049  0.0  0.159613  -2e-06  1.009634  0.0  0.163029  -2e-05  1.007946  0.0  0.097263  0.157239  1.9e-05  1.010824  0.0
H  H7  1  0.59148130  0.13033049  0.33380399  1  0.139712  -1e-05  0.948743  0.0  0.160126  1e-06  1.009053  0.0  0.163595  -1.8e-05  1.007313  0.0  0.09754  0.157739  2.1e-05  1.010268  0.0
H  H8  1  0.09176481  0.33492808  0.12998822  1  0.139154  1.2e-05  0.949447  0.0  0.159461  2e-06  1.010003  0.0  0.162875  2e-05  1.008318  0.0  0.097211  0.157087  -1.9e-05  1.011189  0.0
H  H9  1  0.40854127  0.86966973  0.66618417  1  0.139757  9e-06  0.948575  0.0  0.160192  -1e-06  1.008863  0.0  0.163655  1.8e-05  1.007121  0.0  0.097547  0.1578  -2.1e-05  1.010082  0.0
H  H10  1  0.76883843  0.75707591  0.85501889  1  0.13513  -4.1e-05  0.968304  0.0  0.153568  -2.9e-05  1.031537  0.0  0.156892  -4.2e-05  1.030033  0.0  0.093565  0.151226  -1e-05  1.032606  0.0
H  H11  1  0.73253361  0.14618595  0.24301095  1  0.135712  -4.4e-05  0.967103  0.0  0.15381  -3.1e-05  1.030675  0.0  0.157059  -4.3e-05  1.029303  0.0  0.093798  0.151512  -1.3e-05  1.031704  0.0
H  H12  1  0.23115331  0.24291591  0.14496403  1  0.135053  4.2e-05  0.968239  0.0  0.153524  2.9e-05  1.031448  0.0  0.156851  4.2e-05  1.029944  0.0  0.093561  0.151178  1e-05  1.032523  0.0
H  H13  1  0.26751416  0.85382251  0.75699822  1  0.13567  4.5e-05  0.967104  0.0  0.153785  3.1e-05  1.030642  0.0  0.157034  4.3e-05  1.029262  0.0  0.093795  0.15149  1.3e-05  1.031672  0.0
H  H14  1  0.92016494  0.77242037  0.76773461  1  0.14814  -5e-05  0.964326  0.0  0.166466  -4.4e-05  1.022865  0.0  0.170775  -9e-06  1.020483  0.0  0.094536  0.163405  -7.9e-05  1.024605  0.0
H  H15  1  0.58154459  0.23379425  0.22767212  1  0.147491  -4.8e-05  0.965674  0.0  0.165988  -4.3e-05  1.023826  0.0  0.170318  -7e-06  1.021414  0.0  0.094276  0.162926  -7.7e-05  1.02557  0.0
H  H16  1  0.07985900  0.22755740  0.23228109  1  0.148051  4.8e-05  0.964285  0.0  0.166384  4.4e-05  1.022836  0.0  0.170703  9e-06  1.020433  0.0  0.094495  0.16332  7.9e-05  1.024585  0.0
H  H17  1  0.41847519  0.76619134  0.77230572  1  0.147585  5e-05  0.965639  0.0  0.166076  4.3e-05  1.023797  0.0  0.170396  7e-06  1.021397  0.0  0.094358  0.163017  7.7e-05  1.025534  0.0
H  H18  1  0.10926395  0.69479748  0.28293805  1  0.160158  -0.000106  0.960808  0.0  0.177126  -7.5e-05  1.022071  0.0  0.180095  -4.5e-05  1.021227  0.0  0.108908  0.174933  -0.000107  1.022744  0.0
H  H19  1  0.39170087  0.71708874  0.30602008  1  0.160525  -0.000111  0.96205  0.0  0.1776  -7.8e-05  1.023105  0.0  0.180556  -4.8e-05  1.022264  0.0  0.10902  0.175407  -0.000109  1.023797  0.0
H  H20  1  0.89073978  0.30519069  0.71704494  1  0.160113  0.000114  0.960933  0.0  0.177128  7.5e-05  1.022128  0.0  0.18011  4.5e-05  1.02126  0.0  0.108928  0.174941  0.000107  1.022788  0.0
H  H21  1  0.60832766  0.28293593  0.69396832  1  0.160478  0.000112  0.961895  0.0  0.177536  7.8e-05  1.022959  0.0  0.180486  4.8e-05  1.022127  0.0  0.109022  0.175341  0.000109  1.02365  0.0
H  H22  1  0.10353608  0.56596255  0.16165842  1  0.148109  -0.00103  0.938858  -0.001  0.165816  -0.00068  0.995353  -0.001  0.168073  -0.000469  0.994549  -0.001  0.100834  0.163918  -0.000776  0.996172  -0.001
H  H23  1  0.39746001  0.83867133  0.43460996  1  0.149107  -0.001035  0.937642  -0.001  0.166916  -0.000686  0.993978  -0.001  0.169229  -0.000474  0.993074  -0.001  0.101305  0.165  -0.000784  0.994814  -0.001
H  H24  1  0.89643699  0.43398402  0.83835542  1  0.148098  0.001035  0.938459  0.001  0.16582  0.00068  0.995005  0.001  0.168073  0.000469  0.994208  0.001  0.100824  0.163918  0.000776  0.995827  0.001
H  H25  1  0.60251503  0.16133868  0.56535843  1  0.149047  0.001037  0.937928  0.001  0.16673  0.000686  0.994382  0.001  0.169057  0.000474  0.99346  0.001  0.101173  0.164791  0.000784  0.995244  0.001
H  H26  1  0.04897054  0.53501649  0.30114818  1  0.165282  0.001253  0.926425  0.002  0.179021  0.000912  0.986017  0.001  0.180592  0.000616  0.986932  0.001  0.112034  0.177525  0.001056  0.985735  0.001
H  H27  1  0.45219243  0.69920063  0.46572680  1  0.166228  0.001256  0.925971  0.002  0.179759  0.00092  0.985925  0.001  0.181333  0.000623  0.986841  0.001  0.112645  0.178265  0.001067  0.985632  0.001
H  H28  1  0.95100666  0.46498756  0.69887584  1  0.165038  -0.001246  0.926669  -0.002  0.178914  -0.000913  0.986147  -0.001  0.180487  -0.000616  0.987054  -0.001  0.111984  0.177417  -0.001057  0.985859  -0.001
H  H29  1  0.54779081  0.30081923  0.53425755  1  0.166097  -0.001257  0.926034  -0.002  0.179637  -0.00092  0.985969  -0.001  0.181217  -0.000623  0.986874  -0.001  0.112645  0.178143  -0.001067  0.985678  -0.001
H  H30  1  0.64829843  0.14813142  0.95757671  1  0.139456  -0.000433  0.919652  0.0  0.161791  -0.000341  0.97202  0.0  0.163532  -0.000237  0.971992  0.0  0.106385  0.160453  -0.000409  0.972083  0.0
H  H31  1  0.84816945  0.04443211  0.85032423  1  0.139879  -0.000465  0.920726  0.0  0.161872  -0.000364  0.973063  0.0  0.163635  -0.000252  0.973001  0.0  0.106092  0.160531  -0.000435  0.973128  0.0
H  H32  1  0.35171752  0.85188571  0.04257109  1  0.139529  0.00043  0.91986  0.0  0.161878  0.000343  0.972145  0.0  0.163626  0.000239  0.972106  0.0  0.106381  0.160542  0.000411  0.972202  0.0
H  H33  1  0.15183508  0.95552484  0.14968730  1  0.139825  0.000468  0.920937  0.0  0.161814  0.000364  0.973269  0.0  0.163575  0.000253  0.973212  0.0  0.106049  0.160476  0.000436  0.973331  0.0
H  H34  1  0.43390975  0.08046064  0.82072634  1  0.151709  -0.000886  0.954805  -0.001  0.168077  -0.000559  1.015355  -0.001  0.170246  -0.00035  1.015369  0.0  0.103596  0.166366  -0.000685  1.0155  -0.001
H  H35  1  0.06541044  0.17858400  0.91908542  1  0.151651  -0.000851  0.953563  -0.001  0.167846  -0.000536  1.014365  -0.001  0.169985  -0.000335  1.014406  0.0  0.103644  0.166167  -0.000659  1.014476  -0.001
H  H36  1  0.56628019  0.91959655  0.17925062  1  0.151611  0.000878  0.95464  0.001  0.167989  0.000558  1.015198  0.001  0.17017  0.00035  1.015187  0.0  0.103402  0.166281  0.000684  1.015343  0.001
H  H37  1  0.93455125  0.82141104  0.08091859  1  0.151631  0.000855  0.95343  0.001  0.167884  0.000536  1.014179  0.001  0.170019  0.000335  1.014228  0.0  0.103681  0.166208  0.000658  1.014288  0.001
H  H38  1  0.44042875  0.07815880  0.98217890  1  0.133902  0.001341  0.950537  0.001  0.153602  0.000948  1.008504  0.001  0.154659  0.000652  1.009271  0.001  0.1003  0.152546  0.001116  1.008121  0.001
H  H39  1  0.05232060  0.01546803  0.91990679  1  0.134295  0.001346  0.953394  0.001  0.153336  0.000944  1.011849  0.001  0.15436  0.00065  1.012631  0.001  0.10034  0.152313  0.001111  1.011443  0.001
H  H40  1  0.55939324  0.92177732  0.01769801  1  0.134029  -0.001348  0.950556  -0.001  0.153648  -0.000949  1.008604  -0.001  0.154682  -0.000653  1.00942  -0.001  0.100296  0.152623  -0.001117  1.008171  -0.001
H  H41  1  0.94772980  0.98455598  0.08012623  1  0.134353  -0.001347  0.953424  -0.001  0.153392  -0.000945  1.011868  -0.001  0.154422  -0.000651  1.012639  -0.001  0.100404  0.152366  -0.001112  1.011467  -0.001
C  C42  1  0.82873891  0.70516828  0.80136454  1  -0.490021  -8.6e-05  3.644734  0.0  -0.569047  -8.8e-05  3.871637  0.0  -0.578052  -0.000101  3.871997  0.0  -0.257161  -0.562633  -5.6e-05  3.871206  0.0
C  C43  1  0.67210790  0.19955562  0.29470069  1  -0.49049  -8.1e-05  3.644694  0.0  -0.56911  -8.6e-05  3.871908  0.0  -0.578129  -9.9e-05  3.872201  0.0  -0.257055  -0.562753  -5.4e-05  3.87157  0.0
C  C44  1  0.17125643  0.29481968  0.19862916  1  -0.489736  8.9e-05  3.64462  0.0  -0.568726  8.8e-05  3.871494  0.0  -0.577719  0.000101  3.871837  0.0  -0.257074  -0.562313  5.6e-05  3.871069  0.0
C  C45  1  0.32790979  0.80044448  0.70529180  1  -0.490643  7e-05  3.64457  0.0  -0.569323  8.6e-05  3.871798  0.0  -0.5783  0.000101  3.872089  0.0  -0.257163  -0.562968  5.4e-05  3.871457  0.0
C  C46  1  0.67711465  0.59296082  0.68608964  1  0.822361  -0.00022  3.773576  0.0  0.785915  -0.000176  4.057542  0.0  0.820372  -0.000135  4.047084  0.0  0.237302  0.762361  -0.000198  4.063841  0.0
C  C47  1  0.82295486  0.31436832  0.40776612  1  0.824927  -0.000213  3.769545  0.0  0.787726  -0.000179  4.054411  0.0  0.82224  -0.000139  4.043934  0.0  0.237507  0.764151  -0.000202  4.060799  0.0
C  C48  1  0.32287825  0.40703975  0.31390490  1  0.822436  0.000212  3.773318  0.0  0.785802  0.000176  4.057605  0.0  0.820257  0.000135  4.047143  0.0  0.237274  0.762251  0.000198  4.063904  0.0
C  C49  1  0.17703607  0.68563419  0.59221942  1  0.825  0.00023  3.769643  0.0  0.787805  0.000179  4.054517  0.0  0.822232  0.000136  4.044116  0.0  0.237646  0.76424  0.000202  4.060886  0.0
C  C50  1  0.03907268  0.58997756  0.22857626  1  -0.467712  0.003734  3.606548  0.004  -0.541956  0.001886  3.834077  0.002  -0.552306  0.001259  3.837294  0.002  -0.241935  -0.533739  0.00222  3.831792  0.002
C  C51  1  0.46176886  0.77161822  0.41056607  1  -0.470436  0.003677  3.609065  0.004  -0.545128  0.001852  3.836466  0.002  -0.555485  0.00124  3.839533  0.002  -0.243099  -0.536873  0.002178  3.834223  0.002
C  C52  1  0.96091246  0.40999167  0.77142626  1  -0.467451  -0.003761  3.606485  -0.004  -0.541836  -0.00188  3.833975  -0.002  -0.552174  -0.001256  3.837162  -0.002  -0.24187  -0.533618  -0.00221  3.831685  -0.002
C  C53  1  0.53823230  0.22840493  0.58941724  1  -0.469924  -0.003682  3.609053  -0.004  -0.544493  -0.001853  3.836269  -0.002  -0.55485  -0.001239  3.839334  -0.002  -0.242806  -0.536216  -0.002181  3.834034  -0.002
C  C54  1  0.84318373  0.56791919  0.15324474  1  0.780857  -0.001128  3.75388  -0.002  0.746453  0.000267  4.051102  0.0  0.788035  0.000172  4.040561  0.0  0.23025  0.718073  0.000312  4.057201  0.0
C  C55  1  0.65724862  0.84700886  0.43183705  1  0.782283  -0.00117  3.752592  -0.002  0.748807  0.000233  4.048053  0.0  0.790535  0.000143  4.037235  0.0  0.23147  0.720362  0.000276  4.054353  0.0
C  C56  1  0.15680319  0.43206471  0.84674648  1  0.780811  0.00115  3.753511  0.002  0.746435  -0.000267  4.050843  0.0  0.788024  -0.000172  4.040275  0.0  0.230243  0.718053  -0.000313  4.056946  0.0
C  C57  1  0.34276394  0.15302124  0.56818112  1  0.781563  0.001161  3.753234  0.002  0.748159  -0.000234  4.048652  0.0  0.789867  -0.000145  4.037886  0.0  0.231111  0.719711  -0.000276  4.054941  0.0
C  C58  1  0.50231471  0.13411185  0.92545058  1  -0.443336  0.000469  3.63437  0.0  -0.519709  0.000129  3.861952  0.0  -0.528578  8.5e-05  3.865927  0.0  -0.238887  -0.512648  5.4e-05  3.859051  0.0
C  C59  1  0.99403449  0.07402085  0.86463809  1  -0.44296  0.000432  3.636695  0.0  -0.518255  0.000117  3.863837  0.0  -0.5271  7.6e-05  3.867793  0.0  -0.238251  -0.511197  4.2e-05  3.860872  0.0
C  C60  1  0.49766867  0.86587784  0.07453736  1  -0.443466  -0.000426  3.63477  0.0  -0.519755  -0.000122  3.862202  0.0  -0.528616  -8.1e-05  3.866157  0.0  -0.238641  -0.512707  -4.3e-05  3.859289  0.0
C  C61  1  0.00598984  0.92597735  0.13538223  1  -0.442972  -0.000449  3.636575  0.0  -0.518277  -0.000118  3.863735  0.0  -0.527119  -7.6e-05  3.867689  0.0  -0.238237  -0.511225  -4.6e-05  3.860772  0.0
C  C62  1  0.49313994  0.26776306  0.94795678  1  0.735834  -0.000614  3.797788  -0.001  0.708634  -8.2e-05  4.090769  -0.001  0.749676  -0.000234  4.083241  -0.001  0.217652  0.680673  6.7e-05  4.09484  -0.001
C  C63  1  0.00474034  0.05155407  0.73160513  1  0.733636  -0.000539  3.802518  -0.001  0.706935  -3.4e-05  4.094569  -0.001  0.74799  -0.000189  4.087127  -0.001  0.217255  0.678998  0.000114  4.098617  0.0
C  C64  1  0.50684491  0.73223444  0.05203285  1  0.736128  0.000609  3.797804  0.001  0.70888  8.3e-05  4.09085  0.001  0.749924  0.000233  4.083311  0.001  0.217759  0.680914  -6.8e-05  4.094936  0.001
C  C65  1  0.99528450  0.94844999  0.26841722  1  0.733856  0.000537  3.802167  0.001  0.707053  3.5e-05  4.09432  0.001  0.748113  0.00019  4.086865  0.001  0.217261  0.679122  -0.000112  4.098376  0.0
O  O66  1  0.53831008  0.51953184  0.70556205  1  -0.760906  -1.3e-05  2.033863  0.001  -0.703208  -6.9e-05  2.293665  0.001  -0.732338  -0.000356  2.276167  0.0  -0.359306  -0.68205  0.000315  2.305397  0.001
O  O67  1  0.96194839  0.29476917  0.48041971  1  -0.761387  -0.000116  2.033953  0.001  -0.703453  -0.00014  2.294184  0.0  -0.73272  -0.000409  2.276788  0.0  -0.359248  -0.682396  0.000224  2.305853  0.001
O  O68  1  0.46168671  0.48046494  0.29442191  1  -0.761014  1.5e-05  2.033649  -0.001  -0.703241  6.8e-05  2.29357  -0.001  -0.732393  0.000356  2.276105  0.0  -0.359347  -0.682084  -0.000316  2.305291  -0.001
O  O69  1  0.03804370  0.70525079  0.51959150  1  -0.761519  0.00011  2.034042  -0.001  -0.703455  0.000136  2.294075  0.0  -0.732501  0.000406  2.276543  0.0  -0.359248  -0.682416  -0.000228  2.305741  -0.001
O  O70  1  0.69288179  0.57456824  0.57780779  1  -0.734072  8.7e-05  2.049749  0.0  -0.67925  -9.6e-05  2.290243  0.0  -0.700774  -9.9e-05  2.275588  0.0  -0.356811  -0.66432  -7e-06  2.300159  0.0
O  O71  1  0.80633247  0.42237852  0.42779150  1  -0.736256  1.3e-05  2.046894  0.0  -0.681481  -0.000125  2.28864  0.0  -0.70294  -0.000114  2.273815  0.0  -0.357056  -0.666516  -5.5e-05  2.298527  0.0
O  O72  1  0.30711078  0.42543821  0.42217077  1  -0.734039  -8.5e-05  2.050283  0.0  -0.679166  9.6e-05  2.290838  0.0  -0.700674  9.9e-05  2.276148  0.0  -0.356749  -0.664233  7e-06  2.300747  0.0
O  O73  1  0.19366549  0.57762517  0.57217072  1  -0.7362  -1.9e-05  2.047108  0.0  -0.681495  0.000125  2.288857  0.0  -0.70296  0.000114  2.274073  0.0  -0.35719  -0.666518  5.4e-05  2.298705  0.0
O  O74  1  0.79693453  0.56375458  0.03254205  1  -0.596773  0.082837  2.051846  0.11  -0.574529  0.055131  2.329058  0.08  -0.619344  0.043008  2.319658  0.067  -0.309665  -0.544431  0.058047  2.335604  0.081
O  O75  1  0.70319723  0.96770315  0.43533260  1  -0.596437  0.082603  2.051861  0.11  -0.574379  0.054985  2.328962  0.08  -0.619288  0.042903  2.319476  0.066  -0.310009  -0.544426  0.05799  2.335604  0.081
O  O76  1  0.20305028  0.43621173  0.96745811  1  -0.596692  -0.082871  2.051483  -0.11  -0.574544  -0.055145  2.32873  -0.08  -0.619375  -0.043019  2.319344  -0.067  -0.309546  -0.544443  -0.058064  2.335249  -0.081
O  O77  1  0.29681684  0.03233761  0.56471099  1  -0.59626  -0.082578  2.052637  -0.11  -0.574244  -0.054974  2.329728  -0.08  -0.618961  -0.042895  2.320172  -0.066  -0.309857  -0.544285  -0.057982  2.336352  -0.081
O  O78  1  0.73367137  0.55581012  0.21407536  1  -0.680432  -0.057409  2.112669  -0.076  -0.641173  -0.043395  2.386539  -0.062  -0.682885  -0.035043  2.376634  -0.053  -0.320316  -0.612946  -0.044556  2.393428  -0.062
O  O79  1  0.76688742  0.78634652  0.44412332  1  -0.681483  -0.057375  2.118628  -0.076  -0.642474  -0.043357  2.392606  -0.062  -0.684062  -0.035029  2.382378  -0.053  -0.321389  -0.614391  -0.044613  2.399727  -0.062
O  O80  1  0.26631670  0.44420006  0.78592791  1  -0.680426  0.057421  2.11275  0.076  -0.64116  0.043406  2.386584  0.062  -0.682873  0.035051  2.376681  0.053  -0.320422  -0.612938  0.044569  2.393501  0.062
O  O81  1  0.23310773  0.21367942  0.55586281  1  -0.681107  0.057388  2.11834  0.076  -0.642187  0.043366  2.392324  0.062  -0.683961  0.035037  2.382228  0.053  -0.321344  -0.614106  0.044621  2.399451  0.062
O  O82  1  0.52797372  0.33189317  0.86898518  1  -0.570805  0.084769  2.082904  0.112  -0.545619  0.056482  2.354208  0.082  -0.589687  0.043968  2.347369  0.067  -0.305744  -0.516565  0.060775  2.359256  0.085
O  O83  1  0.97057078  0.13056191  0.66732317  1  -0.570965  0.084823  2.082617  0.112  -0.54618  0.056564  2.353786  0.082  -0.590541  0.044045  2.347292  0.068  -0.306043  -0.517182  0.060859  2.358725  0.085
O  O84  1  0.47197268  0.66808798  0.13100156  1  -0.57097  -0.084781  2.082325  -0.112  -0.545828  -0.056488  2.353702  -0.082  -0.589936  -0.043971  2.346928  -0.067  -0.305813  -0.516776  -0.060784  2.358736  -0.085
O  O85  1  0.02950346  0.86947132  0.33271824  1  -0.571181  -0.084821  2.082708  -0.112  -0.546299  -0.056564  2.353881  -0.082  -0.590474  -0.044044  2.347298  -0.068  -0.306124  -0.517311  -0.060854  2.358837  -0.085
O  O86  1  0.45444250  0.30703182  0.04501095  1  -0.599508  -0.07272  2.088666  -0.096  -0.573872  -0.049172  2.363102  -0.071  -0.618756  -0.038357  2.355985  -0.058  -0.311038  -0.54353  -0.053548  2.36801  -0.074
O  O87  1  0.04418942  0.95469432  0.69296787  1  -0.597873  -0.073077  2.088479  -0.096  -0.572344  -0.049423  2.362244  -0.071  -0.617184  -0.038568  2.35518  -0.059  -0.310732  -0.542054  -0.053784  2.366999  -0.074
O  O88  1  0.54554418  0.69296082  0.95498891  1  -0.599591  0.072714  2.088857  0.096  -0.573928  0.049171  2.363302  0.071  -0.618808  0.038356  2.356201  0.058  -0.311078  -0.543585  0.053543  2.368237  0.074
O  O89  1  0.95579469  0.04529726  0.30704198  1  -0.597921  0.073072  2.088341  0.096  -0.572428  0.049416  2.362265  0.071  -0.617459  0.038562  2.355284  0.059  -0.310756  -0.542125  0.053774  2.366997  0.074
