# generated using pymatgen
data_ZnSiH30C44N6(O2F)6
_symmetry_space_group_name_H-M   'P 1'
_cell_length_a   7.65012149
_cell_length_b   12.21089790
_cell_length_c   16.51816035
_cell_angle_alpha   99.51381891
_cell_angle_beta   89.99777886
_cell_angle_gamma   108.24368722
_symmetry_Int_Tables_number   1
_chemical_formula_structural   ZnSiH30C44N6(O2F)6
_chemical_formula_sum   'Zn1 Si1 H30 C44 N6 O12 F6'
_cell_volume   1443.11812111
_cell_formula_units_Z   1
loop_
 _symmetry_equiv_pos_site_id
 _symmetry_equiv_pos_as_xyz
  1  'x, y, z'
loop_
 _atom_site_type_symbol
 _atom_site_label
 _atom_site_symmetry_multiplicity
 _atom_site_fract_x
 _atom_site_fract_y
 _atom_site_fract_z
 _atom_site_occupancy
 _atom_site_hle17_bader_spin_density
 _atom_site_hle17_ddec_charge
 _atom_site_hle17_ddec_spin_density
 _atom_site_hle17_ddec_sum_bond_order
 _atom_site_hle17_magmom
 _atom_site_hse06_10hf_bader_spin_density
 _atom_site_hse06_10hf_ddec_charge
 _atom_site_hse06_10hf_ddec_spin_density
 _atom_site_hse06_10hf_ddec_sum_bond_order
 _atom_site_hse06_10hf_magmom
 _atom_site_hse06_bader_spin_density
 _atom_site_hse06_ddec_charge
 _atom_site_hse06_ddec_spin_density
 _atom_site_hse06_ddec_sum_bond_order
 _atom_site_hse06_magmom
 _atom_site_pbe_bader_spin_density
 _atom_site_pbe_cm5_charge
 _atom_site_pbe_ddec_charge
 _atom_site_pbe_ddec_spin_density
 _atom_site_pbe_ddec_sum_bond_order
 _atom_site_pbe_magmom
Zn  Zn0  1  0.21661763  0.99996368  0.50007964  1  0  0.967179  0  1.93354  0  0  0.763387  0  2.395853  0  0  0.807483  0  2.347771  0  0  0.712322  0.732869  0  2.428722  0
Si  Si1  1  0.71216735  0.99995205  0.50011938  1  0  1.983756  0  3.335147  0  0  1.769139  0  3.892945  0  0  1.828204  0  3.80527  0  0  0.265728  1.727172  0  3.954913  0
H  H2  1  0.12100340  0.22756508  0.52031630  1  0  0.101326  0  0.932712  0  0  0.106592  0  0.996096  0  0  0.109571  0  0.993409  0  0  0.122342  0.104346  0  0.998151  0
H  H3  1  0.89333798  0.77214771  0.47988455  1  0  0.100979  0  0.932794  0  0  0.106716  0  0.995454  0  0  0.10959  0  0.992876  0  0  0.122429  0.104544  0  0.997467  0
H  H4  1  0.22295919  0.42643192  0.61040114  1  0  0.117353  0  0.926531  0  0  0.128946  0  0.978604  0  0  0.132365  0  0.977503  0  0  0.119511  0.126431  0  0.979595  0
H  H5  1  0.79631386  0.57351567  0.38950160  1  0  0.117696  0  0.926378  0  0  0.129295  0  0.97841  0  0  0.132764  0  0.977254  0  0  0.119692  0.126778  0  0.979421  0
H  H6  1  0.56202906  0.29834770  0.75499614  1  0  0.120061  0  0.952411  0  0  0.126605  0  1.013963  0  0  0.129931  0  1.013317  0  0  0.114511  0.124163  0  1.014649  0
H  H7  1  0.26414333  0.70170622  0.24530876  1  0  0.120904  0  0.952388  0  0  0.12713  0  1.014154  0  0  0.130372  0  1.013591  0  0  0.114642  0.124773  0  1.01473  0
H  H8  1  0.47117459  0.11257261  0.65154101  1  0  0.098082  0  0.931604  0  0  0.101975  0  0.99869  0  0  0.104785  0  0.996283  0  0  0.124322  0.09988  0  1.000501  0
H  H9  1  0.35896594  0.88724774  0.34897672  1  0  0.09769  0  0.933432  0  0  0.101606  0  1.000281  0  0  0.104427  0  0.997874  0  0  0.124309  0.09948  0  1.002157  0
H  H10  1  0.52978736  0.65983905  0.85408602  1  0  0.11203  0  0.897446  0  0  0.118799  0  0.952908  0  0  0.122195  0  0.949538  0  0  0.137052  0.116278  0  0.955494  0
H  H11  1  0.87044952  0.34070989  0.14563551  1  0  0.111725  0  0.897152  0  0  0.118605  0  0.95293  0  0  0.121974  0  0.94959  0  0  0.137228  0.116091  0  0.955522  0
H  H12  1  0.85576128  0.57394852  0.88391586  1  0  0.104635  0  0.925796  0  0  0.10526  0  0.996798  0  0  0.108194  0  0.994017  0  0  0.130362  0.103118  0  0.99892  0
H  H13  1  0.28227637  0.42629810  0.11579377  1  0  0.104352  0  0.928104  0  0  0.10512  0  0.998497  0  0  0.107943  0  0.99578  0  0  0.130558  0.103048  0  1.000547  0
H  H14  1  0.87247050  0.87017566  0.75355047  1  0  0.122118  0  0.930027  0  0  0.131277  0  0.986198  0  0  0.135149  0  0.984186  0  0  0.118665  0.128484  0  0.987759  0
H  H15  1  0.00189420  0.13022527  0.24661989  1  0  0.12264  0  0.930388  0  0  0.131859  0  0.986208  0  0  0.135804  0  0.98411  0  0  0.118884  0.129013  0  0.987854  0
H  H16  1  0.95750107  0.97605468  0.63543761  1  0  0.103371  0  0.975978  0  0  0.105466  0  1.045904  0  0  0.10917  0  1.041955  0  0  0.116735  0.102719  0  1.04881  0
H  H17  1  0.98108001  0.02408331  0.36455757  1  0  0.102922  0  0.976967  0  0  0.104883  0  1.047138  0  0  0.10856  0  1.043269  0  0  0.116497  0.102127  0  1.050032  0
H  H18  1  0.38678730  0.83972462  0.58170435  1  0  0.106724  0  0.939331  0  0  0.110158  0  1.006094  0  0  0.114002  0  1.001661  0  0  0.122021  0.10725  0  1.009478  0
H  H19  1  0.54649944  0.16010381  0.41832130  1  0  0.10685  0  0.939677  0  0  0.110543  0  1.005914  0  0  0.114383  0  1.001489  0  0  0.122254  0.107641  0  1.009278  0
H  H20  1  0.31749956  0.72678074  0.69930142  1  0  0.133668  0  0.953409  0  0  0.140359  0  1.015605  0  0  0.144535  0  1.012864  0  0  0.115219  0.137397  0  1.017605  0
H  H21  1  0.59032260  0.27322105  0.30083353  1  0  0.133993  0  0.953102  0  0  0.141141  0  1.014658  0  0  0.145313  0  1.011918  0  0  0.11552  0.138113  0  1.01677  0
H  H22  1  0.72619040  0.87961393  0.10083431  1  0  0.110231  0  0.932973  0  0  0.122346  0  0.985694  0  0  0.125454  0  0.984247  0  0  0.109958  0.120097  0  0.986804  0
H  H23  1  0.84638543  0.11994491  0.89897841  1  0  0.1096  0  0.932706  0  0  0.121697  0  0.985528  0  0  0.12488  0  0.983978  0  0  0.109511  0.119461  0  0.986607  0
H  H24  1  0.70764957  0.93036045  0.25365467  1  0  0.101095  0  0.954934  0  0  0.112242  0  1.011507  0  0  0.114739  0  1.010576  0  0  0.100639  0.110424  0  1.012288  0
H  H25  1  0.77701792  0.06935805  0.74616329  1  0  0.100667  0  0.954695  0  0  0.111798  0  1.011465  0  0  0.114302  0  1.010519  0  0  0.100503  0.109987  0  1.012214  0
H  H26  1  0.62983109  0.77577042  0.33817313  1  0  0.106278  0  0.960216  0  0  0.113618  0  1.025012  0  0  0.116554  0  1.023267  0  0  0.101282  0.111411  0  1.026434  0
H  H27  1  0.85325666  0.22403040  0.66173244  1  0  0.106475  0  0.959691  0  0  0.113537  0  1.024865  0  0  0.116561  0  1.023005  0  0  0.101001  0.11128  0  1.02635  0
H  H28  1  0.56623737  0.56533494  0.27121356  1  0  0.08314  0  0.949982  0  0  0.095632  0  1.005806  0  0  0.097704  0  1.006154  0  0  0.096886  0.094147  0  1.005651  0
H  H29  1  0.00015077  0.43443624  0.72873373  1  0  0.083785  0  0.949824  0  0  0.09625  0  1.0056  0  0  0.098399  0  1.005859  0  0  0.097342  0.094758  0  1.00543  0
H  H30  1  0.59203268  0.51554777  0.12086841  1  0  0.116992  0  0.962471  0  0  0.122979  0  1.030752  0  0  0.1269  0  1.02732  0  0  0.105367  0.120136  0  1.033331  0
H  H31  1  0.07636060  0.48402773  0.87904307  1  0  0.117167  0  0.963075  0  0  0.122781  0  1.031715  0  0  0.1267  0  1.028301  0  0  0.105471  0.119941  0  1.034256  0
C  C32  1  0.22449581  0.24913875  0.57083273  1  0  0.13456  0  3.666966  0  0  0.10347  0  3.921693  0  0  0.108811  0  3.940119  0  0  0.058077  0.100005  0  3.909259  0
C  C33  1  0.97530151  0.75067092  0.42935059  1  0  0.135554  0  3.663246  0  0  0.104661  0  3.917221  0  0  0.110098  0  3.935644  0  0  0.058846  0.101125  0  3.904773  0
C  C34  1  0.27747916  0.35776663  0.62192240  1  0  -0.107892  0  3.70359  0  0  -0.130388  0  3.950302  0  0  -0.135703  0  3.972081  0  0  -0.066023  -0.126955  0  3.935727  0
C  C35  1  0.91966159  0.64215468  0.37810636  1  0  -0.109472  0  3.702373  0  0  -0.132526  0  3.949692  0  0  -0.137841  0  3.971427  0  0  -0.06677  -0.129091  0  3.935099  0
C  C36  1  0.39843614  0.37649558  0.69001611  1  0  -0.014281  0  3.770603  0  0  0.000632  0  4.007263  0  0  -0.002721  0  4.028868  0  0  0.007434  0.003  0  3.992677  0
C  C37  1  0.02204336  0.62353482  0.31003510  1  0  -0.014495  0  3.768952  0  0  0.000817  0  4.005193  0  0  -0.00267  0  4.02702  0  0  0.007098  0.003272  0  3.990494  0
C  C38  1  0.46702107  0.28699290  0.70303448  1  0  -0.104997  0  3.676458  0  0  -0.128803  0  3.92253  0  0  -0.133035  0  3.942362  0  0  -0.06784  -0.126125  0  3.909331  0
C  C39  1  0.18030743  0.71302244  0.29721938  1  0  -0.105013  0  3.676305  0  0  -0.128613  0  3.921987  0  0  -0.132727  0  3.941863  0  0  -0.066937  -0.126004  0  3.908696  0
C  C40  1  0.41448648  0.18291304  0.64650231  1  0  0.143019  0  3.651854  0  0  0.112452  0  3.904806  0  0  0.11844  0  3.922006  0  0  0.062354  0.108533  0  3.893205  0
C  C41  1  0.23180679  0.81696904  0.35389683  1  0  0.14232  0  3.655103  0  0  0.111854  0  3.907448  0  0  0.117846  0  3.924633  0  0  0.061723  0.107944  0  3.895835  0
C  C42  1  0.45289274  0.49268942  0.74494849  1  0  0.589672  0  3.770326  0  0  0.539861  0  4.071681  0  0  0.572525  0  4.062408  0  0  0.247421  0.517498  0  4.077544  0
C  C43  1  0.96029785  0.50756072  0.25482521  1  0  0.5901  0  3.76819  0  0  0.540224  0  4.069843  0  0  0.572888  0  4.060636  0  0  0.247179  0.517807  0  4.075717  0
C  C44  1  0.58594319  0.59618637  0.87581680  1  0  0.042433  0  3.617267  0  0  0.007175  0  3.87582  0  0  0.011192  0  3.879712  0  0  0.017022  0.004371  0  3.873205  0
C  C45  1  0.99026972  0.40437511  0.12393443  1  0  0.042979  0  3.615532  0  0  0.006266  0  3.875796  0  0  0.010193  0  3.879615  0  0  0.017265  0.003503  0  3.873227  0
C  C46  1  0.79444175  0.64486474  0.88685864  1  0  0.040175  0  3.631329  0  0  0.0055  0  3.890883  0  0  0.009468  0  3.895414  0  0  0.014254  0.00285  0  3.887754  0
C  C47  1  0.14997841  0.35555782  0.11299352  1  0  0.040099  0  3.630508  0  0  0.006748  0  3.888416  0  0  0.010772  0  3.89295  0  0  0.013568  0.004039  0  3.885281  0
C  C48  1  0.82768479  0.71356425  0.97474421  1  0  0.508623  0  3.748468  0  0  0.462376  0  4.046459  0  0  0.488422  0  4.046846  0  0  0.254477  0.44467  0  4.045865  0
C  C49  1  0.11420933  0.28642042  0.02521642  1  0  0.507536  0  3.749647  0  0  0.462481  0  4.045092  0  0  0.488637  0  4.045261  0  0  0.254441  0.444688  0  4.044648  0
C  C50  1  0.52626342  0.58468560  0.96330893  1  0  0.519053  0  3.734191  0  0  0.475048  0  4.026232  0  0  0.502508  0  4.025419  0  0  0.262961  0.456367  0  4.026528  0
C  C51  1  0.94207818  0.41557551  0.03639603  1  0  0.516612  0  3.733591  0  0  0.472958  0  4.025883  0  0  0.500667  0  4.024631  0  0  0.261385  0.454136  0  4.026405  0
C  C52  1  0.03941470  0.71914758  0.80169351  1  0  0.587228  0  3.779679  0  0  0.538679  0  4.078067  0  0  0.571535  0  4.068079  0  0  0.246296  0.516223  0  4.084535  0
C  C53  1  0.32012692  0.28112547  0.19836745  1  0  0.588384  0  3.779673  0  0  0.541015  0  4.076366  0  0  0.574042  0  4.066068  0  0  0.246943  0.518415  0  4.083015  0
C  C54  1  0.08902686  0.79009977  0.73494431  1  0  -0.014402  0  3.7722  0  0  -0.000597  0  4.009622  0  0  -0.003966  0  4.031564  0  0  0.004144  0.001819  0  3.994741  0
C  C55  1  0.29857258  0.21019047  0.26514213  1  0  -0.016696  0  3.775245  0  0  -0.001685  0  4.010607  0  0  -0.005204  0  4.032654  0  0  0.00437  0.000781  0  3.995705  0
C  C56  1  0.98784904  0.86173092  0.71750440  1  0  -0.105676  0  3.693605  0  0  -0.131112  0  3.943477  0  0  -0.135535  0  3.963583  0  0  -0.070276  -0.128303  0  3.929992  0
C  C57  1  0.12577498  0.13861324  0.28261940  1  0  -0.106154  0  3.694037  0  0  -0.132171  0  3.94352  0  0  -0.136631  0  3.963611  0  0  -0.070439  -0.129324  0  3.930063  0
C  C58  1  0.03547128  0.92129847  0.65199425  1  0  0.124198  0  3.672203  0  0  0.093469  0  3.92694  0  0  0.098859  0  3.944371  0  0  0.052456  0.090006  0  3.915171  0
C  C59  1  0.11379651  0.07885942  0.34804891  1  0  0.125585  0  3.673334  0  0  0.095225  0  3.927672  0  0  0.100594  0  3.945074  0  0  0.052661  0.091794  0  3.915903  0
C  C60  1  0.27421400  0.84353585  0.62155751  1  0  0.134398  0  3.65284  0  0  0.104643  0  3.905948  0  0  0.110285  0  3.923218  0  0  0.057847  0.100993  0  3.894266  0
C  C61  1  0.43016297  0.15643444  0.37850448  1  0  0.133318  0  3.654184  0  0  0.103121  0  3.907616  0  0  0.108748  0  3.924885  0  0  0.056546  0.099475  0  3.895946  0
C  C62  1  0.23660495  0.78201234  0.68681037  1  0  -0.118485  0  3.673348  0  0  -0.138525  0  3.913882  0  0  -0.144058  0  3.93518  0  0  -0.069627  -0.134912  0  3.899497  0
C  C63  1  0.45413072  0.21807362  0.31328955  1  0  -0.118478  0  3.676489  0  0  -0.139201  0  3.916641  0  0  -0.144724  0  3.938017  0  0  -0.069943  -0.135616  0  3.902317  0
C  C64  1  0.65655918  0.69473206  0.10278925  1  0  0.202001  0  3.780714  0  0  0.197152  0  4.030048  0  0  0.202742  0  4.052285  0  0  0.086592  0.193281  0  4.014959  0
C  C65  1  0.96160822  0.30486105  0.89707451  1  0  0.202334  0  3.779851  0  0  0.196209  0  4.030832  0  0  0.201767  0  4.053122  0  0  0.086784  0.192325  0  4.015765  0
C  C66  1  0.69112366  0.81180892  0.13893109  1  0  -0.140491  0  3.744194  0  0  -0.162229  0  3.990397  0  0  -0.164694  0  4.010303  0  0  -0.087839  -0.160383  0  3.976808  0
C  C67  1  0.87903631  0.18782272  0.86093298  1  0  -0.140042  0  3.743394  0  0  -0.161436  0  3.990007  0  0  -0.163941  0  4.009878  0  0  -0.08746  -0.159606  0  3.976425  0
C  C68  1  0.68148440  0.83979758  0.22385298  1  0  -0.065285  0  3.769573  0  0  -0.075314  0  4.014486  0  0  -0.078638  0  4.038337  0  0  -0.090625  -0.072991  0  3.998117  0
C  C69  1  0.84135841  0.15991197  0.77599563  1  0  -0.06437  0  3.768264  0  0  -0.074334  0  4.013156  0  0  -0.077683  0  4.037071  0  0  -0.090723  -0.071995  0  3.996735  0
C  C70  1  0.63654692  0.75176760  0.27189735  1  0  -0.075268  0  3.758304  0  0  -0.089803  0  4.006599  0  0  -0.092268  0  4.030624  0  0  -0.090839  -0.087901  0  3.990128  0
C  C71  1  0.88421674  0.24797707  0.72799434  1  0  -0.075233  0  3.758023  0  0  -0.089762  0  4.006457  0  0  -0.092304  0  4.030503  0  0  -0.090262  -0.087824  0  3.990025  0
C  C72  1  0.60136494  0.63499819  0.23452924  1  0  -0.07612  0  3.797906  0  0  -0.087861  0  4.05168  0  0  -0.091691  0  4.076706  0  0  -0.098424  -0.085185  0  4.034508  0
C  C73  1  0.96581717  0.36473518  0.76538791  1  0  -0.077107  0  3.799883  0  0  -0.08887  0  4.053604  0  0  -0.092776  0  4.078634  0  0  -0.099289  -0.086184  0  4.036448  0
C  C74  1  0.61298876  0.60575747  0.14986214  1  0  -0.143772  0  3.734892  0  0  -0.172311  0  3.997063  0  0  -0.174457  0  4.015812  0  0  -0.092933  -0.170713  0  3.98436  0
C  C75  1  0.00690482  0.39387853  0.85002329  1  0  -0.144424  0  3.7354  0  0  -0.172284  0  3.997938  0  0  -0.174458  0  4.016743  0  0  -0.093463  -0.170674  0  3.985204  0
N  N76  1  0.29369351  0.16392679  0.58257237  1  0  -0.303953  0  3.270747  0  0  -0.227162  0  3.536774  0  0  -0.244528  0  3.554564  0  0  -0.311078  -0.215392  0  3.524607  0
N  N77  1  0.12982949  0.83586126  0.41775900  1  0  -0.303419  0  3.268703  0  0  -0.226486  0  3.534378  0  0  -0.243871  0  3.552143  0  0  -0.311342  -0.214705  0  3.52225  0
N  N78  1  0.66824968  0.66575532  0.01601996  1  0  -0.298524  0  3.412883  0  0  -0.225786  0  3.640879  0  0  -0.250313  0  3.659324  0  0  -0.228266  -0.20902  0  3.627854  0
N  N79  1  0.00251880  0.33405045  0.98382716  1  0  -0.298387  0  3.412597  0  0  -0.225521  0  3.639886  0  0  -0.250156  0  3.658198  0  0  -0.227713  -0.208665  0  3.626932  0
N  N80  1  0.17427030  0.91114229  0.60433753  1  0  -0.31951  0  3.280813  0  0  -0.244097  0  3.550048  0  0  -0.261231  0  3.568017  0  0  -0.316057  -0.232464  0  3.537658  0
N  N81  1  0.26266704  0.08882913  0.39569358  1  0  -0.318758  0  3.279468  0  0  -0.243596  0  3.548937  0  0  -0.260694  0  3.566859  0  0  -0.314687  -0.231963  0  3.536584  0
O  O82  1  0.43991440  0.58178541  0.72499694  1  0  -0.490263  0  1.942323  0  0  -0.458835  0  2.151424  0  0  -0.477622  0  2.142911  0  0  -0.259615  -0.445871  0  2.157051  0
O  O83  1  0.85795973  0.41836928  0.27451659  1  0  -0.489797  0  1.941524  0  0  -0.45847  0  2.150924  0  0  -0.477222  0  2.142425  0  0  -0.25901  -0.445418  0  2.156547  0
O  O84  1  0.52087592  0.48726172  0.82033133  1  0  -0.291585  0  2.250579  0  0  -0.229816  0  2.481956  0  0  -0.248564  0  2.478352  0  0  -0.145966  -0.216643  0  2.483962  0
O  O85  1  0.03393781  0.51326636  0.17946387  1  0  -0.292001  0  2.247195  0  0  -0.230158  0  2.479219  0  0  -0.248869  0  2.475587  0  0  -0.146309  -0.21699  0  2.48124  0
O  O86  1  0.86909426  0.71726420  0.82776912  1  0  -0.3084  0  2.295145  0  0  -0.246902  0  2.529682  0  0  -0.266417  0  2.525697  0  0  -0.152327  -0.233383  0  2.532012  0
O  O87  1  0.15191656  0.28335656  0.17228170  1  0  -0.307753  0  2.291872  0  0  -0.248153  0  2.52654  0  0  -0.267627  0  2.522427  0  0  -0.152875  -0.234543  0  2.528902  0
O  O88  1  0.13247641  0.66635174  0.82764984  1  0  -0.481068  0  1.936995  0  0  -0.446251  0  2.143887  0  0  -0.464583  0  2.136279  0  0  -0.256792  -0.433578  0  2.148837  0
O  O89  1  0.46613486  0.33362888  0.17241674  1  0  -0.481124  0  1.937122  0  0  -0.446954  0  2.143842  0  0  -0.465383  0  2.136122  0  0  -0.256853  -0.434323  0  2.148949  0
O  O90  1  0.96431659  0.79305438  0.00345529  1  0  -0.440035  0  1.887776  0  0  -0.413129  0  2.075347  0  0  -0.429894  0  2.071785  0  0  -0.261686  -0.401639  0  2.077638  0
O  O91  1  0.17117516  0.20675126  0.99669782  1  0  -0.439424  0  1.888558  0  0  -0.413021  0  2.075343  0  0  -0.429843  0  2.07172  0  0  -0.261638  -0.401499  0  2.077677  0
O  O92  1  0.38105596  0.52208051  0.98358279  1  0  -0.455962  0  1.938505  0  0  -0.42598  0  2.149649  0  0  -0.444649  0  2.145601  0  0  -0.256221  -0.413201  0  2.152205  0
O  O93  1  0.85963481  0.47814227  0.01593475  1  0  -0.453985  0  1.938318  0  0  -0.423821  0  2.149192  0  0  -0.442567  0  2.145019  0  0  -0.255303  -0.410972  0  2.151789  0
F  F94  1  0.48519000  0.00026926  0.50018839  1  0  -0.584218  0  1.145481  0  0  -0.51333  0  1.377245  0  0  -0.53117  0  1.350734  0  0  -0.200788  -0.500633  0  1.395663  0
F  F95  1  0.71644979  0.01266495  0.60455562  1  0  -0.595652  0  0.952765  0  0  -0.542237  0  1.135296  0  0  -0.556919  0  1.111392  0  0  -0.22306  -0.531507  0  1.151889  0
F  F96  1  0.70346694  0.98723895  0.39568946  1  0  -0.59543  0  0.951983  0  0  -0.542298  0  1.134659  0  0  -0.556957  0  1.110741  0  0  -0.223446  -0.531564  0  1.15125  0
F  F97  1  0.78741153  0.14862012  0.50919953  1  0  -0.601754  0  0.885371  0  0  -0.557148  0  1.059211  0  0  -0.570072  0  1.034131  0  0  -0.249097  -0.547663  0  1.076738  0
F  F98  1  0.63809921  0.85127459  0.49106617  1  0  -0.599391  0  0.882748  0  0  -0.557258  0  1.05916  0  0  -0.570173  0  1.034062  0  0  -0.249066  -0.547782  0  1.076712  0
F  F99  1  0.94062420  0.99969122  0.50000790  1  0  -0.58712  0  1.109733  0  0  -0.515542  0  1.332108  0  0  -0.532896  0  1.30608  0  0  -0.199999  -0.503068  0  1.350146  0
