# generated using pymatgen
data_NdH27C22(NO5)2
_symmetry_space_group_name_H-M   'P 1'
_cell_length_a   9.30319301
_cell_length_b   11.90806125
_cell_length_c   12.85340000
_cell_angle_alpha   84.44797234
_cell_angle_beta   70.43417258
_cell_angle_gamma   68.54671481
_symmetry_Int_Tables_number   1
_chemical_formula_structural   NdH27C22(NO5)2
_chemical_formula_sum   'Nd2 H54 C44 N4 O20'
_cell_volume   1248.21905880
_cell_formula_units_Z   2
loop_
 _symmetry_equiv_pos_site_id
 _symmetry_equiv_pos_as_xyz
  1  'x, y, z'
loop_
 _atom_site_type_symbol
 _atom_site_label
 _atom_site_symmetry_multiplicity
 _atom_site_fract_x
 _atom_site_fract_y
 _atom_site_fract_z
 _atom_site_occupancy
 _atom_site_hle17_bader_spin_density
 _atom_site_hle17_ddec_charge
 _atom_site_hle17_ddec_spin_density
 _atom_site_hle17_ddec_sum_bond_order
 _atom_site_hle17_magmom
 _atom_site_hse06_10hf_bader_spin_density
 _atom_site_hse06_10hf_ddec_charge
 _atom_site_hse06_10hf_ddec_spin_density
 _atom_site_hse06_10hf_ddec_sum_bond_order
 _atom_site_hse06_10hf_magmom
 _atom_site_hse06_bader_spin_density
 _atom_site_hse06_ddec_charge
 _atom_site_hse06_ddec_spin_density
 _atom_site_hse06_ddec_sum_bond_order
 _atom_site_hse06_magmom
 _atom_site_pbe_bader_charge
 _atom_site_pbe_bader_spin_density
 _atom_site_pbe_cm5_charge
 _atom_site_pbe_ddec_charge
 _atom_site_pbe_ddec_spin_density
 _atom_site_pbe_ddec_sum_bond_order
 _atom_site_pbe_magmom
Nd  Nd0  1  0.84818157  0.89293063  0.52200029  1  0  2.288041  0  1.620927  0  0  2.126645  0  2.084612  0  0  2.224948  0  1.937479  0  2.236682  0  1.463879  2.091006  0  2.121666  0
Nd  Nd1  1  0.15181973  0.10706834  0.47800004  1  0  2.288054  0  1.620888  0  0  2.126675  0  2.084532  0  0  2.224955  0  1.937441  0  2.236794  0  1.463885  2.091056  0  2.121554  0
H  H2  1  0.88084802  0.27266397  0.32579504  1  0  0.129181  0  0.964228  0  0  0.134925  0  1.029989  0  0  0.138679  0  1.029919  0  0.094764  0  0.109073  0.131997  0  1.030726  0
H  H3  1  0.11914443  0.72733680  0.67420727  1  0  0.129116  0  0.964206  0  0  0.13487  0  1.02998  0  0  0.138634  0  1.02988  0  0.094751  0  0.109037  0.13194  0  1.030719  0
H  H4  1  0.64336834  0.19783266  0.25261917  1  0  0.080364  0  0.960734  0  0  0.092195  0  1.021881  0  0  0.094468  0  1.02058  0  0.094298  0  0.105075  0.090351  0  1.023058  0
H  H5  1  0.35663155  0.80216450  0.74738243  1  0  0.080355  0  0.960654  0  0  0.092185  0  1.021814  0  0  0.094457  0  1.020511  0  0.094313  0  0.105062  0.090341  0  1.022992  0
H  H6  1  0.78326301  0.40386698  0.18233115  1  0  0.103661  0  0.965696  0  0  0.125751  0  1.024841  0  0  0.126615  0  1.025742  0  0.043901  0  0.090691  0.125064  0  1.024285  0
H  H7  1  0.21673530  0.59613108  0.81766997  1  0  0.103873  0  0.965624  0  0  0.125941  0  1.024758  0  0  0.126804  0  1.025662  0  0.043828  0  0.090756  0.125254  0  1.024204  0
H  H8  1  0.59117455  0.40610019  0.17858172  1  0  0.107776  0  0.946305  0  0  0.129857  0  1.00638  0  0  0.130855  0  1.006532  0  0.059838  0  0.094776  0.12902  0  1.00654  0
H  H9  1  0.40881876  0.59389878  0.82141898  1  0  0.107774  0  0.946333  0  0  0.129885  0  1.006373  0  0  0.130888  0  1.006518  0  0.060026  0  0.094778  0.129048  0  1.006534  0
H  H10  1  0.77398769  0.30984854  0.08640294  1  0  0.11173  0  0.932149  0  0  0.136119  0  0.987131  0  0  0.136776  0  0.987923  0  0.06074  0  0.097832  0.135845  0  0.9862  0
H  H11  1  0.22600920  0.69014772  0.91359869  1  0  0.111775  0  0.932144  0  0  0.136166  0  0.987111  0  0  0.136823  0  0.987904  0  0.060813  0  0.097848  0.13589  0  0.986182  0
H  H12  1  0.28696522  0.57770218  0.24632213  1  0  0.11273  0  0.958413  0  0  0.123152  0  1.01745  0  0  0.126096  0  1.018357  0  0.037804  0  0.099252  0.120731  0  1.017626  0
H  H13  1  0.71303635  0.42229859  0.75367719  1  0  0.112722  0  0.958398  0  0  0.123149  0  1.017432  0  0  0.126094  0  1.018338  0  0.037897  0  0.099258  0.120729  0  1.017608  0
H  H14  1  0.28118740  0.82244207  0.14111621  1  0  0.073269  0  0.960182  0  0  0.085889  0  1.022547  0  0  0.087951  0  1.021084  0  0.090336  0  0.102387  0.084561  0  1.023289  0
H  H15  1  0.71881417  0.17755871  0.85888389  1  0  0.073276  0  0.960155  0  0  0.085893  0  1.022539  0  0  0.087956  0  1.021075  0  0.090307  0  0.102398  0.084566  0  1.02328  0
H  H16  1  0.57556854  0.68011906  0.06194363  1  0  0.119765  0  0.94469  0  0  0.138197  0  1.00868  0  0  0.140442  0  1.007531  0  0.072384  0  0.096471  0.136876  0  1.008916  0
H  H17  1  0.42443075  0.31988171  0.93805546  1  0  0.119763  0  0.944727  0  0  0.138194  0  1.008716  0  0  0.14044  0  1.007565  0  0.072378  0  0.096471  0.136872  0  1.008951  0
H  H18  1  0.46360333  0.68827468  0.97429105  1  0  0.117765  0  0.952794  0  0  0.135751  0  1.018213  0  0  0.137504  0  1.017549  0  0.084049  0  0.09496  0.134275  0  1.018953  0
H  H19  1  0.53639596  0.31172609  0.02570804  1  0  0.117754  0  0.952826  0  0  0.13573  0  1.018254  0  0  0.137482  0  1.01759  0  0.084113  0  0.09495  0.134253  0  1.018994  0
H  H20  1  0.50449958  0.55940597  0.06022673  1  0  0.095835  0  0.971343  0  0  0.117454  0  1.032464  0  0  0.118418  0  1.033  0  -0.006605  0  0.087244  0.116721  0  1.032212  0
H  H21  1  0.49550085  0.44059480  0.93977209  1  0  0.095817  0  0.97133  0  0  0.117436  0  1.03245  0  0  0.118399  0  1.032989  0  -0.006598  0  0.087238  0.116704  0  1.032198  0
H  H22  1  0.75232767  0.60681688  0.89568185  1  0  0.106622  0  0.98363  0  0  0.117543  0  1.044766  0  0  0.120761  0  1.044448  0  0.042625  0  0.096712  0.115219  0  1.045147  0
H  H23  1  0.24767205  0.39318299  0.10431800  1  0  0.106603  0  0.983638  0  0  0.117546  0  1.04476  0  0  0.120765  0  1.044441  0  0.042626  0  0.096713  0.115222  0  1.045141  0
H  H24  1  0.05456243  0.53741062  0.68808779  1  0  0.070157  0  0.963307  0  0  0.082882  0  1.025683  0  0  0.084789  0  1.024875  0  0.089055  0  0.097564  0.08153  0  1.026212  0
H  H25  1  0.94543729  0.46258925  0.31191205  1  0  0.070168  0  0.963303  0  0  0.082891  0  1.025684  0  0  0.084796  0  1.024876  0  0.089089  0  0.097564  0.081537  0  1.026215  0
H  H26  1  0.96777305  0.41765255  0.91652745  1  0  0.103207  0  0.942575  0  0  0.127263  0  0.997287  0  0  0.128786  0  0.997271  0  0.042572  0  0.090714  0.126204  0  0.997194  0
H  H27  1  0.03222439  0.58234732  0.08347217  1  0  0.103184  0  0.942584  0  0  0.127257  0  0.997276  0  0  0.12878  0  0.997259  0  0.042579  0  0.090716  0.126198  0  0.997182  0
H  H28  1  0.16927828  0.40997264  0.83520211  1  0  0.101993  0  0.944838  0  0  0.123213  0  1.005701  0  0  0.124642  0  1.005574  0  0.027542  0  0.09015  0.12242  0  1.005382  0
H  H29  1  0.83071987  0.59002813  0.16479882  1  0  0.101994  0  0.944791  0  0  0.123207  0  1.005664  0  0  0.124636  0  1.005537  0  0.027522  0  0.090145  0.122415  0  1.005344  0
H  H30  1  0.06973751  0.33550150  0.78781867  1  0  0.115804  0  0.948594  0  0  0.135429  0  1.011814  0  0  0.136548  0  1.012984  0  0.057922  0  0.094019  0.134759  0  1.010696  0
H  H31  1  0.93026265  0.66449746  0.21218193  1  0  0.115775  0  0.94857  0  0  0.135401  0  1.0118  0  0  0.136519  0  1.012972  0  0.057936  0  0.094016  0.13473  0  1.010683  0
H  H32  1  0.50142003  0.18134902  0.64081816  1  0  0.123026  0  0.942617  0  0  0.126201  0  1.013524  0  0  0.131442  0  1.007212  0  0.183886  0  0.139288  0.122202  0  1.01847  0
H  H33  1  0.49857839  0.81865356  0.35918643  1  0  0.123083  0  0.942585  0  0  0.126252  0  1.013478  0  0  0.131493  0  1.007164  0  0.183872  0  0.139301  0.122232  0  1.018444  0
H  H34  1  0.63127021  0.33664880  0.59721610  1  0  0.115902  0  0.971739  0  0  0.124838  0  1.031589  0  0  0.127584  0  1.031359  0  0.120556  0  0.115074  0.123565  0  1.030813  0
H  H35  1  0.36872821  0.66335378  0.40278537  1  0  0.115901  0  0.971657  0  0  0.124856  0  1.031496  0  0  0.127609  0  1.031247  0  0.120564  0  0.115067  0.123581  0  1.030725  0
H  H36  1  0.74064012  0.45781142  0.55117785  1  0  0.128985  0  0.981938  0  0  0.136848  0  1.041824  0  0  0.141347  0  1.038847  0  0.142602  0  0.113222  0.133478  0  1.044098  0
H  H37  1  0.25936074  0.54218845  0.44882172  1  0  0.128983  0  0.981979  0  0  0.136849  0  1.041862  0  0  0.141348  0  1.038887  0  0.142614  0  0.11322  0.133503  0  1.044107  0
H  H38  1  0.84931410  0.62365799  0.50420270  1  0  0.132051  0  0.944614  0  0  0.139547  0  1.004344  0  0  0.143258  0  1.00142  0  0.179195  0  0.142887  0.136629  0  1.007016  0
H  H39  1  0.15068676  0.37634188  0.49579920  1  0  0.132045  0  0.944628  0  0  0.139539  0  1.004368  0  0  0.143251  0  1.001442  0  0.179221  0  0.142893  0.136622  0  1.007039  0
H  H40  1  0.46784002  0.92492304  0.61057000  1  0  0.448255  0  0.845676  0  0  0.418888  0  0.906323  0  0  0.430036  0  0.890108  0  0.648657  0  0.300713  0.410439  0  0.918721  0
H  H41  1  0.53216013  0.07507593  0.38942982  1  0  0.448221  0  0.845724  0  0  0.418838  0  0.9064  0  0  0.429989  0  0.890181  0  0.64865  0  0.300682  0.410389  0  0.918799  0
H  H42  1  0.56846236  0.87518414  0.69799286  1  0  0.413335  0  0.906129  0  0  0.380182  0  0.975022  0  0  0.392013  0  0.95816  0  0.634282  0  0.28266  0.371294  0  0.987899  0
H  H43  1  0.43153693  0.12481663  0.30200779  1  0  0.413305  0  0.906171  0  0  0.38015  0  0.975068  0  0  0.39198  0  0.958209  0  0.634136  0  0.282651  0.371262  0  0.987947  0
H  H44  1  0.82548865  0.06191139  0.69624664  1  0  0.42675  0  0.884074  0  0  0.39582  0  0.948866  0  0  0.40604  0  0.934265  0  0.650619  0  0.29491  0.388642  0  0.959271  0
H  H45  1  0.17451222  0.93808847  0.30375293  1  0  0.426769  0  0.884041  0  0  0.395845  0  0.948823  0  0  0.406064  0  0.934223  0  0.650622  0  0.294934  0.388666  0  0.959229  0
H  H46  1  0.64999062  0.04526797  0.74941051  1  0  0.433189  0  0.867747  0  0  0.401797  0  0.933662  0  0  0.412613  0  0.918122  0  0.637013  0  0.294022  0.394497  0  0.944075  0
H  H47  1  0.35000981  0.95473280  0.25058908  1  0  0.433137  0  0.867822  0  0  0.401752  0  0.933727  0  0  0.412564  0  0.918191  0  0.637011  0  0.294007  0.394452  0  0.944139  0
H  H48  1  0.68946825  0.90068365  0.26123239  1  0  0.124231  0  0.977539  0  0  0.127376  0  1.0472  0  0  0.132814  0  1.041144  0  0.215586  0  0.130263  0.123328  0  1.051859  0
H  H49  1  0.31053430  0.09931983  0.73876567  1  0  0.124268  0  0.977532  0  0  0.127363  0  1.04727  0  0  0.132798  0  1.041216  0  0.215577  0  0.130256  0.123314  0  1.051931  0
H  H50  1  0.93005981  0.95919560  0.19306405  1  0  0.124752  0  0.968418  0  0  0.131133  0  1.032686  0  0  0.13503  0  1.030798  0  0.122724  0  0.113725  0.128234  0  1.034182  0
H  H51  1  0.06994132  0.04080608  0.80693452  1  0  0.124824  0  0.96835  0  0  0.131124  0  1.032715  0  0  0.135017  0  1.030824  0  0.122704  0  0.113707  0.128226  0  1.03421  0
H  H52  1  0.88715562  0.97426386  0.86500297  1  0  0.115681  0  0.959124  0  0  0.124687  0  1.020889  0  0  0.128472  0  1.018459  0  0.116944  0  0.113951  0.12198  0  1.022868  0
H  H53  1  0.11284410  0.02573601  0.13499610  1  0  0.11567  0  0.959148  0  0  0.124697  0  1.020886  0  0  0.128483  0  1.018452  0  0.116989  0  0.113976  0.12199  0  1.022862  0
H  H54  1  0.64675876  0.91268104  0.94786169  1  0  0.124592  0  0.930834  0  0  0.128601  0  0.998483  0  0  0.132876  0  0.994398  0  0.168658  0  0.131674  0.125312  0  1.00129  0
H  H55  1  0.35324167  0.08731974  0.05213635  1  0  0.124615  0  0.930806  0  0  0.128625  0  0.998454  0  0  0.132899  0  0.99437  0  0.168651  0  0.131675  0.125335  0  1.001264  0
C  C56  1  0.80043982  0.12546384  0.40250038  1  0  0.720869  0  3.904499  0  0  0.675167  0  4.194701  0  0  0.70982  0  4.191279  0  1.488029  0  0.208797  0.651034  0  4.200691  0
C  C57  1  0.19956463  0.87453332  0.59749700  1  0  0.720821  0  3.90451  0  0  0.675143  0  4.194674  0  0  0.709795  0  4.191254  0  1.488092  0  0.208823  0.651006  0  4.200671  0
C  C58  1  0.80223763  0.22392072  0.32427024  1  0  -0.291077  0  3.687195  0  0  -0.305012  0  3.942891  0  0  -0.319689  0  3.961872  0  -0.043014  0  -0.106607  -0.294879  0  3.9296  0
C  C59  1  0.19776508  0.77608006  0.67572880  1  0  -0.291048  0  3.687138  0  0  -0.304986  0  3.942808  0  0  -0.319658  0  3.961796  0  -0.042937  0  -0.106567  -0.294848  0  3.929515  0
C  C60  1  0.71788409  0.25051246  0.25277715  1  0  0.094467  0  3.667261  0  0  0.082102  0  3.920649  0  0  0.087588  0  3.93934  0  -0.056677  0  -0.061803  0.079154  0  3.90672  0
C  C61  1  0.28211552  0.74948290  0.74722468  1  0  0.094575  0  3.667115  0  0  0.082192  0  3.920534  0  0  0.087677  0  3.939228  0  -0.056704  0  -0.061793  0.079246  0  3.906598  0
C  C62  1  0.71751238  0.34827337  0.17147242  1  0  -0.305522  0  3.756423  0  0  -0.377594  0  3.98956  0  0  -0.38019  0  3.999707  0  -0.086495  0  -0.234518  -0.375277  0  3.981804  0
C  C63  1  0.28248338  0.65172289  0.82852871  1  0  -0.305833  0  3.756489  0  0  -0.377915  0  3.989629  0  0  -0.380516  0  3.999775  0  -0.086735  0  -0.234608  -0.375596  0  3.981878  0
C  C64  1  0.11364270  0.74876437  0.33022468  1  0  0.683444  0  3.942657  0  0  0.637187  0  4.237581  0  0  0.672128  0  4.232387  0  1.507246  0  0.190919  0.61322  0  4.242433  0
C  C65  1  0.88635816  0.25123550  0.66977489  1  0  0.683317  0  3.942806  0  0  0.637059  0  4.237735  0  0  0.672  0  4.232541  0  1.507254  0  0.190851  0.613092  0  4.242587  0
C  C66  1  0.24773338  0.67536290  0.23629393  1  0  -0.30192  0  3.719049  0  0  -0.312701  0  3.972074  0  0  -0.327804  0  3.991256  0  -0.088085  0  -0.118505  -0.302789  0  3.958826  0
C  C67  1  0.75226819  0.32463787  0.76370616  1  0  -0.301918  0  3.718983  0  0  -0.312705  0  3.972012  0  0  -0.327805  0  3.991192  0  -0.088191  0  -0.118519  -0.302792  0  3.958764  0
C  C68  1  0.32518884  0.72426141  0.14672838  1  0  0.111051  0  3.66948  0  0  0.097688  0  3.920445  0  0  0.105284  0  3.937393  0  -0.032554  0  -0.062377  0.092964  0  3.908486  0
C  C69  1  0.67481045  0.27573936  0.85327071  1  0  0.11111  0  3.669361  0  0  0.097738  0  3.920327  0  0  0.105332  0  3.937273  0  -0.032503  0  -0.062359  0.093013  0  3.908371  0
C  C70  1  0.47369080  0.65749004  0.05594408  1  0  -0.323182  0  3.765784  0  0  -0.396193  0  4.006095  0  0  -0.399448  0  4.01422  0  -0.039495  0  -0.242096  -0.393824  0  4.000425  0
C  C71  1  0.52630778  0.34250983  0.94405448  1  0  -0.323173  0  3.765831  0  0  -0.396169  0  4.006143  0  0  -0.399423  0  4.01427  0  -0.03955  0  -0.242093  -0.393798  0  4.000472  0
C  C72  1  0.76392707  0.71813228  0.74897709  1  0  0.713777  0  3.909735  0  0  0.671907  0  4.19777  0  0  0.706693  0  4.190589  0  1.549454  0  0.208704  0.648139  0  4.202991  0
C  C73  1  0.23607379  0.28186759  0.25102403  1  0  0.713798  0  3.909735  0  0  0.671967  0  4.197712  0  0  0.706754  0  4.190527  0  1.549632  0  0.208732  0.648203  0  4.202931  0
C  C74  1  0.83239141  0.61308863  0.81280123  1  0  -0.290541  0  3.708162  0  0  -0.30443  0  3.956005  0  0  -0.31695  0  3.973509  0  0.003386  0  -0.117108  -0.29589  0  3.944117  0
C  C75  1  0.16761032  0.38690943  0.18719907  1  0  -0.290508  0  3.708178  0  0  -0.304437  0  3.956012  0  0  -0.316955  0  3.973515  0  0.003387  0  -0.117111  -0.295896  0  3.944123  0
C  C76  1  0.98020483  0.52739731  0.77227700  1  0  0.066515  0  3.714413  0  0  0.05498  0  3.971019  0  0  0.059904  0  3.989834  0  -0.135658  0  -0.076821  0.051886  0  3.957915  0
C  C77  1  0.01979375  0.47260256  0.22772234  1  0  0.06646  0  3.714455  0  0  0.054925  0  3.97107  0  0  0.059851  0  3.989882  0  -0.135697  0  -0.076847  0.051831  0  3.957966  0
C  C78  1  0.04910837  0.41780601  0.83183722  1  0  -0.308738  0  3.767803  0  0  -0.381397  0  4.006156  0  0  -0.384854  0  4.016646  0  -0.055092  0  -0.239896  -0.378788  0  3.998381  0
C  C79  1  0.95089065  0.58219296  0.16816288  1  0  -0.308645  0  3.767771  0  0  -0.381311  0  4.006121  0  0  -0.384767  0  4.016611  0  -0.055093  0  -0.239863  -0.378702  0  3.998344  0
C  C80  1  0.45643796  0.26318774  0.59793668  1  0  0.024554  0  3.579554  0  0  -0.018062  0  3.842355  0  0  -0.010272  0  3.851512  0  0.351673  0  0.049431  -0.022771  0  3.836113  0
C  C81  1  0.54356203  0.73681393  0.40206605  1  0  0.024508  0  3.579586  0  0  -0.01808  0  3.842357  0  0  -0.010295  0  3.851524  0  0.351754  0  0.049451  -0.022773  0  3.836128  0
C  C82  1  0.52500187  0.35118539  0.57265653  1  0  -0.126322  0  3.72132  0  0  -0.143286  0  3.969292  0  0  -0.148341  0  3.987857  0  -0.033974  0  -0.072971  -0.140466  0  3.956304  0
C  C83  1  0.47499812  0.64881629  0.42734542  1  0  -0.126368  0  3.721177  0  0  -0.143349  0  3.969169  0  0  -0.148405  0  3.987739  0  -0.033997  0  -0.072964  -0.14053  0  3.956178  0
C  C84  1  0.46213794  0.45401118  0.51511998  1  0  0.07276  0  3.780029  0  0  0.080471  0  4.017155  0  0  0.084165  0  4.037871  0  0.035332  0  0.003321  0.078252  0  4.003096  0
C  C85  1  0.53786249  0.54598959  0.48488195  1  0  0.072908  0  3.779952  0  0  0.080567  0  4.017128  0  0  0.084264  0  4.037841  0  0.077564  0  0.003335  0.078349  0  4.003066  0
C  C86  1  0.67651616  0.53646643  0.51181492  1  0  -0.127838  0  3.700485  0  0  -0.145048  0  3.94941  0  0  -0.149895  0  3.965894  0  0.034676  0  -0.073496  -0.141934  0  3.938387  0
C  C87  1  0.32348471  0.46353344  0.48818621  1  0  -0.127825  0  3.70052  0  0  -0.145041  0  3.949434  0  0  -0.14989  0  3.965923  0  0.034708  0  -0.073482  -0.141945  0  3.938395  0
C  C88  1  0.74222679  0.62623060  0.48582556  1  0  0.005286  0  3.591196  0  0  -0.03699  0  3.852265  0  0  -0.030349  0  3.86416  0  0.285325  0  0.050023  -0.041393  0  3.844865  0
C  C89  1  0.25777294  0.37376927  0.51417662  1  0  0.005293  0  3.591322  0  0  -0.036997  0  3.852411  0  0  -0.030355  0  3.864306  0  0.285335  0  0.050003  -0.0414  0  3.845017  0
C  C90  1  0.73694961  0.92057308  0.17490233  1  0  0.006216  0  3.593487  0  0  -0.034905  0  3.854041  0  0  -0.027899  0  3.863332  0  0.357181  0  0.035627  -0.039444  0  3.847348  0
C  C91  1  0.26305153  0.07942860  0.82509546  1  0  0.006176  0  3.593502  0  0  -0.034909  0  3.854039  0  0  -0.027903  0  3.863327  0  0.357249  0  0.035612  -0.039448  0  3.847344  0
C  C92  1  0.87121905  0.95496749  0.13400669  1  0  -0.126168  0  3.714645  0  0  -0.146183  0  3.970586  0  0  -0.150893  0  3.988535  0  -0.045659  0  -0.076154  -0.141541  0  3.957038  0
C  C93  1  0.12878366  0.04503328  0.86599080  1  0  -0.126273  0  3.714706  0  0  -0.146247  0  3.970608  0  0  -0.150951  0  3.988549  0  -0.045798  0  -0.076174  -0.141589  0  3.957077  0
C  C94  1  0.93013410  0.97977827  0.02167401  1  0  0.06217  0  3.78583  0  0  0.070653  0  4.022473  0  0  0.073613  0  4.044123  0  0.008408  0  -0.003355  0.068253  0  4.008625  0
C  C95  1  0.06986720  0.02022070  0.97832165  1  0  0.062182  0  3.785743  0  0  0.070786  0  4.022269  0  0  0.073752  0  4.043913  0  0.047449  0  -0.003321  0.068312  0  4.008487  0
C  C96  1  0.84788268  0.96212837  0.95382365  1  0  -0.128512  0  3.72829  0  0  -0.144837  0  3.977797  0  0  -0.149387  0  3.995923  0  -0.0496  0  -0.076371  -0.143578  0  3.967246  0
C  C97  1  0.15211889  0.03787240  0.04617255  1  0  -0.128497  0  3.728177  0  0  -0.144873  0  3.977688  0  0  -0.149425  0  3.995816  0  -0.049719  0  -0.076399  -0.143595  0  3.967155  0
C  C98  1  0.71359891  0.92757147  0.99706590  1  0  0.00314  0  3.591623  0  0  -0.038273  0  3.851922  0  0  -0.031614  0  3.86302  0  0.380027  0  0.036829  -0.042353  0  3.844508  0
C  C99  1  0.28640266  0.07242930  0.00293264  1  0  0.00313  0  3.591615  0  0  -0.038287  0  3.851938  0  0  -0.031626  0  3.863037  0  0.380025  0  0.036829  -0.042369  0  3.844522  0
N  N100  1  0.32529643  0.27384285  0.56732698  1  0  0.289228  0  3.722403  0  0  0.343111  0  3.984572  0  0  0.343836  0  4.008276  0  -0.627761  0  -0.107266  0.342074  0  3.969785  0
N  N101  1  0.67470400  0.72615792  0.43267495  1  0  0.289124  0  3.722305  0  0  0.343012  0  3.98447  0  0  0.343737  0  4.008175  0  -0.627741  0  -0.107318  0.341977  0  3.969679  0
N  N102  1  0.65593801  0.90929241  0.10773267  1  0  0.278569  0  3.738382  0  0  0.334308  0  3.99568  0  0  0.335085  0  4.018149  0  -0.654808  0  -0.107988  0.333761  0  3.980597  0
N  N103  1  0.34406199  0.09070926  0.89226539  1  0  0.278583  0  3.738351  0  0  0.334323  0  3.995636  0  0  0.335101  0  4.018104  0  -0.654796  0  -0.107955  0.333778  0  3.980554  0
O  O104  1  0.70661892  0.06537765  0.41576756  1  0  -0.703069  0  2.002767  0  0  -0.641794  0  2.236435  0  0  -0.671952  0  2.226458  0  -1.190737  0  -0.356256  -0.624332  0  2.24357  0
O  O105  1  0.29338640  0.93461771  0.58422978  1  0  -0.703038  0  2.002789  0  0  -0.64179  0  2.236453  0  0  -0.671945  0  2.226477  0  -1.190819  0  -0.356284  -0.62433  0  2.24359  0
O  O106  1  0.89893524  0.09769051  0.45935545  1  0  -0.805994  0  2.073825  0  0  -0.744601  0  2.332727  0  0  -0.781431  0  2.321122  0  -1.2091  0  -0.422412  -0.726308  0  2.340119  0
O  O107  1  0.10106134  0.90231117  0.54064655  1  0  -0.805974  0  2.073815  0  0  -0.74459  0  2.332724  0  0  -0.781423  0  2.321118  0  -1.209272  0  -0.422418  -0.726296  0  2.340118  0
O  O108  1  0.04747303  0.86421581  0.32322908  1  0  -0.728907  0  2.031385  0  0  -0.66554  0  2.26443  0  0  -0.695769  0  2.254326  0  -1.196922  0  -0.369288  -0.647712  0  2.270889  0
O  O109  1  0.95252784  0.13578406  0.67677126  1  0  -0.728884  0  2.031412  0  0  -0.665506  0  2.264439  0  0  -0.695729  0  2.254333  0  -1.196926  0  -0.369277  -0.647679  0  2.270899  0
O  O110  1  0.06757808  0.69693851  0.42037941  1  0  -0.690722  0  1.960236  0  0  -0.642339  0  2.198936  0  0  -0.671246  0  2.187866  0  -1.183551  0  -0.363739  -0.625268  0  2.204791  0
O  O111  1  0.93242279  0.30306136  0.57961938  1  0  -0.69064  0  1.9603  0  0  -0.642243  0  2.198974  0  0  -0.671154  0  2.187922  0  -1.183662  0  -0.363675  -0.625172  0  2.204823  0
O  O112  1  0.85754029  0.73470981  0.65391703  1  0  -0.774971  0  2.016403  0  0  -0.719258  0  2.269352  0  0  -0.751882  0  2.255065  0  -1.222052  0  -0.423997  -0.701077  0  2.277118  0
O  O113  1  0.14246057  0.26529006  0.34608254  1  0  -0.774988  0  2.016312  0  0  -0.719298  0  2.269248  0  0  -0.751916  0  2.254964  0  -1.222208  0  -0.424038  -0.701122  0  2.277013  0
O  O114  1  0.61500486  0.78475742  0.79178715  1  0  -0.630348  0  1.891476  0  0  -0.576192  0  2.098853  0  0  -0.600781  0  2.089234  0  -1.177429  0  -0.322621  -0.559077  0  2.105485  0
O  O115  1  0.38499486  0.21524245  0.20821348  1  0  -0.630346  0  1.891491  0  0  -0.576203  0  2.098851  0  0  -0.600791  0  2.08923  0  -1.177438  0  -0.322609  -0.559089  0  2.105482  0
O  O116  1  0.26414160  0.18765687  0.59141208  1  0  -0.598369  0  1.847263  0  0  -0.561425  0  2.094306  0  0  -0.592606  0  2.094646  0  -0.650171  0  -0.284378  -0.543832  0  2.092348  0
O  O117  1  0.73585926  0.81234300  0.40858983  1  0  -0.598272  0  1.847169  0  0  -0.56137  0  2.094257  0  0  -0.592552  0  2.094594  0  -0.65018  0  -0.284375  -0.543771  0  2.092298  0
O  O118  1  0.56194488  0.92593583  0.62993262  1  0  -0.947965  0  1.873064  0  0  -0.898146  0  2.079044  0  0  -0.924073  0  2.041837  0  -1.292694  0  -0.662026  -0.882946  0  2.103732  0
O  O119  1  0.43805283  0.07406584  0.37006755  1  0  -0.947902  0  1.873141  0  0  -0.898077  0  2.079123  0  0  -0.924004  0  2.041922  0  -1.29256  0  -0.661989  -0.882876  0  2.103798  0
O  O120  1  0.76170047  0.01078690  0.69492756  1  0  -0.92688  0  1.853158  0  0  -0.874907  0  2.048153  0  0  -0.901231  0  2.013577  0  -1.29635  0  -0.651849  -0.859994  0  2.068835  0
O  O121  1  0.23830039  0.98921297  0.30507279  1  0  -0.926849  0  1.853194  0  0  -0.874891  0  2.048174  0  0  -0.901206  0  2.013612  0  -1.296349  0  -0.65185  -0.85998  0  2.068852  0
O  O122  1  0.52714873  0.87799596  0.14779485  1  0  -0.543722  0  1.743382  0  0  -0.506683  0  1.962006  0  0  -0.531408  0  1.963714  0  -0.622002  0  -0.232931  -0.489475  0  1.95986  0
O  O123  1  0.47285241  0.12200572  0.85220527  1  0  -0.543752  0  1.743321  0  0  -0.50672  0  1.961929  0  0  -0.531446  0  1.963637  0  -0.622045  0  -0.23296  -0.489508  0  1.959779  0
