# generated using pymatgen
data_CuH9C9N3O5
_symmetry_space_group_name_H-M   'P 1'
_cell_length_a   7.57828305
_cell_length_b   8.75548565
_cell_length_c   19.04193924
_cell_angle_alpha   94.65690263
_cell_angle_beta   96.72277633
_cell_angle_gamma   112.80826197
_symmetry_Int_Tables_number   1
_chemical_formula_structural   CuH9C9N3O5
_chemical_formula_sum   'Cu4 H36 C36 N12 O20'
_cell_volume   1145.55259194
_cell_formula_units_Z   4
loop_
 _symmetry_equiv_pos_site_id
 _symmetry_equiv_pos_as_xyz
  1  'x, y, z'
loop_
 _atom_site_type_symbol
 _atom_site_label
 _atom_site_symmetry_multiplicity
 _atom_site_fract_x
 _atom_site_fract_y
 _atom_site_fract_z
 _atom_site_occupancy
 _atom_site_pbe_bader_charge
 _atom_site_pbe_bader_spin_density
 _atom_site_pbe_cm5_charge
 _atom_site_pbe_ddec_charge
 _atom_site_pbe_ddec_spin_density
 _atom_site_pbe_ddec_sum_bond_order
 _atom_site_pbe_magmom
Cu  Cu0  1  0.32731627  0.14498245  0.16068681  1  1.122231  0.605046  0.723464  0.895712  0.761041  2.131573  0.604
Cu  Cu1  1  0.99695490  0.28982295  0.34254342  1  1.070433  0.564985  0.725183  0.85068  0.716353  2.073287  0.567
Cu  Cu2  1  0.67268373  0.85501972  0.83931363  1  1.122212  0.605049  0.723495  0.895807  0.761047  2.131482  0.604
Cu  Cu3  1  0.00304834  0.71018047  0.65745617  1  1.070383  0.564983  0.72518  0.850662  0.716353  2.073334  0.567
H  H4  1  0.98894318  0.67191356  0.00809703  1  0.033008  0.000969  0.089394  0.08714  0.000799  1.01671  0.0
H  H5  1  0.20599243  0.64125748  0.02279099  1  0.04615  0.000247  0.0985  0.109471  0.000121  0.988946  0.0
H  H6  1  0.09694751  0.68608029  0.13572139  1  0.127666  0.000123  0.112265  0.104103  8.4e-05  1.012619  0.0
H  H7  1  0.09483959  0.48031737  0.12272306  1  0.090384  0.000211  0.11685  0.105282  0.000111  0.973536  0.0
H  H8  1  0.40261812  0.48035496  0.09014843  1  0.174233  0.000104  0.139424  0.114098  -6.6e-05  0.984085  0.0
H  H9  1  0.79224014  0.26306196  0.15582654  1  0.213004  0.000157  0.144961  0.130149  -0.000135  1.025226  0.0
H  H10  1  0.33390712  0.84959817  0.52049060  1  0.046879  0.000287  0.097611  0.100726  0.000121  0.990782  0.0
H  H11  1  0.54349720  0.84103598  0.49270170  1  0.017208  0.000134  0.102151  0.105822  6.3e-05  0.96734  0.0
H  H12  1  0.27419070  0.73100288  0.39253321  1  0.12907  0.000401  0.117877  0.119989  0.000288  0.989766  0.0
H  H13  1  0.45594170  0.91898966  0.37400894  1  0.082393  0.000796  0.111947  0.102973  0.000765  1.012256  0.0
H  H14  1  0.81282641  0.96658946  0.41947876  1  0.14371  4.8e-05  0.13796  0.112354  -0.000102  0.990363  0.0
H  H15  1  0.34749507  0.15580914  0.34534569  1  0.201682  0.000556  0.148751  0.135035  0.000306  1.006241  0.0
H  H16  1  0.98453270  0.73297077  0.25944743  1  0.108102  0.000792  0.109134  0.115504  0.000601  1.008216  0.0
H  H17  1  0.31083900  0.69230507  0.24027948  1  0.082319  0.000663  0.110244  0.118433  0.000278  0.997198  0.0
H  H18  1  0.14504566  0.13645213  0.03822084  1  0.609529  0.00083  0.326218  0.400084  0.000624  0.877248  0.001
H  H19  1  0.01929912  0.13505223  0.10477038  1  0.641094  9.9e-05  0.283828  0.369266  0.000338  0.989262  0.0
H  H20  1  0.67940688  0.23657166  0.36003718  1  0.637466  -0.000216  0.281367  0.353422  -5.2e-05  1.015977  -0.001
H  H21  1  0.64410582  0.10296289  0.29266475  1  0.647879  0.000493  0.283473  0.370918  0.001039  0.981429  0.001
H  H22  1  0.01105890  0.32808737  0.99190400  1  0.032997  0.000969  0.089395  0.087134  0.000799  1.016704  0.0
H  H23  1  0.79400849  0.35874094  0.97720936  1  0.046155  0.000247  0.098502  0.10948  0.000121  0.988944  0.0
H  H24  1  0.90305133  0.31391939  0.86427996  1  0.127693  0.000123  0.112254  0.104082  8.4e-05  1.012673  0.0
H  H25  1  0.90516058  0.51968230  0.87727731  1  0.090392  0.000211  0.116857  0.105296  0.000111  0.973571  0.0
H  H26  1  0.59738246  0.51964846  0.90985156  1  0.174259  0.000104  0.139429  0.114105  -6.6e-05  0.98411  0.0
H  H27  1  0.20775621  0.73693518  0.84417093  1  0.212908  0.000157  0.14496  0.130144  -0.000135  1.025231  0.0
H  H28  1  0.66608541  0.15039649  0.47950923  1  0.046956  0.000287  0.097577  0.100673  0.000121  0.99084  0.0
H  H29  1  0.45649666  0.15895868  0.50729819  1  0.017291  0.000134  0.102116  0.105786  6.3e-05  0.967324  0.0
H  H30  1  0.72580507  0.26899302  0.60746577  1  0.129138  0.000401  0.117893  0.120013  0.000288  0.989689  0.0
H  H31  1  0.54405482  0.08100501  0.62599107  1  0.082253  0.000796  0.111939  0.102969  0.000765  1.012242  0.0
H  H32  1  0.18717242  0.03341018  0.58051891  1  0.143703  4.8e-05  0.137968  0.11234  -0.000102  0.990353  0.0
H  H33  1  0.65250469  0.84418678  0.65465400  1  0.201675  0.000556  0.148735  0.135054  0.000306  1.006241  0.0
H  H34  1  0.01546764  0.26702639  0.74055181  1  0.108108  0.000792  0.109126  0.11548  0.000601  1.008253  0.0
H  H35  1  0.68916407  0.30770086  0.75972177  1  0.082295  0.000663  0.110233  0.11842  0.000278  0.997209  0.0
H  H36  1  0.85495434  0.86355002  0.96177803  1  0.609562  0.00083  0.326188  0.400024  0.000624  0.877316  0.001
H  H37  1  0.98070163  0.86494868  0.89522954  1  0.641262  9.9e-05  0.283846  0.369328  0.000338  0.989189  0.0
H  H38  1  0.32059254  0.76342926  0.63996267  1  0.637467  -0.000216  0.281372  0.353439  -5.2e-05  1.015951  -0.001
H  H39  1  0.35589493  0.89703802  0.70733517  1  0.64788  0.000493  0.283466  0.37091  0.00104  0.981439  0.001
C  C40  1  0.04988688  0.58272803  0.02475660  1  0.029741  0.001418  -0.168628  -0.174275  0.000999  3.950358  0.001
C  C41  1  0.02942647  0.56352211  0.10246286  1  0.244736  0.000906  -0.049325  -0.094722  0.000685  3.869501  0.001
C  C42  1  0.53419544  0.45965204  0.10144264  1  0.98187  -0.00011  0.14977  0.152857  -0.000235  3.977228  0.001
C  C43  1  0.72938459  0.34665841  0.13598281  1  1.00753  -0.001058  0.169505  0.102848  -0.00152  3.852341  0.0
C  C44  1  0.44520569  0.90624427  0.48719998  1  0.016966  0.000292  -0.162124  -0.1712  0.000228  3.934564  0.0
C  C45  1  0.34877640  0.86648790  0.40906791  1  0.273412  0.002361  -0.050697  -0.102009  0.001686  3.857711  0.002
C  C46  1  0.95425327  0.98108406  0.40787940  1  0.993243  -0.000298  0.146901  0.148231  -0.000493  4.000165  0.001
C  C47  1  0.22521673  0.08013814  0.36906416  1  1.009401  -0.000606  0.171405  0.107112  -0.00093  3.846007  0.0
C  C48  1  0.50859224  0.58477699  0.27834573  1  0.01835  0.010502  0.006652  0.000106  0.007195  3.906524  0.009
C  C49  1  0.70119872  0.59815190  0.28480110  1  -0.022697  0.012796  -0.016037  -0.065957  0.008651  3.95783  0.009
C  C50  1  0.83628528  0.72411952  0.25508637  1  -0.001478  2.4e-05  -0.073461  -0.090191  -0.000269  3.946113  0.0
C  C51  1  0.78574469  0.83733442  0.21863142  1  0.018945  0.011197  -0.017579  -0.072675  0.007521  3.957628  0.008
C  C52  1  0.59399034  0.82606666  0.21364829  1  -0.085888  0.010219  0.004241  -0.001948  0.006855  3.903429  0.008
C  C53  1  0.45969614  0.70195908  0.24474704  1  -0.000617  0.006275  -0.084854  -0.148629  0.004069  3.944184  0.004
C  C54  1  0.34060754  0.43831505  0.29541341  1  1.59566  -0.001868  0.210792  0.594647  -0.00259  4.209524  -0.004
C  C55  1  0.75726454  0.47637813  0.32196491  1  1.539568  0.000335  0.212834  0.580009  -3e-05  4.179023  -0.001
C  C56  1  0.93111013  0.96134916  0.18262552  1  1.55128  0.000834  0.216279  0.576613  0.00053  4.174415  -0.001
C  C57  1  0.51024012  0.93140098  0.17395058  1  1.620431  -0.000681  0.205163  0.571296  -0.001239  4.228086  -0.002
C  C58  1  0.95011387  0.41727289  0.97524384  1  0.009973  0.00142  -0.168636  -0.17428  0.000999  3.950363  0.001
C  C59  1  0.97057237  0.43647756  0.89753745  1  0.244703  0.000906  -0.049319  -0.094747  0.000685  3.86953  0.001
C  C60  1  0.46580646  0.54035138  0.89855742  1  0.981995  -0.000111  0.149732  0.152755  -0.000235  3.977251  0.001
C  C61  1  0.27061367  0.65333999  0.86401585  1  1.007581  -0.001058  0.169523  0.102826  -0.00152  3.852342  0.0
C  C62  1  0.55478626  0.09374914  0.51279978  1  -0.008513  0.000293  -0.161986  -0.170989  0.000228  3.934474  0.0
C  C63  1  0.65121879  0.13350675  0.59093099  1  0.273527  0.002361  -0.050684  -0.102021  0.001686  3.857563  0.002
C  C64  1  0.04574250  0.01891185  0.59211957  1  0.993286  -0.000299  0.146892  0.148282  -0.000493  4.000292  0.001
C  C65  1  0.77478153  0.91986027  0.63093502  1  1.009896  -0.000607  0.17136  0.10699  -0.000929  3.845978  0.0
C  C66  1  0.49140759  0.41522768  0.72165532  1  0.018334  0.010502  0.006543  4e-05  0.007195  3.906628  0.009
C  C67  1  0.29880335  0.40184903  0.71519992  1  -0.022719  0.012796  -0.015936  -0.065799  0.008651  3.957811  0.009
C  C68  1  0.16371356  0.27588014  0.74491289  1  -0.001512  2.3e-05  -0.073447  -0.090196  -0.00027  3.946186  0.0
C  C69  1  0.21425664  0.16266775  0.78136856  1  0.019019  0.0112  -0.017586  -0.07271  0.007523  3.957571  0.008
C  C70  1  0.40601573  0.17393428  0.78635345  1  -0.085799  0.010215  0.004202  -0.001988  0.006853  3.903463  0.008
C  C71  1  0.54030768  0.29804560  0.75525420  1  -0.00068  0.006277  -0.084777  -0.148563  0.004069  3.94411  0.004
C  C72  1  0.65939629  0.56168966  0.70458993  1  1.595649  -0.001867  0.210748  0.594597  -0.00259  4.209685  -0.004
C  C73  1  0.24273621  0.52362280  0.67803658  1  1.54003  0.000335  0.212844  0.580056  -3e-05  4.179064  -0.001
C  C74  1  0.06889079  0.03864926  0.81737484  1  1.551268  0.000834  0.216304  0.576749  0.00053  4.174473  -0.001
C  C75  1  0.48976121  0.06860118  0.82604888  1  1.620413  -0.000681  0.205175  0.571296  -0.001239  4.228232  -0.002
N  N76  1  0.82551966  0.48862924  0.11047246  1  -0.842637  0.002458  -0.132258  0.176619  0.001384  3.732147  0.002
N  N77  1  0.70414210  0.56219334  0.08792905  1  -0.690696  0.01063  -0.218851  -0.255644  0.00676  3.094466  0.008
N  N78  1  0.54302651  0.32486380  0.13110718  1  -1.211992  0.086315  -0.376463  -0.350636  0.056562  3.637841  0.073
N  N79  1  0.20705794  0.94056586  0.39738013  1  -0.839693  0.002017  -0.131324  0.174131  0.001077  3.723671  0.002
N  N80  1  0.03592052  0.87631339  0.42297370  1  -0.663224  0.008808  -0.223792  -0.264809  0.005661  3.087511  0.007
N  N81  1  0.06598933  0.10930721  0.37479895  1  -1.209967  0.073899  -0.374225  -0.347023  0.048852  3.629253  0.064
N  N82  1  0.17448051  0.51137043  0.88952738  1  -0.842636  0.002459  -0.132287  0.176605  0.001384  3.732097  0.002
N  N83  1  0.29586056  0.43780883  0.91207100  1  -0.690783  0.010632  -0.218809  -0.255558  0.00676  3.094457  0.008
N  N84  1  0.45697100  0.67513586  0.86889201  1  -1.211981  0.086319  -0.376479  -0.35062  0.056564  3.637795  0.074
N  N85  1  0.79293725  0.05942879  0.60261877  1  -0.839595  0.002017  -0.131243  0.174278  0.001077  3.723483  0.002
N  N86  1  0.96407259  0.12368250  0.57702463  1  -0.663295  0.008809  -0.22385  -0.264949  0.005661  3.087534  0.007
N  N87  1  0.93400968  0.89068994  0.62519970  1  -1.210572  0.073899  -0.374204  -0.346986  0.048851  3.629333  0.064
O  O88  1  0.27096921  0.30586742  0.25172513  1  -1.165244  0.005726  -0.322911  -0.599527  0.002669  2.29698  0.007
O  O89  1  0.26355339  0.46336653  0.34950593  1  -1.087448  0.124828  -0.315069  -0.515788  0.078701  2.27873  0.112
O  O90  1  0.91141374  0.45960436  0.30717092  1  -1.109894  0.094009  -0.330245  -0.551768  0.059158  2.335317  0.085
O  O91  1  0.64858944  0.39528548  0.36364887  1  -1.161144  0.000379  -0.310636  -0.524026  -0.00081  2.195227  0.0
O  O92  1  0.10147173  0.96074144  0.18761293  1  -1.120425  0.083515  -0.323074  -0.548579  0.052454  2.348631  0.075
O  O93  1  0.87494927  0.05694288  0.14790249  1  -1.172902  0.001228  -0.303044  -0.518637  8e-06  2.250366  0.001
O  O94  1  0.50759111  0.05868247  0.21463341  1  -1.123939  0.097012  -0.324078  -0.560795  0.060818  2.3375  0.089
O  O95  1  0.43107250  0.88581073  0.11093120  1  -1.159694  0.004264  -0.305368  -0.522557  0.001825  2.122661  0.004
O  O96  1  0.14906252  0.19515156  0.08444316  1  -1.198668  0.077412  -0.562844  -0.750113  0.049043  2.17949  0.067
O  O97  1  0.71716381  0.13930471  0.34336626  1  -1.234779  0.098234  -0.577288  -0.754165  0.062145  2.233742  0.086
O  O98  1  0.72903612  0.69413478  0.74827767  1  -1.165384  0.005725  -0.32293  -0.599545  0.002668  2.297112  0.007
O  O99  1  0.73644645  0.53663816  0.65049670  1  -1.087271  0.124833  -0.314996  -0.515738  0.078704  2.278787  0.112
O  O100  1  0.08858186  0.54039405  0.69282813  1  -1.109907  0.09401  -0.330215  -0.551759  0.059158  2.335364  0.085
O  O101  1  0.35140940  0.60471418  0.63635143  1  -1.161568  0.000379  -0.310721  -0.524151  -0.00081  2.195192  0.0
O  O102  1  0.89853451  0.03925698  0.81238716  1  -1.120371  0.083512  -0.323083  -0.548661  0.052453  2.348802  0.075
O  O103  1  0.12505471  0.94305930  0.85209761  1  -1.172945  0.001228  -0.303066  -0.518704  8e-06  2.250335  0.001
O  O104  1  0.49241172  0.94131720  0.78536708  1  -1.123943  0.097011  -0.324099  -0.560829  0.060818  2.337462  0.089
O  O105  1  0.56893016  0.11419144  0.88906938  1  -1.159711  0.004262  -0.305357  -0.522533  0.001824  2.122751  0.004
O  O106  1  0.85093881  0.80485060  0.91555577  1  -1.198829  0.077409  -0.562825  -0.750095  0.049042  2.179517  0.067
O  O107  1  0.28283636  0.86069496  0.65663411  1  -1.234794  0.098231  -0.577289  -0.754161  0.062143  2.233779  0.086
