# generated using pymatgen
data_CuH24C20S2ClO3
_symmetry_space_group_name_H-M   'P 1'
_cell_length_a   9.44906789
_cell_length_b   10.07606738
_cell_length_c   12.49189840
_cell_angle_alpha   105.61849007
_cell_angle_beta   99.08285090
_cell_angle_gamma   93.96265275
_symmetry_Int_Tables_number   1
_chemical_formula_structural   CuH24C20S2ClO3
_chemical_formula_sum   'Cu2 H48 C40 S4 Cl2 O6'
_cell_volume   1123.25242991
_cell_formula_units_Z   2
loop_
 _symmetry_equiv_pos_site_id
 _symmetry_equiv_pos_as_xyz
  1  'x, y, z'
loop_
 _atom_site_type_symbol
 _atom_site_label
 _atom_site_symmetry_multiplicity
 _atom_site_fract_x
 _atom_site_fract_y
 _atom_site_fract_z
 _atom_site_occupancy
 _atom_site_hle17_bader_spin_density
 _atom_site_hle17_ddec_charge
 _atom_site_hle17_ddec_spin_density
 _atom_site_hle17_ddec_sum_bond_order
 _atom_site_hle17_magmom
 _atom_site_hse06_10hf_bader_spin_density
 _atom_site_hse06_10hf_ddec_charge
 _atom_site_hse06_10hf_ddec_spin_density
 _atom_site_hse06_10hf_ddec_sum_bond_order
 _atom_site_hse06_10hf_magmom
 _atom_site_hse06_bader_spin_density
 _atom_site_hse06_ddec_charge
 _atom_site_hse06_ddec_spin_density
 _atom_site_hse06_ddec_sum_bond_order
 _atom_site_hse06_magmom
 _atom_site_pbe_bader_spin_density
 _atom_site_pbe_cm5_charge
 _atom_site_pbe_ddec_charge
 _atom_site_pbe_ddec_spin_density
 _atom_site_pbe_ddec_sum_bond_order
 _atom_site_pbe_magmom
Cu  Cu0  1  0.40072432  0.44881920  0.38164825  1  0  0.263973  0  2.211939  0  0  0.187502  0  2.713195  0  0  0.190288  0  2.668737  0  0  0.307104  0.186312  0  2.742886  0
Cu  Cu1  1  0.59928040  0.55118248  0.61835826  1  0  0.263949  0  2.211996  0  0  0.187446  0  2.713285  0  0  0.19018  0  2.668784  0  0  0.307059  0.186245  0  2.742982  0
H  H2  1  0.18791284  0.79787116  0.93616731  1  0  0.0724  0  0.929187  0  0  0.084881  0  0.99642  0  0  0.08462  0  0.997181  0  0  0.107168  0.08514  0  0.99567  0
H  H3  1  0.81209157  0.20211896  0.06382715  1  0  0.072466  0  0.929385  0  0  0.084884  0  0.996629  0  0  0.084625  0  0.997391  0  0  0.107129  0.08514  0  0.995886  0
H  H4  1  0.07629831  0.93554120  0.95041882  1  0  0.049644  0  0.942994  0  0  0.06584  0  1.007465  0  0  0.06545  0  1.007153  0  0  0.102469  0.066416  0  1.006909  0
H  H5  1  0.92370394  0.06444895  0.04957699  1  0  0.049672  0  0.943055  0  0  0.065848  0  1.007521  0  0  0.06546  0  1.00721  0  0  0.102463  0.066426  0  1.006965  0
H  H6  1  0.02128402  0.87922502  0.13033170  1  0  0.057765  0  0.917788  0  0  0.069059  0  0.986714  0  0  0.070292  0  0.984153  0  0  0.103666  0.068347  0  0.988322  0
H  H7  1  0.97872719  0.12076824  0.86966746  1  0  0.057731  0  0.918002  0  0  0.069089  0  0.986866  0  0  0.070323  0  0.98431  0  0  0.103683  0.068373  0  0.988463  0
H  H8  1  0.93865603  0.76339272  0.99569888  1  0  0.055935  0  0.952957  0  0  0.069023  0  1.0225  0  0  0.068133  0  1.024049  0  0  0.101707  0.069629  0  1.021635  0
H  H9  1  0.06134648  0.23659954  0.00429979  1  0  0.055856  0  0.953039  0  0  0.068964  0  1.022561  0  0  0.068076  0  1.024113  0  0  0.101685  0.069563  0  1.021699  0
H  H10  1  0.84741684  0.72716602  0.14503016  1  0  0.090763  0  1.003239  0  0  0.099217  0  1.07257  0  0  0.101713  0  1.072288  0  0  0.092851  0.096867  0  1.073768  0
H  H11  1  0.15259485  0.27283148  0.85497635  1  0  0.090742  0  1.003076  0  0  0.099131  0  1.072496  0  0  0.101625  0  1.072222  0  0  0.092829  0.096777  0  1.073693  0
H  H12  1  0.73279076  0.58627232  0.24979055  1  0  0.080593  0  0.972849  0  0  0.084858  0  1.045808  0  0  0.08746  0  1.044889  0  0  0.089238  0.085176  0  1.042369  0
H  H13  1  0.26721419  0.41373973  0.75021734  1  0  0.080566  0  0.972728  0  0  0.084859  0  1.045683  0  0  0.087466  0  1.044755  0  0  0.089202  0.085176  0  1.04225  0
H  H14  1  0.85598115  0.39910800  0.30531309  1  0  0.098816  0  0.967266  0  0  0.109161  0  1.026205  0  0  0.112273  0  1.025015  0  0  0.089023  0.106145  0  1.028448  0
H  H15  1  0.14401054  0.60089278  0.69469802  1  0  0.098942  0  0.967664  0  0  0.109286  0  1.026576  0  0  0.112438  0  1.025339  0  0  0.089048  0.106273  0  1.028827  0
H  H16  1  0.09092409  0.34479378  0.24581711  1  0  0.077319  0  0.994928  0  0  0.082464  0  1.069516  0  0  0.085785  0  1.066535  0  0  0.085629  0.079517  0  1.072413  0
H  H17  1  0.90906404  0.65520377  0.75418489  1  0  0.077268  0  0.994847  0  0  0.082457  0  1.069394  0  0  0.085777  0  1.066413  0  0  0.085615  0.079504  0  1.072286  0
H  H18  1  0.26165868  0.51038107  0.05742147  1  0  0.104677  0  0.948765  0  0  0.115559  0  1.016106  0  0  0.117596  0  1.015201  0  0  0.099477  0.113886  0  1.01687  0
H  H19  1  0.73834380  0.48961124  0.94258041  1  0  0.104777  0  0.948876  0  0  0.115658  0  1.016174  0  0  0.117684  0  1.015282  0  0  0.099493  0.11398  0  1.016943  0
H  H20  1  0.25350827  0.36175420  0.10780127  1  0  0.095592  0  0.957585  0  0  0.110977  0  1.0228  0  0  0.111124  0  1.024741  0  0  0.097295  0.110637  0  1.021815  0
H  H21  1  0.74649498  0.63824438  0.89220521  1  0  0.095603  0  0.957521  0  0  0.111001  0  1.022719  0  0  0.11115  0  1.024656  0  0  0.097289  0.110662  0  1.021734  0
H  H22  1  0.51231872  0.77161969  0.30977260  1  0  0.09018  0  0.937617  0  0  0.108866  0  0.997169  0  0  0.109577  0  0.997066  0  0  0.101045  0.107819  0  0.998196  0
H  H23  1  0.48767680  0.22837676  0.69022768  1  0  0.090162  0  0.937582  0  0  0.108827  0  0.997165  0  0  0.109536  0  0.997061  0  0  0.101021  0.107777  0  0.998195  0
H  H24  1  0.36919893  0.75338454  0.19403054  1  0  0.108528  0  0.943346  0  0  0.119921  0  1.01093  0  0  0.12209  0  1.010019  0  0  0.102852  0.117344  0  1.013419  0
H  H25  1  0.63080155  0.24660879  0.80596971  1  0  0.108492  0  0.943394  0  0  0.119895  0  1.010962  0  0  0.122066  0  1.010045  0  0  0.102841  0.11732  0  1.013453  0
H  H26  1  0.19163832  0.77533415  0.32021105  1  0  0.047413  0  0.949424  0  0  0.062518  0  1.012285  0  0  0.062641  0  1.012957  0  0  0.093275  0.062324  0  1.011772  0
H  H27  1  0.80835589  0.22466016  0.67978382  1  0  0.047406  0  0.949426  0  0  0.062532  0  1.012264  0  0  0.062659  0  1.012933  0  0  0.09326  0.062341  0  1.011744  0
H  H28  1  0.32073264  0.75096918  0.43206060  1  0  0.048636  0  0.96438  0  0  0.057778  0  1.040215  0  0  0.059292  0  1.038245  0  0  0.08449  0.056568  0  1.041663  0
H  H29  1  0.67926326  0.24903039  0.56794038  1  0  0.048578  0  0.964513  0  0  0.057711  0  1.040345  0  0  0.059228  0  1.03837  0  0  0.084464  0.056498  0  1.041797  0
H  H30  1  0.28011066  0.01604093  0.53801934  1  0  0.043166  0  0.905073  0  0  0.059732  0  0.964589  0  0  0.060827  0  0.963053  0  0  0.094329  0.058153  0  0.966454  0
H  H31  1  0.71988929  0.98395649  0.46197769  1  0  0.043213  0  0.905205  0  0  0.059776  0  0.964714  0  0  0.060875  0  0.963177  0  0  0.094364  0.058189  0  0.966584  0
H  H32  1  0.15974782  0.00716766  0.40925261  1  0  0.037146  0  0.918817  0  0  0.050956  0  0.983124  0  0  0.052053  0  0.981679  0  0  0.091467  0.050058  0  0.984198  0
H  H33  1  0.84025050  0.99283396  0.59074749  1  0  0.037171  0  0.918848  0  0  0.050978  0  0.983145  0  0  0.052075  0  0.981709  0  0  0.091444  0.050076  0  0.984218  0
H  H34  1  0.45074379  0.19393409  0.49684133  1  0  0.107549  0  0.949305  0  0  0.122729  0  1.013208  0  0  0.123864  0  1.013217  0  0  0.103302  0.121896  0  1.013233  0
H  H35  1  0.54925452  0.80606753  0.50315957  1  0  0.1075  0  0.949296  0  0  0.122684  0  1.013227  0  0  0.123814  0  1.013243  0  0  0.10327  0.12185  0  1.013248  0
H  H36  1  0.28106208  0.25297833  0.51620673  1  0  0.108033  0  0.927746  0  0  0.126761  0  0.982751  0  0  0.127354  0  0.983256  0  0  0.10247  0.126514  0  0.982312  0
H  H37  1  0.71893397  0.74702224  0.48379207  1  0  0.107995  0  0.927759  0  0  0.126741  0  0.982767  0  0  0.127333  0  0.983272  0  0  0.102443  0.126489  0  0.982332  0
H  H38  1  0.55699216  0.18593107  0.31138789  1  0  0.10293  0  0.950015  0  0  0.11685  0  1.011323  0  0  0.118456  0  1.010561  0  0  0.090586  0.115883  0  1.011561  0
H  H39  1  0.44300685  0.81406739  0.68860924  1  0  0.102866  0  0.950033  0  0  0.116795  0  1.011358  0  0  0.118403  0  1.010594  0  0  0.090545  0.115825  0  1.011595  0
H  H40  1  0.43642189  0.02603303  0.25916403  1  0  0.113981  0  0.966039  0  0  0.120762  0  1.035736  0  0  0.123478  0  1.033851  0  0  0.10063  0.117808  0  1.039024  0
H  H41  1  0.56357551  0.97396958  0.74083296  1  0  0.113945  0  0.966024  0  0  0.120731  0  1.035733  0  0  0.123447  0  1.03385  0  0  0.100602  0.117778  0  1.039018  0
H  H42  1  0.60442432  0.32095535  0.18758951  1  0  0.094689  0  0.973355  0  0  0.101865  0  1.042862  0  0  0.104226  0  1.042037  0  0  0.095913  0.100628  0  1.042549  0
H  H43  1  0.39556873  0.67905566  0.81241429  1  0  0.094738  0  0.973449  0  0  0.101916  0  1.042906  0  0  0.104276  0  1.042083  0  0  0.095943  0.100681  0  1.042588  0
H  H44  1  0.57691849  0.35118827  0.99420610  1  0  0.089404  0  0.959166  0  0  0.10043  0  1.022272  0  0  0.103311  0  1.021116  0  0  0.097166  0.098983  0  1.021866  0
H  H45  1  0.42306918  0.64883106  0.00579876  1  0  0.089306  0  0.959401  0  0  0.100462  0  1.022359  0  0  0.103352  0  1.021175  0  0  0.097211  0.099018  0  1.021951  0
H  H46  1  0.39432599  0.19054849  0.83798162  1  0  0.080754  0  0.959481  0  0  0.095025  0  1.015196  0  0  0.097297  0  1.01409  0  0  0.098042  0.093206  0  1.016481  0
H  H47  1  0.60566762  0.80946658  0.16201749  1  0  0.080726  0  0.959521  0  0  0.095034  0  1.015192  0  0  0.097304  0  1.01409  0  0  0.098061  0.09322  0  1.016472  0
H  H48  1  0.24373176  0.00398920  0.87439296  1  0  0.100393  0  0.960037  0  0  0.114499  0  1.014792  0  0  0.117806  0  1.013206  0  0  0.101986  0.112223  0  1.015922  0
H  H49  1  0.75627731  0.99601230  0.12560364  1  0  0.100318  0  0.959931  0  0  0.114428  0  1.014699  0  0  0.117735  0  1.013113  0  0  0.101956  0.112157  0  1.015832  0
C  C50  1  0.14048175  0.87458065  0.99690931  1  0  0.06576  0  3.636754  0  0  0.000472  0  3.910849  0  0  0.008799  0  3.914922  0  0  -0.065774  -0.004793  0  3.906923  0
C  C51  1  0.85952973  0.12541465  0.00308790  1  0  0.065551  0  3.637207  0  0  0.000385  0  3.911192  0  0  0.008693  0  3.915266  0  0  -0.065731  -0.004883  0  3.907256  0
C  C52  1  0.04216350  0.80367290  0.05389424  1  0  0.069213  0  3.64642  0  0  0.001928  0  3.925216  0  0  0.010188  0  3.929095  0  0  -0.067892  -0.00352  0  3.9221  0
C  C53  1  0.95784853  0.19631826  0.94610378  1  0  0.069347  0  3.646594  0  0  0.001988  0  3.925372  0  0  0.010228  0  3.929283  0  0  -0.067905  -0.003422  0  3.92222  0
C  C54  1  0.03602912  0.61642417  0.13791405  1  0  0.218437  0  3.779515  0  0  0.202848  0  4.039213  0  0  0.213257  0  4.056122  0  0  0.076971  0.195637  0  4.028238  0
C  C55  1  0.96396479  0.38355993  0.86208987  1  0  0.218388  0  3.779225  0  0  0.202886  0  4.038858  0  0  0.213298  0  4.055757  0  0  0.077088  0.195664  0  4.027902  0
C  C56  1  0.90203350  0.64440414  0.16772770  1  0  -0.216418  0  3.798895  0  0  -0.235719  0  4.053068  0  0  -0.241306  0  4.073406  0  0  -0.118756  -0.232252  0  4.040162  0
C  C57  1  0.09797435  0.35561285  0.83226557  1  0  -0.216399  0  3.799241  0  0  -0.235676  0  4.053422  0  0  -0.241267  0  4.073769  0  0  -0.118747  -0.232189  0  4.040497  0
C  C58  1  0.83739687  0.56482254  0.22686683  1  0  -0.045033  0  3.798066  0  0  -0.058396  0  4.050806  0  0  -0.057954  0  4.071468  0  0  -0.09857  -0.058186  0  4.033914  0
C  C59  1  0.16260113  0.43517713  0.77314163  1  0  -0.044983  0  3.798361  0  0  -0.058377  0  4.051093  0  0  -0.05793  0  4.071757  0  0  -0.09857  -0.058168  0  4.034205  0
C  C60  1  0.90514486  0.45766498  0.25615011  1  0  -0.095108  0  3.791693  0  0  -0.110236  0  4.039248  0  0  -0.113719  0  4.060547  0  0  -0.109959  -0.10855  0  4.02653  0
C  C61  1  0.09486055  0.54235000  0.74384725  1  0  -0.095275  0  3.791735  0  0  -0.110396  0  4.039288  0  0  -0.113916  0  4.060564  0  0  -0.10998  -0.108728  0  4.026586  0
C  C62  1  0.03711156  0.42882962  0.22389704  1  0  -0.098196  0  3.76402  0  0  -0.116811  0  4.013702  0  0  -0.11606  0  4.031926  0  0  -0.095312  -0.117393  0  4.002267  0
C  C63  1  0.96288030  0.57115561  0.77611246  1  0  -0.098297  0  3.764549  0  0  -0.11694  0  4.014257  0  0  -0.1162  0  4.032519  0  0  -0.095419  -0.117501  0  4.002798  0
C  C64  1  0.10445375  0.50626834  0.16453656  1  0  -0.004821  0  3.75173  0  0  0.013449  0  3.988773  0  0  0.00997  0  4.012357  0  0  -0.027473  0.015236  0  3.973103  0
C  C65  1  0.89555211  0.49373315  0.83545804  1  0  -0.004624  0  3.751521  0  0  0.013566  0  3.988591  0  0  0.010085  0  4.012171  0  0  -0.027493  0.015342  0  3.972926  0
C  C66  1  0.24576847  0.47385164  0.13025877  1  0  -0.173788  0  3.668994  0  0  -0.215382  0  3.922675  0  0  -0.214761  0  3.933148  0  0  -0.150233  -0.215397  0  3.9154  0
C  C67  1  0.75422811  0.52613660  0.86974634  1  0  -0.174082  0  3.669087  0  0  -0.215598  0  3.922633  0  0  -0.214971  0  3.933106  0  0  -0.150238  -0.215605  0  3.915365  0
C  C68  1  0.39963398  0.72735011  0.27377997  1  0  -0.175133  0  3.652494  0  0  -0.214725  0  3.923921  0  0  -0.215697  0  3.934307  0  0  -0.156572  -0.214172  0  3.918275  0
C  C69  1  0.60036865  0.27264317  0.72621813  1  0  -0.175196  0  3.652788  0  0  -0.214704  0  3.923983  0  0  -0.215711  0  3.934463  0  0  -0.15656  -0.21414  0  3.918332  0
C  C70  1  0.30720438  0.79303523  0.35843873  1  0  0.088261  0  3.646796  0  0  0.027513  0  3.918047  0  0  0.034645  0  3.923791  0  0  -0.079231  0.022841  0  3.913841  0
C  C71  1  0.69279181  0.20696636  0.64155870  1  0  0.088403  0  3.647042  0  0  0.027621  0  3.918236  0  0  0.034748  0  3.923975  0  0  -0.079165  0.02294  0  3.914033  0
C  C72  1  0.27426294  0.02899659  0.45201303  1  0  0.109781  0  3.689617  0  0  0.049565  0  3.96278  0  0  0.05655  0  3.970137  0  0  -0.070901  0.045106  0  3.957759  0
C  C73  1  0.72573476  0.97099976  0.54798110  1  0  0.109731  0  3.689645  0  0  0.04949  0  3.962811  0  0  0.056464  0  3.97018  0  0  -0.070926  0.045048  0  3.957772  0
C  C74  1  0.33494340  0.17590313  0.46128529  1  0  -0.17881  0  3.634897  0  0  -0.219623  0  3.902325  0  0  -0.220097  0  3.912969  0  0  -0.152181  -0.219344  0  3.894456  0
C  C75  1  0.66505429  0.82409326  0.53871125  1  0  -0.178705  0  3.63474  0  0  -0.219564  0  3.902207  0  0  -0.220039  0  3.912856  0  0  -0.152147  -0.219285  0  3.894328  0
C  C76  1  0.45272390  0.13461852  0.25934634  1  0  -0.17431  0  3.641318  0  0  -0.215239  0  3.890642  0  0  -0.214358  0  3.899586  0  0  -0.153432  -0.215544  0  3.884998  0
C  C77  1  0.54727752  0.86538200  0.74065152  1  0  -0.174264  0  3.641194  0  0  -0.215205  0  3.890672  0  0  -0.214327  0  3.899613  0  0  -0.153371  -0.215507  0  3.885013  0
C  C78  1  0.43759162  0.15005711  0.14250508  1  0  -0.007587  0  3.761387  0  0  0.012802  0  3.996987  0  0  0.008838  0  4.021152  0  0  -0.027667  0.015378  0  3.980633  0
C  C79  1  0.56239963  0.84993930  0.85749067  1  0  -0.007269  0  3.760924  0  0  0.012904  0  3.996789  0  0  0.008938  0  4.020961  0  0  -0.027655  0.015489  0  3.980423  0
C  C80  1  0.52450823  0.25250820  0.11873126  1  0  -0.10818  0  3.772923  0  0  -0.129503  0  4.026998  0  0  -0.129718  0  4.047512  0  0  -0.095337  -0.128867  0  4.012846  0
C  C81  1  0.47548794  0.74750168  0.88126709  1  0  -0.108464  0  3.773412  0  0  -0.129717  0  4.027583  0  0  -0.129934  0  4.048099  0  0  -0.095422  -0.129082  0  4.013429  0
C  C82  1  0.50920766  0.26918095  0.01015708  1  0  -0.089012  0  3.784969  0  0  -0.109437  0  4.048353  0  0  -0.112377  0  4.069071  0  0  -0.106986  -0.107932  0  4.033999  0
C  C83  1  0.49077982  0.73082791  0.98983918  1  0  -0.088888  0  3.784918  0  0  -0.109435  0  4.048313  0  0  -0.112372  0  4.069041  0  0  -0.107052  -0.107939  0  4.033967  0
C  C84  1  0.40677060  0.18024339  0.92344753  1  0  -0.043384  0  3.793798  0  0  -0.058451  0  4.049124  0  0  -0.057682  0  4.069649  0  0  -0.095716  -0.058947  0  4.035993  0
C  C85  1  0.59323409  0.81977483  0.07655761  1  0  -0.043259  0  3.79359  0  0  -0.058367  0  4.048961  0  0  -0.057594  0  4.069471  0  0  -0.095656  -0.058862  0  4.035832  0
C  C86  1  0.31966754  0.07531530  0.94409683  1  0  -0.217673  0  3.801078  0  0  -0.236832  0  4.056928  0  0  -0.243283  0  4.078611  0  0  -0.116788  -0.233058  0  4.043055  0
C  C87  1  0.68033028  0.92468209  0.05589753  1  0  -0.217599  0  3.801467  0  0  -0.236777  0  4.057259  0  0  -0.243233  0  4.078964  0  0  -0.116727  -0.233009  0  4.043403  0
C  C88  1  0.33366869  0.06109886  0.05360781  1  0  0.223575  0  3.786404  0  0  0.208605  0  4.045996  0  0  0.219031  0  4.064311  0  0  0.08086  0.201686  0  4.033403  0
C  C89  1  0.66633819  0.93890274  0.94639495  1  0  0.223441  0  3.786209  0  0  0.208612  0  4.04575  0  0  0.219015  0  4.064066  0  0  0.080783  0.201676  0  4.033175  0
S  S90  1  0.40661862  0.54191193  0.24056873  1  0  0.025537  0  2.824355  0  0  0.042465  0  3.273603  0  0  0.044448  0  3.258734  0  0  -0.042597  0.041074  0  3.280631  0
S  S91  1  0.59338142  0.45808664  0.75943575  1  0  0.025639  0  2.824439  0  0  0.042507  0  3.273655  0  0  0.044524  0  3.258747  0  0  -0.042589  0.041116  0  3.280688  0
S  S92  1  0.31175694  0.22108600  0.32851072  1  0  0.024593  0  2.697037  0  0  0.046814  0  3.116375  0  0  0.046952  0  3.102005  0  0  -0.036162  0.047991  0  3.125378  0
S  S93  1  0.68824354  0.77891559  0.67148804  1  0  0.024562  0  2.697062  0  0  0.046826  0  3.11642  0  0  0.046987  0  3.102017  0  0  -0.036162  0.047997  0  3.125412  0
Cl  Cl94  1  0.33898004  0.55782014  0.55248469  1  0  -0.551309  0  1.18925  0  0  -0.482981  0  1.503038  0  0  -0.497413  0  1.474499  0  0  -0.335802  -0.472684  0  1.523336  0
Cl  Cl95  1  0.66102400  0.44218463  0.44752078  1  0  -0.5513  0  1.189272  0  0  -0.482991  0  1.50308  0  0  -0.497409  0  1.474519  0  0  -0.335806  -0.472688  0  1.523371  0
O  O96  1  0.25118511  0.96407531  0.08268696  1  0  -0.281195  0  2.351186  0  0  -0.209619  0  2.592776  0  0  -0.228626  0  2.597296  0  0  -0.179386  -0.196273  0  2.588937  0
O  O97  1  0.74882106  0.03591990  0.91730317  1  0  -0.281077  0  2.350976  0  0  -0.209565  0  2.592514  0  0  -0.228518  0  2.597002  0  0  -0.179316  -0.196207  0  2.588669  0
O  O98  1  0.10946714  0.69264102  0.08352465  1  0  -0.281135  0  2.341016  0  0  -0.203744  0  2.577069  0  0  -0.222989  0  2.582454  0  0  -0.178331  -0.190289  0  2.572961  0
O  O99  1  0.89053192  0.30734910  0.91646835  1  0  -0.28098  0  2.341207  0  0  -0.203619  0  2.577244  0  0  -0.222859  0  2.582634  0  0  -0.178272  -0.190196  0  2.573144  0
O  O100  1  0.35913436  0.93738507  0.38972875  1  0  -0.304353  0  2.281113  0  0  -0.227011  0  2.530646  0  0  -0.243648  0  2.533343  0  0  -0.229935  -0.215228  0  2.52852  0
O  O101  1  0.64085408  0.06261445  0.61026569  1  0  -0.304385  0  2.28096  0  0  -0.226976  0  2.530414  0  0  -0.243603  0  2.533114  0  0  -0.229901  -0.215199  0  2.528286  0
