# generated using pymatgen
data_CuH15C12Br2N5O
_symmetry_space_group_name_H-M   'P 1'
_cell_length_a   10.22009755
_cell_length_b   12.84395121
_cell_length_c   24.53324830
_cell_angle_alpha   90.00002836
_cell_angle_beta   89.99998728
_cell_angle_gamma   90.00010224
_symmetry_Int_Tables_number   1
_chemical_formula_structural   CuH15C12Br2N5O
_chemical_formula_sum   'Cu8 H120 C96 Br16 N40 O8'
_cell_volume   3220.39202475
_cell_formula_units_Z   8
loop_
 _symmetry_equiv_pos_site_id
 _symmetry_equiv_pos_as_xyz
  1  'x, y, z'
loop_
 _atom_site_type_symbol
 _atom_site_label
 _atom_site_symmetry_multiplicity
 _atom_site_fract_x
 _atom_site_fract_y
 _atom_site_fract_z
 _atom_site_occupancy
 _atom_site_pbe_bader_charge
 _atom_site_pbe_bader_spin_density
 _atom_site_pbe_cm5_charge
 _atom_site_pbe_ddec_charge
 _atom_site_pbe_ddec_spin_density
 _atom_site_pbe_ddec_sum_bond_order
 _atom_site_pbe_magmom
Cu  Cu0  1  0.09528845  0.68826190  0.23011352  1  0.991523  0.497098  0.741206  0.661037  0.694705  2.354768  0.497
Cu  Cu1  1  0.40471154  0.18826180  0.26988966  1  0.99104  -0.497068  0.741148  0.66092  -0.694673  2.354708  -0.497
Cu  Cu2  1  0.09533934  0.81177321  0.76988388  1  0.991511  0.497086  0.74127  0.66096  0.69468  2.355103  0.497
Cu  Cu3  1  0.40466167  0.31177229  0.73011532  1  0.991518  -0.497062  0.741283  0.660978  -0.69465  2.354927  -0.497
Cu  Cu4  1  0.90466080  0.31177345  0.76988337  1  0.991552  -0.497083  0.741261  0.660964  -0.694672  2.355059  -0.497
Cu  Cu5  1  0.59533849  0.81177277  0.73011497  1  0.991513  0.497059  0.741238  0.660915  0.694647  2.354919  0.497
Cu  Cu6  1  0.90470874  0.18826058  0.23011138  1  0.991035  -0.497103  0.741166  0.660921  -0.694722  2.354801  -0.497
Cu  Cu7  1  0.59528465  0.68826072  0.26988850  1  0.991038  0.497072  0.741196  0.660994  0.69468  2.354652  0.497
H  H8  1  0.21509050  0.62457843  0.47927823  1  0.137189  0.000485  0.088913  0.103567  0.000229  1.067021  0.0
H  H9  1  0.28491620  0.12458259  0.02072372  1  0.137244  -0.000485  0.088874  0.103476  -0.000229  1.067065  0.0
H  H10  1  0.21510251  0.87539535  0.52073058  1  0.136965  0.000484  0.088864  0.103464  0.000229  1.06707  0.0
H  H11  1  0.28489472  0.37539527  0.97926742  1  0.136995  -0.000484  0.088879  0.103472  -0.000229  1.067133  0.0
H  H12  1  0.78489886  0.37539619  0.52072926  1  0.136925  -0.000484  0.088857  0.103435  -0.000229  1.067049  0.0
H  H13  1  0.71510643  0.87539670  0.97926665  1  0.137023  0.000484  0.088881  0.103504  0.000229  1.06705  0.0
H  H14  1  0.78491229  0.12458005  0.47927691  1  0.137252  -0.000485  0.088906  0.103556  -0.000229  1.06703  0.0
H  H15  1  0.71508976  0.62457857  0.02072335  1  0.137259  0.000485  0.088926  0.103611  0.000229  1.066969  0.0
H  H16  1  0.05881191  0.38568216  0.37373327  1  0.098902  0.000303  0.101664  0.118658  0.000112  1.02249  0.0
H  H17  1  0.44118462  0.88568032  0.12626751  1  0.098913  -0.000304  0.101673  0.11869  -0.000112  1.022421  0.0
H  H18  1  0.05883209  0.11431718  0.62626400  1  0.098973  0.000303  0.101657  0.118682  0.000112  1.022412  0.0
H  H19  1  0.44116553  0.61431636  0.87373393  1  0.099042  -0.000304  0.10167  0.118684  -0.000112  1.022375  0.0
H  H20  1  0.94116865  0.61431893  0.62626280  1  0.098935  -0.000303  0.101705  0.118694  -0.000112  1.022407  0.0
H  H21  1  0.55883215  0.11431610  0.87373427  1  0.099057  0.000303  0.101676  0.118663  0.000112  1.022381  0.0
H  H22  1  0.94119152  0.88568313  0.37373207  1  0.0989  -0.000303  0.101684  0.118666  -0.000112  1.022478  0.0
H  H23  1  0.55881307  0.38568006  0.12626785  1  0.098854  0.000304  0.101715  0.118702  0.000112  1.022463  0.0
H  H24  1  0.96108223  0.42798049  0.29215292  1  0.108553  0.010469  0.121516  0.095284  0.005628  0.986819  0.006
H  H25  1  0.53892344  0.92798283  0.20784946  1  0.108457  -0.010478  0.121529  0.095351  -0.005632  0.986732  -0.006
H  H26  1  0.96114044  0.07204894  0.70784997  1  0.108654  0.010465  0.121501  0.09534  0.005626  0.98692  0.006
H  H27  1  0.53886027  0.57204669  0.79214790  1  0.108684  -0.01047  0.121477  0.095345  -0.005628  0.986881  -0.006
H  H28  1  0.03886017  0.57205018  0.70784967  1  0.108625  -0.010467  0.121488  0.095322  -0.005626  0.986939  -0.006
H  H29  1  0.46113638  0.07204551  0.79214825  1  0.108691  0.010468  0.121473  0.095346  0.005627  0.986862  0.006
H  H30  1  0.03892232  0.92798329  0.29215263  1  0.108577  -0.010472  0.121521  0.095369  -0.005629  0.986736  -0.006
H  H31  1  0.46107626  0.42798087  0.20784899  1  0.108496  0.010478  0.121504  0.095326  0.005632  0.986737  0.006
H  H32  1  0.82601815  0.57496238  0.20142709  1  0.039397  0.001913  0.10052  0.072587  0.000939  1.016662  0.002
H  H33  1  0.67398477  0.07496509  0.29857520  1  0.039334  -0.001911  0.100548  0.072596  -0.000938  1.016667  -0.002
H  H34  1  0.82599393  0.92516253  0.79856290  1  0.039904  0.00191  0.100421  0.072695  0.000938  1.01639  0.002
H  H35  1  0.67400757  0.42516125  0.70143384  1  0.039875  -0.001909  0.100433  0.072699  -0.000937  1.016394  -0.002
H  H36  1  0.17400449  0.42516328  0.79856328  1  0.039926  -0.001911  0.100421  0.072709  -0.000938  1.016319  -0.002
H  H37  1  0.32599188  0.92516057  0.70143392  1  0.039852  0.00191  0.100448  0.072706  0.000937  1.016502  0.002
H  H38  1  0.17398272  0.07496469  0.20142706  1  0.039354  -0.001912  0.100528  0.072644  -0.000938  1.016598  -0.002
H  H39  1  0.32601507  0.57496207  0.29857487  1  0.039364  0.001911  0.10054  0.072616  0.000938  1.016699  0.002
H  H40  1  0.86287185  0.44341178  0.21805471  1  0.086342  0.005937  0.100877  0.080138  0.003235  1.035875  0.004
H  H41  1  0.63713189  0.94341432  0.28194645  1  0.086362  -0.005935  0.100895  0.080149  -0.003234  1.035805  -0.004
H  H42  1  0.86300142  0.05669148  0.78195634  1  0.087293  0.005938  0.100999  0.080103  0.003236  1.035766  0.004
H  H43  1  0.63699926  0.55669085  0.71804275  1  0.087317  -0.005938  0.101017  0.08012  -0.003235  1.035768  -0.004
H  H44  1  0.13699521  0.55669209  0.78195726  1  0.087302  -0.005939  0.101006  0.080127  -0.003236  1.035826  -0.004
H  H45  1  0.36299838  0.05669032  0.71804229  1  0.087332  0.005939  0.101011  0.080146  0.003236  1.035761  0.004
H  H46  1  0.13712591  0.94341316  0.21805481  1  0.086376  -0.005936  0.10089  0.08018  -0.003234  1.035841  -0.004
H  H47  1  0.36287074  0.44341301  0.28194640  1  0.086365  0.005936  0.100898  0.080194  0.003234  1.035849  0.004
H  H48  1  0.88743821  0.47005152  0.12170017  1  0.051828  -2.1e-05  0.097873  0.108674  7e-06  0.99108  0.0
H  H49  1  0.61256070  0.97005335  0.37830100  1  0.051809  2.1e-05  0.097902  0.10868  -7e-06  0.991159  0.0
H  H50  1  0.88747960  0.02995600  0.87831700  1  0.051922  -2.1e-05  0.097913  0.108628  7e-06  0.991293  0.0
H  H51  1  0.61251807  0.52995603  0.62168127  1  0.051877  2.1e-05  0.097922  0.10865  -7e-06  0.991364  0.0
H  H52  1  0.11251887  0.52995735  0.87831710  1  0.051919  2.1e-05  0.097923  0.108667  -7e-06  0.991299  0.0
H  H53  1  0.38748150  0.02995630  0.62168081  1  0.051854  -2.1e-05  0.097901  0.108611  7e-06  0.991335  0.0
H  H54  1  0.11256162  0.97005287  0.12170027  1  0.051831  2.1e-05  0.097882  0.108666  -7e-06  0.99108  0.0
H  H55  1  0.38743900  0.47005285  0.37830095  1  0.051803  -2.1e-05  0.0979  0.108702  7e-06  0.991161  0.0
H  H56  1  0.04287970  0.44403091  0.14959500  1  0.064965  -4.2e-05  0.088533  0.0887  -2.3e-05  1.037805  0.0
H  H57  1  0.45712087  0.94403164  0.35040498  1  0.064913  4.2e-05  0.088526  0.088668  2.3e-05  1.037843  0.0
H  H58  1  0.04293682  0.05595440  0.85043162  1  0.064626  -4.2e-05  0.088561  0.088481  -2.2e-05  1.037999  0.0
H  H59  1  0.45706165  0.55595416  0.64956833  1  0.064568  4.2e-05  0.088564  0.088488  2.2e-05  1.03796  0.0
H  H60  1  0.95705879  0.55595461  0.85043205  1  0.064579  4.2e-05  0.088558  0.088491  2.2e-05  1.037923  0.0
H  H61  1  0.54293503  0.05595388  0.64956826  1  0.06462  -4.2e-05  0.088567  0.088502  -2.2e-05  1.038  0.0
H  H62  1  0.95711908  0.94403268  0.14959543  1  0.064901  4.2e-05  0.088504  0.088672  2.3e-05  1.037825  0.0
H  H63  1  0.54287977  0.44403058  0.35040532  1  0.064952  -4.2e-05  0.088544  0.088712  -2.2e-05  1.037819  0.0
H  H64  1  0.03510989  0.58626591  0.07738363  1  0.039835  0.008619  0.096164  0.073848  0.004746  0.968623  0.004
H  H65  1  0.46489086  0.08626760  0.42261749  1  0.039798  -0.008619  0.096175  0.073861  -0.004746  0.968559  -0.004
H  H66  1  0.03506895  0.91366089  0.92261541  1  0.040237  0.008623  0.0961  0.073825  0.004749  0.968461  0.004
H  H67  1  0.46492543  0.41366147  0.57738423  1  0.040253  -0.008621  0.096113  0.073807  -0.004748  0.968434  -0.004
H  H68  1  0.96492840  0.41366121  0.92261570  1  0.040214  -0.008624  0.0961  0.073836  -0.004749  0.968418  -0.004
H  H69  1  0.53507209  0.91366108  0.57738389  1  0.040255  0.008622  0.096129  0.073884  0.004748  0.968512  0.004
H  H70  1  0.96489106  0.08626701  0.07738352  1  0.039821  -0.00862  0.096142  0.073811  -0.004747  0.968662  -0.004
H  H71  1  0.53510895  0.58626799  0.42261755  1  0.039802  0.00862  0.096171  0.073822  0.004747  0.96853  0.004
H  H72  1  0.93038909  0.65981092  0.12060168  1  0.059814  0.001053  0.098001  0.074679  0.000654  1.033019  0.001
H  H73  1  0.56961109  0.15981278  0.37939981  1  0.05979  -0.001053  0.097975  0.074637  -0.000654  1.033027  -0.001
H  H74  1  0.93035583  0.84018100  0.87936262  1  0.059924  0.001056  0.098012  0.074652  0.000656  1.033147  0.001
H  H75  1  0.56964254  0.34018184  0.62063613  1  0.059939  -0.001056  0.098001  0.074628  -0.000655  1.033119  -0.001
H  H76  1  0.06964235  0.34018161  0.87936260  1  0.059951  -0.001056  0.097988  0.074616  -0.000656  1.033153  -0.001
H  H77  1  0.43035675  0.84018053  0.62063621  1  0.059902  0.001056  0.098026  0.074696  0.000655  1.033156  0.001
H  H78  1  0.06961201  0.15981308  0.12060166  1  0.059785  -0.001053  0.09801  0.074692  -0.000654  1.033047  -0.001
H  H79  1  0.43038890  0.65981224  0.37939948  1  0.059795  0.001053  0.097983  0.074654  0.000654  1.033032  0.001
H  H80  1  0.17212440  0.72989237  0.07205251  1  0.036447  0.00726  0.081065  0.088965  0.00395  1.041391  0.004
H  H81  1  0.32787471  0.22989153  0.42794824  1  0.03641  -0.007259  0.08108  0.088973  -0.00395  1.04146  -0.004
H  H82  1  0.17210075  0.77008757  0.92793388  1  0.036548  0.007262  0.081029  0.088967  0.003951  1.041471  0.004
H  H83  1  0.32789527  0.27008873  0.57206572  1  0.036543  -0.007262  0.081017  0.088973  -0.003951  1.041398  -0.004
H  H84  1  0.82789921  0.27008692  0.92793378  1  0.036548  -0.007263  0.081043  0.089007  -0.003951  1.041498  -0.004
H  H85  1  0.67210683  0.77008776  0.57206496  1  0.036542  0.007261  0.081071  0.089057  0.00395  1.041506  0.004
H  H86  1  0.82787688  0.22989016  0.07205201  1  0.036416  -0.00726  0.081049  0.088956  -0.00395  1.041491  -0.004
H  H87  1  0.67212443  0.72989134  0.42794788  1  0.036415  0.007259  0.08108  0.089006  0.00395  1.041508  0.004
H  H88  1  0.23161019  0.79167873  0.13288792  1  0.086836  0.000292  0.098981  0.122201  -2.7e-05  1.037154  0.0
H  H89  1  0.26838906  0.29167618  0.36711325  1  0.087156  -0.000292  0.098973  0.122206  2.7e-05  1.03716  0.0
H  H90  1  0.23157077  0.70828729  0.86709928  1  0.087403  0.000292  0.098892  0.122138  -2.7e-05  1.03714  0.0
H  H91  1  0.26842706  0.20828686  0.63290112  1  0.087363  -0.000292  0.098919  0.122195  2.7e-05  1.037196  0.0
H  H92  1  0.76842810  0.20828655  0.86709878  1  0.087377  -0.000292  0.09892  0.122182  2.7e-05  1.037236  0.0
H  H93  1  0.73157291  0.70828831  0.63290035  1  0.087378  0.000292  0.09893  0.1222  -2.7e-05  1.037201  0.0
H  H94  1  0.76838924  0.29167565  0.13288660  1  0.087163  -0.000292  0.098977  0.122216  2.7e-05  1.037167  0.0
H  H95  1  0.73161123  0.79167530  0.36711248  1  0.08763  0.000292  0.098983  0.122258  -2.7e-05  1.037126  0.0
H  H96  1  0.06170869  0.79809718  0.11603814  1  0.037136  0.00079  0.102021  0.117891  0.000338  1.02801  0.001
H  H97  1  0.43828764  0.29809801  0.38396344  1  0.037157  -0.00079  0.102037  0.117923  -0.000338  1.027983  -0.001
H  H98  1  0.06166729  0.70189195  0.88395478  1  0.037016  0.000791  0.102086  0.117878  0.000339  1.027639  0.001
H  H99  1  0.43833150  0.20189252  0.61604440  1  0.036923  -0.000791  0.102103  0.117911  -0.000339  1.02764  -0.001
H  H100  1  0.93833254  0.20189301  0.88395467  1  0.037038  -0.000791  0.102086  0.117898  -0.000339  1.0276  -0.001
H  H101  1  0.56167139  0.70189218  0.61604282  1  0.036942  0.000791  0.102064  0.117869  0.000339  1.027644  0.001
H  H102  1  0.93828978  0.29809824  0.11603762  1  0.037123  -0.00079  0.102031  0.11792  -0.000338  1.027975  -0.001
H  H103  1  0.56171168  0.79809766  0.38396228  1  0.037144  0.00079  0.102041  0.117953  0.000338  1.027968  0.001
H  H104  1  0.22760600  0.51754503  0.17016790  1  0.044242  0.000838  0.09921  0.117136  0.000309  1.01197  0.001
H  H105  1  0.27239655  0.01754402  0.32983197  1  0.044226  -0.000838  0.09922  0.117158  -0.000309  1.011955  -0.001
H  H106  1  0.22759657  0.98240696  0.82979362  1  0.043668  0.000839  0.099209  0.116987  0.000309  1.012299  0.001
H  H107  1  0.27240286  0.48240580  0.67020726  1  0.043668  -0.000839  0.099221  0.117017  -0.000309  1.012283  -0.001
H  H108  1  0.77240098  0.48240623  0.82979353  1  0.043688  -0.000839  0.099216  0.117001  -0.000309  1.012304  -0.001
H  H109  1  0.72759575  0.98240724  0.67020649  1  0.043665  0.000839  0.099222  0.117013  0.000309  1.012293  0.001
H  H110  1  0.77239574  0.01754430  0.17016740  1  0.044241  -0.000838  0.099212  0.11713  -0.000309  1.011982  -0.001
H  H111  1  0.72760216  0.51754390  0.32983161  1  0.044203  0.000838  0.099221  0.117156  0.000309  1.012025  0.001
H  H112  1  0.32444767  0.63178019  0.16079410  1  0.079402  0.000324  0.101902  0.122339  1.1e-05  1.023615  0.0
H  H113  1  0.17555318  0.13177905  0.33920743  1  0.079453  -0.000324  0.101923  0.122378  -1.1e-05  1.023626  0.0
H  H114  1  0.32442526  0.86817661  0.83919553  1  0.079456  0.000324  0.101779  0.122277  1.1e-05  1.023599  0.0
H  H115  1  0.17557293  0.36817530  0.66080532  1  0.079443  -0.000324  0.101781  0.122284  -1.1e-05  1.023515  0.0
H  H116  1  0.67557399  0.36817574  0.83919545  1  0.079445  -0.000324  0.101778  0.122261  -1.1e-05  1.023586  0.0
H  H117  1  0.82442640  0.86817766  0.66080494  1  0.079465  0.000324  0.1018  0.122287  1.1e-05  1.023565  0.0
H  H118  1  0.67555335  0.13178010  0.16079280  1  0.079439  -0.000324  0.101905  0.122329  -1.1e-05  1.023662  0.0
H  H119  1  0.82444579  0.63177907  0.33920665  1  0.079462  0.000325  0.101923  0.122362  1.1e-05  1.023632  0.0
H  H120  1  0.26423683  0.56228671  0.10271658  1  0.069901  0.005113  0.082241  0.099075  0.002802  1.032882  0.003
H  H121  1  0.23576680  0.06228493  0.39728412  1  0.069858  -0.005111  0.082277  0.099134  -0.002801  1.032897  -0.003
H  H122  1  0.26421748  0.93772451  0.89726042  1  0.069785  0.005111  0.082189  0.099132  0.0028  1.032616  0.003
H  H123  1  0.23578185  0.43772323  0.60274045  1  0.069804  -0.005109  0.0822  0.099158  -0.0028  1.032598  -0.003
H  H124  1  0.73578091  0.43772372  0.89725992  1  0.069783  -0.00511  0.082215  0.099188  -0.0028  1.032615  -0.003
H  H125  1  0.76421865  0.93772473  0.60274008  1  0.069783  0.005109  0.082194  0.099147  0.0028  1.032633  0.003
H  H126  1  0.73576699  0.06228670  0.10271527  1  0.069869  -0.005112  0.082289  0.099138  -0.002801  1.032861  -0.003
H  H127  1  0.76423296  0.56228564  0.39728375  1  0.069886  0.005111  0.082266  0.099109  0.002801  1.032858  0.003
C  C128  1  0.07433151  0.53907576  0.33843629  1  0.020946  0.011037  -0.033547  -0.059311  0.007492  4.018937  0.008
C  C129  1  0.42567109  0.03907402  0.16156522  1  0.021152  -0.011043  -0.03364  -0.05963  -0.007497  4.019052  -0.008
C  C130  1  0.07434071  0.96092507  0.66156396  1  0.020842  0.011046  -0.033682  -0.05959  0.007499  4.019265  0.008
C  C131  1  0.42566063  0.46092428  0.83843691  1  0.020871  -0.011055  -0.033719  -0.059661  -0.007505  4.019085  -0.008
C  C132  1  0.92566079  0.46092767  0.66156386  1  0.020871  -0.011047  -0.033669  -0.059533  -0.007499  4.019223  -0.008
C  C133  1  0.57433883  0.96092473  0.83843656  1  0.020868  0.011053  -0.033715  -0.059636  0.007503  4.019096  0.008
C  C134  1  0.92566921  0.03907602  0.33843537  1  0.021046  -0.011039  -0.033605  -0.059437  -0.007494  4.018874  -0.008
C  C135  1  0.57432972  0.53907447  0.16156446  1  0.021129  0.011044  -0.033625  -0.059614  0.007497  4.018963  0.008
C  C136  1  0.10865616  0.64685337  0.34609082  1  0.764609  -0.002808  0.083132  0.253999  -5.1e-05  4.133525  -0.004
C  C137  1  0.39134668  0.14685469  0.15391235  1  0.764969  0.002807  0.083232  0.254205  5e-05  4.133701  0.004
C  C138  1  0.10865435  0.85314439  0.65391392  1  0.764833  -0.002812  0.083145  0.254076  -5.4e-05  4.133603  -0.004
C  C139  1  0.39134283  0.35314045  0.84608489  1  0.764754  0.002812  0.083123  0.254066  5.4e-05  4.133537  0.004
C  C140  1  0.89134789  0.35314461  0.65391341  1  0.764834  0.002813  0.083148  0.254031  5.5e-05  4.133622  0.004
C  C141  1  0.60865540  0.85314172  0.84608494  1  0.764831  -0.002812  0.083058  0.253963  -5.4e-05  4.133584  -0.004
C  C142  1  0.89133991  0.14685514  0.34608868  1  0.764608  0.002806  0.083135  0.25396  4.9e-05  4.133872  0.004
C  C143  1  0.60865730  0.64685519  0.15391159  1  0.764742  -0.002807  0.083116  0.25402  -5e-05  4.133752  -0.004
C  C144  1  0.16113512  0.67245848  0.39845649  1  -0.157003  0.013072  -0.033403  0.005269  0.009288  3.901588  0.01
C  C145  1  0.33887560  0.17245812  0.10154547  1  -0.156935  -0.013076  -0.033469  0.005258  -0.009291  3.901618  -0.01
C  C146  1  0.16114699  0.82753313  0.60155558  1  -0.157478  0.013069  -0.033519  0.005207  0.009286  3.901687  0.01
C  C147  1  0.33885014  0.32753149  0.89844322  1  -0.157489  -0.013075  -0.033512  0.005189  -0.00929  3.901746  -0.01
C  C148  1  0.83885522  0.32753482  0.60155426  1  -0.157483  -0.013071  -0.033509  0.005216  -0.009287  3.901716  -0.01
C  C149  1  0.66114703  0.82753129  0.89844286  1  -0.157568  0.013074  -0.033476  0.00526  0.009289  3.9018  0.01
C  C150  1  0.83886195  0.17245784  0.39845476  1  -0.157019  -0.013072  -0.033374  0.005357  -0.009288  3.901584  -0.01
C  C151  1  0.66113630  0.67245558  0.10154511  1  -0.157131  0.013076  -0.03335  0.005376  0.009291  3.901482  0.01
C  C152  1  0.17678165  0.60026966  0.43985458  1  0.036465  -0.002532  -0.105888  -0.175314  -0.001753  4.046695  -0.002
C  C153  1  0.32322891  0.10027392  0.06014694  1  0.03603  0.002531  -0.105827  -0.175126  0.001752  4.046533  0.002
C  C154  1  0.17679957  0.89971184  0.56015056  1  0.037256  -0.002535  -0.105773  -0.17497  -0.001755  4.046519  -0.002
C  C155  1  0.32319869  0.39970945  0.93984786  1  0.037282  0.002536  -0.105774  -0.174964  0.001755  4.046536  0.002
C  C156  1  0.82320282  0.39971430  0.56014924  1  0.037362  0.002536  -0.105752  -0.174884  0.001755  4.046509  0.002
C  C157  1  0.67680057  0.89971004  0.93984709  1  0.037275  -0.002536  -0.10579  -0.175019  -0.001755  4.046578  -0.002
C  C158  1  0.82321915  0.10026978  0.43985245  1  0.036448  0.002531  -0.105869  -0.175307  0.001752  4.04659  0.002
C  C159  1  0.67677893  0.60026828  0.06014740  1  0.036454  -0.002531  -0.105903  -0.175382  -0.001753  4.046608  -0.002
C  C160  1  0.14042083  0.49640284  0.43052519  1  -0.108522  0.005364  -0.038818  0.081987  0.003686  4.023885  0.004
C  C161  1  0.35958377  0.99640706  0.06947644  1  -0.108469  -0.005364  -0.038788  0.082029  -0.003687  4.023719  -0.004
C  C162  1  0.14043786  0.00358338  0.56947819  1  -0.108684  0.005378  -0.038862  0.081846  0.003696  4.023945  0.004
C  C163  1  0.35956148  0.50358327  0.93052053  1  -0.108723  -0.005382  -0.038888  0.081777  -0.003699  4.023978  -0.004
C  C164  1  0.85956267  0.50358501  0.56947700  1  -0.1087  -0.005378  -0.038885  0.081766  -0.003696  4.024081  -0.004
C  C165  1  0.64044082  0.00358157  0.93052045  1  -0.108598  0.005381  -0.038898  0.081755  0.003698  4.024077  0.004
C  C166  1  0.85958086  0.99640370  0.43052481  1  -0.108372  -0.005362  -0.03881  0.082018  -0.003685  4.023829  -0.004
C  C167  1  0.64042006  0.49640225  0.06947595  1  -0.108319  0.005365  -0.038831  0.081981  0.003687  4.023837  0.004
C  C168  1  0.08983714  0.46574633  0.38079309  1  -0.016917  -0.003074  -0.095848  -0.16767  -0.001984  4.006934  -0.002
C  C169  1  0.41016739  0.96574600  0.11920690  1  -0.017015  0.003072  -0.09592  -0.167741  0.001982  4.006955  0.002
C  C170  1  0.08984638  0.03424838  0.61920745  1  -0.016911  -0.003073  -0.095892  -0.167717  -0.001983  4.00698  -0.002
C  C171  1  0.41015302  0.53424830  0.88079332  1  -0.016968  0.003072  -0.095926  -0.167696  0.001983  4.007011  0.002
C  C172  1  0.91015223  0.53425087  0.61920665  1  -0.016915  0.003074  -0.095931  -0.167715  0.001984  4.006966  0.002
C  C173  1  0.58984546  0.03424808  0.88079325  1  -0.01712  -0.003073  -0.095824  -0.167516  -0.001983  4.006808  -0.002
C  C174  1  0.91016549  0.96574570  0.38079393  1  -0.017104  0.003073  -0.095931  -0.167704  0.001983  4.00689  0.002
C  C175  1  0.58983537  0.46574345  0.11920602  1  -0.017167  -0.003072  -0.095961  -0.167658  -0.001983  4.006935  -0.002
C  C176  1  0.00944463  0.50449832  0.28955976  1  0.582634  -0.006692  0.075507  0.107539  -0.004181  3.923047  -0.005
C  C177  1  0.49055985  0.00450296  0.21044745  1  0.583259  0.006685  0.07565  0.107611  0.004177  3.923534  0.005
C  C178  1  0.00947247  0.99551565  0.71044743  1  0.58185  -0.006688  0.075617  0.107527  -0.004183  3.923516  -0.005
C  C179  1  0.49053383  0.49551179  0.78954938  1  0.5821  0.006684  0.075746  0.107615  0.00418  3.92363  0.005
C  C180  1  0.99052517  0.49551678  0.71044691  1  0.581835  0.006688  0.075579  0.107476  0.004183  3.923661  0.005
C  C181  1  0.50946572  0.99551215  0.78954985  1  0.58205  -0.006686  0.075761  0.10762  -0.004182  3.923424  -0.005
C  C182  1  0.99055701  0.00450101  0.28955680  1  0.583023  0.006688  0.07561  0.107527  0.004179  3.923267  0.005
C  C183  1  0.50943988  0.50450176  0.21044506  1  0.583234  -0.006686  0.075658  0.107599  -0.004177  3.923399  -0.005
C  C184  1  0.90578542  0.51741395  0.20405820  1  0.301255  0.002194  -0.072483  -0.031464  0.002132  3.928597  0.001
C  C185  1  0.59421834  0.01741654  0.29594285  1  0.301358  -0.002192  -0.07252  -0.031481  -0.002131  3.928453  -0.001
C  C186  1  0.90584059  0.98265346  0.79594890  1  0.300128  0.002194  -0.072316  -0.031401  0.00213  3.928845  0.001
C  C187  1  0.59415908  0.48265130  0.70405071  1  0.300169  -0.002194  -0.072335  -0.031431  -0.00213  3.928641  -0.001
C  C188  1  0.09415698  0.48265410  0.79594847  1  0.300109  -0.002194  -0.072271  -0.031363  -0.002131  3.928778  -0.001
C  C189  1  0.40584049  0.98264995  0.70404997  1  0.300149  0.002194  -0.072326  -0.031428  0.002131  3.928805  0.001
C  C190  1  0.09421629  0.01741614  0.20405818  1  0.301233  -0.002193  -0.07253  -0.031654  -0.002131  3.928596  -0.001
C  C191  1  0.40578332  0.51741519  0.29594292  1  0.301329  0.002193  -0.072541  -0.031661  0.002131  3.928643  0.001
C  C192  1  0.96477801  0.50276193  0.14768572  1  -0.052171  0.000989  -0.168753  -0.191223  0.000585  3.926199  0.001
C  C193  1  0.53522475  0.00276138  0.35231451  1  -0.052095  -0.000988  -0.168775  -0.191236  -0.000585  3.926243  -0.001
C  C194  1  0.96480089  0.99724717  0.85232382  1  -0.051773  0.000986  -0.16895  -0.191149  0.000584  3.926895  0.001
C  C195  1  0.53519881  0.49724876  0.64767375  1  -0.051751  -0.000986  -0.168986  -0.191221  -0.000584  3.926917  -0.001
C  C196  1  0.03519962  0.49724616  0.85232462  1  -0.051717  -0.000986  -0.168989  -0.191264  -0.000584  3.926923  -0.001
C  C197  1  0.46480180  0.99724905  0.64767463  1  -0.051764  0.000987  -0.168963  -0.19118  0.000584  3.926904  0.001
C  C198  1  0.03522272  0.00276171  0.14768611  1  -0.051882  -0.000989  -0.168756  -0.191187  -0.000586  3.926104  -0.001
C  C199  1  0.46477588  0.50276011  0.35231458  1  -0.052162  0.000988  -0.168799  -0.191282  0.000585  3.926234  0.001
C  C200  1  0.00990172  0.60223219  0.12048555  1  0.250589  0.000901  -0.075101  -0.062444  0.00148  3.886366  -0.001
C  C201  1  0.49009906  0.10223309  0.37951557  1  0.250858  -0.000899  -0.075022  -0.062281  -0.001479  3.886023  0.001
C  C202  1  0.00988425  0.89774130  0.87950493  1  0.249736  0.000902  -0.0751  -0.062448  0.001481  3.886288  -0.001
C  C203  1  0.49011499  0.39774117  0.62049471  1  0.249713  -0.000902  -0.075107  -0.062391  -0.00148  3.886202  0.001
C  C204  1  0.99011406  0.39774243  0.87950441  1  0.249744  -0.000902  -0.075113  -0.06245  -0.00148  3.886354  0.001
C  C205  1  0.50988541  0.89773997  0.62049395  1  0.249727  0.000902  -0.075134  -0.062565  0.00148  3.886401  -0.001
C  C206  1  0.99009827  0.10223488  0.12048462  1  0.250407  -0.000902  -0.075055  -0.062362  -0.00148  3.886175  0.001
C  C207  1  0.50990080  0.60223266  0.37951523  1  0.250861  0.000899  -0.07505  -0.06229  0.001479  3.88594  -0.001
C  C208  1  0.14953559  0.74945411  0.11480185  1  0.242405  0.000144  -0.15857  -0.291388  0.001087  3.902284  -0.001
C  C209  1  0.35046357  0.24945404  0.38519931  1  0.24209  -0.000144  -0.158584  -0.291446  -0.001087  3.902423  0.001
C  C210  1  0.14950995  0.75052502  0.88518903  1  0.241622  0.000145  -0.158446  -0.29133  0.001089  3.901738  -0.001
C  C211  1  0.35048797  0.25052547  0.61481179  1  0.241976  -0.000143  -0.158491  -0.291492  -0.001089  3.901879  0.001
C  C212  1  0.85048803  0.25052518  0.88518852  1  0.241629  -0.000145  -0.158505  -0.29145  -0.001089  3.90189  0.001
C  C213  1  0.64951406  0.75052603  0.61481021  1  0.24192  0.000143  -0.158509  -0.291513  0.001089  3.902047  -0.001
C  C214  1  0.85046376  0.24945427  0.11480052  1  0.242115  -0.000145  -0.158589  -0.291473  -0.001087  3.902362  0.001
C  C215  1  0.64953662  0.74945382  0.38519896  1  0.241627  0.000144  -0.158618  -0.291577  0.001087  3.902459  -0.001
C  C216  1  0.24186035  0.58689596  0.14483331  1  0.192358  -0.000644  -0.158288  -0.29445  0.000107  3.900342  -0.002
C  C217  1  0.25813942  0.08689339  0.35516821  1  0.192436  0.000644  -0.158351  -0.294608  -0.000107  3.900475  0.002
C  C218  1  0.24184390  0.91308019  0.85514818  1  0.193424  -0.00065  -0.15825  -0.294418  0.000102  3.900899  -0.002
C  C219  1  0.25815635  0.41308209  0.64485187  1  0.193434  0.00065  -0.158234  -0.294406  -0.000102  3.900687  0.002
C  C220  1  0.75815544  0.41308021  0.85514890  1  0.19341  0.00065  -0.158285  -0.294458  -0.000102  3.900878  0.002
C  C221  1  0.74184505  0.91308200  0.64485150  1  0.193427  -0.000649  -0.158258  -0.294419  0.000102  3.900809  -0.002
C  C222  1  0.75813862  0.08689443  0.14483241  1  0.192355  0.000644  -0.158339  -0.294507  -0.000107  3.900324  0.002
C  C223  1  0.74186041  0.58689252  0.35516703  1  0.192378  -0.000644  -0.158344  -0.294546  0.000106  3.900439  -0.002
Br  Br224  1  0.21129625  0.81342059  0.41076021  1  -0.068715  0.000803  0.055409  -0.028035  0.000624  1.586106  0.0
Br  Br225  1  0.28872360  0.31342405  0.08924137  1  -0.068684  -0.000803  0.055385  -0.028109  -0.000624  1.586038  0.0
Br  Br226  1  0.21129802  0.68656641  0.58925226  1  -0.068702  0.000803  0.055473  -0.028025  0.000625  1.585901  0.0
Br  Br227  1  0.28869683  0.18656783  0.91074732  1  -0.068667  -0.000803  0.05547  -0.028021  -0.000625  1.585965  0.0
Br  Br228  1  0.78870193  0.18656804  0.58925216  1  -0.068728  -0.000804  0.055449  -0.028059  -0.000625  1.585994  0.0
Br  Br229  1  0.71129512  0.68656692  0.91074818  1  -0.068708  0.000803  0.055448  -0.028053  0.000624  1.585955  0.0
Br  Br230  1  0.78869624  0.31342144  0.41075808  1  -0.068726  -0.000803  0.055391  -0.028084  -0.000624  1.586062  0.0
Br  Br231  1  0.71129743  0.81341924  0.08924264  1  -0.068668  0.000803  0.055362  -0.02812  0.000624  1.586055  0.0
Br  Br232  1  0.15711526  0.39803440  0.48844576  1  -0.089224  -0.000223  0.030444  -0.066071  -0.000295  1.551257  0.0
Br  Br233  1  0.34288227  0.89804321  0.01155259  1  -0.089185  0.000221  0.030442  -0.066094  0.000294  1.551187  0.0
Br  Br234  1  0.15712569  0.10193861  0.51155314  1  -0.088834  -0.00022  0.030495  -0.065985  -0.000293  1.551383  0.0
Br  Br235  1  0.34286408  0.60193775  0.98844479  1  -0.08877  0.000217  0.03052  -0.06596  0.000292  1.551412  0.0
Br  Br236  1  0.84287410  0.60194100  0.51155317  1  -0.08889  0.00022  0.030529  -0.065946  0.000293  1.551461  0.0
Br  Br237  1  0.65714819  0.10193218  0.98844512  1  -0.088689  -0.000218  0.030517  -0.065973  -0.000292  1.551517  0.0
Br  Br238  1  0.84288423  0.89803756  0.48844620  1  -0.089178  0.000223  0.030429  -0.066106  0.000295  1.551264  0.0
Br  Br239  1  0.65711354  0.39803531  0.01155414  1  -0.089228  -0.000221  0.030435  -0.066091  -0.000294  1.551226  0.0
N  N240  1  0.99796560  0.55691979  0.24460970  1  -1.168847  0.090074  -0.370597  -0.246645  0.064632  3.547646  0.078
N  N241  1  0.50203728  0.05691832  0.25538850  1  -1.169601  -0.090056  -0.370632  -0.246588  -0.064619  3.548046  -0.078
N  N242  1  0.99799232  0.94311038  0.75539699  1  -1.168184  0.090039  -0.370654  -0.246624  0.064608  3.548146  0.078
N  N243  1  0.50200530  0.44311046  0.74460465  1  -1.168354  -0.090039  -0.370687  -0.246624  -0.064608  3.548301  -0.078
N  N244  1  0.00200616  0.44311166  0.75539656  1  -1.16818  -0.090046  -0.370605  -0.24658  -0.064612  3.548217  -0.078
N  N245  1  0.49799220  0.94310924  0.74460309  1  -1.168304  0.090041  -0.370749  -0.246715  0.064609  3.548169  0.078
N  N246  1  0.00203423  0.05692107  0.24461050  1  -1.169299  -0.090064  -0.37061  -0.246559  -0.064625  3.547801  -0.078
N  N247  1  0.49796156  0.55691866  0.25538816  1  -1.169584  0.090065  -0.370579  -0.246482  0.064625  3.547874  0.078
N  N248  1  0.12436350  0.65356306  0.14610140  1  -0.983679  0.104436  -0.351061  -0.010994  0.074587  3.529782  0.091
N  N249  1  0.37563838  0.15356221  0.35390055  1  -0.983556  -0.104426  -0.351127  -0.011063  -0.074576  3.529769  -0.091
N  N250  1  0.12435277  0.84641837  0.85388907  1  -0.98397  0.104453  -0.351032  -0.010738  0.074594  3.529727  0.091
N  N251  1  0.37564733  0.34641656  0.64611055  1  -0.984202  -0.104435  -0.351046  -0.010777  -0.07458  3.529638  -0.091
N  N252  1  0.87564641  0.34641779  0.85388937  1  -0.983975  -0.104455  -0.350986  -0.010723  -0.074595  3.529706  -0.091
N  N253  1  0.62435295  0.84641785  0.64610979  1  -0.984171  0.104437  -0.351041  -0.010731  0.074581  3.529589  0.091
N  N254  1  0.87563953  0.15356247  0.14610089  1  -0.983225  -0.104441  -0.351049  -0.010955  -0.074587  3.52966  -0.091
N  N255  1  0.62436063  0.65356118  0.35390019  1  -0.983478  0.10443  -0.351104  -0.011052  0.07458  3.529737  0.091
N  N256  1  0.24772057  0.78586904  0.22532777  1  -0.20611  0.038513  -0.294331  -0.472097  0.030031  3.040468  0.035
N  N257  1  0.25227377  0.28586639  0.27467503  1  -0.205372  -0.038501  -0.294306  -0.47203  -0.030025  3.040837  -0.035
N  N258  1  0.24776047  0.71416862  0.77468592  1  -0.206405  0.038534  -0.294405  -0.472398  0.030049  3.040751  0.035
N  N259  1  0.25223738  0.21416748  0.72531489  1  -0.206364  -0.038507  -0.294249  -0.472254  -0.03003  3.041186  -0.035
N  N260  1  0.75224140  0.21416786  0.77468542  1  -0.206467  -0.038526  -0.294271  -0.472249  -0.030043  3.040945  -0.035
N  N261  1  0.74776158  0.71416818  0.72531493  1  -0.206392  0.038506  -0.294236  -0.472205  0.030029  3.041199  0.035
N  N262  1  0.75227391  0.28586672  0.22532524  1  -0.205488  -0.038519  -0.294237  -0.471942  -0.030037  3.040438  -0.035
N  N263  1  0.74772166  0.78586786  0.27467425  1  -0.205443  0.038502  -0.294376  -0.472188  0.030025  3.040879  0.035
N  N264  1  0.33318159  0.78651456  0.25851498  1  -0.339708  0.002157  0.078765  0.420418  -0.000232  4.481686  -0.004
N  N265  1  0.16682450  0.28651175  0.24148905  1  -0.340557  -0.002151  0.078754  0.420361  0.000238  4.481933  0.005
N  N266  1  0.33323031  0.71349442  0.74150197  1  -0.342541  0.002182  0.078514  0.420334  -0.000229  4.481701  -0.004
N  N267  1  0.16677536  0.21349475  0.75849599  1  -0.342452  -0.002172  0.07844  0.420299  0.000236  4.481876  0.004
N  N268  1  0.66677158  0.21349354  0.74150229  1  -0.342278  -0.002179  0.078357  0.420217  0.000229  4.481922  0.004
N  N269  1  0.83322357  0.71349556  0.75849521  1  -0.342484  0.002171  0.078333  0.420243  -0.000235  4.481948  -0.004
N  N270  1  0.66681777  0.28651367  0.25851408  1  -0.340449  -0.00216  0.078742  0.420346  0.000231  4.481972  0.004
N  N271  1  0.83317193  0.78651257  0.24148867  1  -0.340525  0.002152  0.078837  0.420511  -0.000238  4.481811  -0.004
N  N272  1  0.42049680  0.78980568  0.28978886  1  -0.124308  0.073036  -0.232497  -0.427848  0.0504  2.853005  0.054
N  N273  1  0.07950343  0.28980583  0.21021231  1  -0.124204  -0.07307  -0.232472  -0.427787  -0.050424  2.852789  -0.054
N  N274  1  0.42055922  0.71016683  0.71023745  1  -0.121295  0.073029  -0.232074  -0.427281  0.050408  2.852641  0.054
N  N275  1  0.07943372  0.21016784  0.78976336  1  -0.121433  -0.073064  -0.232158  -0.427428  -0.050431  2.852385  -0.054
N  N276  1  0.57944071  0.21016738  0.71023779  1  -0.121534  -0.07303  -0.232044  -0.427297  -0.050407  2.852623  -0.054
N  N277  1  0.92056422  0.71016723  0.78976297  1  -0.121356  0.073063  -0.232061  -0.427381  0.050431  2.852391  0.054
N  N278  1  0.57950646  0.28980856  0.28978797  1  -0.124221  -0.073034  -0.232524  -0.427828  -0.050398  2.853185  -0.054
N  N279  1  0.92049302  0.78980833  0.21021356  1  -0.124136  0.073058  -0.232513  -0.427872  0.050416  2.852727  0.054
O  O280  1  0.09111923  0.71856258  0.30950130  1  -1.108539  0.114082  -0.334782  -0.489013  0.079304  2.419116  0.103
O  O281  1  0.40887986  0.21856163  0.19050148  1  -1.108624  -0.114097  -0.3348  -0.489121  -0.079313  2.419432  -0.103
O  O282  1  0.09109670  0.78143827  0.69050589  1  -1.108638  0.114041  -0.334763  -0.489071  0.079277  2.419076  0.103
O  O283  1  0.40890228  0.28143899  0.80949331  1  -1.108724  -0.114054  -0.334767  -0.489047  -0.079284  2.419095  -0.103
O  O284  1  0.90890340  0.28144007  0.69050537  1  -1.108613  -0.11404  -0.334788  -0.489056  -0.079276  2.419143  -0.103
O  O285  1  0.59109483  0.78143790  0.80949337  1  -1.10871  0.11406  -0.334721  -0.48902  0.079289  2.419053  0.103
O  O286  1  0.90887016  0.21855970  0.30949997  1  -1.108535  -0.114072  -0.334768  -0.488959  -0.079296  2.419457  -0.103
O  O287  1  0.59112134  0.71856054  0.19049991  1  -1.108565  0.11409  -0.334726  -0.488954  0.079308  2.419455  0.103
