# generated using pymatgen
data_CoH10C17N3O4
_symmetry_space_group_name_H-M   'P 1'
_cell_length_a   11.69664449
_cell_length_b   14.70927843
_cell_length_c   14.80598007
_cell_angle_alpha   95.56088697
_cell_angle_beta   108.02902951
_cell_angle_gamma   107.54231351
_symmetry_Int_Tables_number   1
_chemical_formula_structural   CoH10C17N3O4
_chemical_formula_sum   'Co4 H40 C68 N12 O16'
_cell_volume   2258.24701539
_cell_formula_units_Z   4
loop_
 _symmetry_equiv_pos_site_id
 _symmetry_equiv_pos_as_xyz
  1  'x, y, z'
loop_
 _atom_site_type_symbol
 _atom_site_label
 _atom_site_symmetry_multiplicity
 _atom_site_fract_x
 _atom_site_fract_y
 _atom_site_fract_z
 _atom_site_occupancy
 _atom_site_pbe_bader_charge
 _atom_site_pbe_bader_spin_density
 _atom_site_pbe_cm5_charge
 _atom_site_pbe_ddec_charge
 _atom_site_pbe_ddec_spin_density
 _atom_site_pbe_ddec_sum_bond_order
 _atom_site_pbe_magmom
Co  Co0  1  0.38910685  0.56053398  0.80990568  1  1.142405  1.042354  0.662628  0.655045  1.131515  2.96059  1.03
Co  Co1  1  0.61073974  0.18971805  0.43800455  1  1.244405  2.598835  0.685321  0.817049  2.838727  2.598603  2.572
Co  Co2  1  0.61112268  0.43651624  0.18861920  1  1.278028  2.601569  0.685562  0.817816  2.844463  2.590434  2.576
Co  Co3  1  0.38899669  0.80812352  0.56349533  1  1.268308  2.582891  0.66888  0.804132  2.815764  2.538926  2.557
H  H4  1  0.47257053  0.86605099  0.39238190  1  0.121817  0.00202  0.117274  0.086146  0.000625  1.019895  0.001
H  H5  1  0.52586988  0.60621891  0.12934412  1  0.121078  0.002082  0.117511  0.08962  0.000685  1.027041  0.001
H  H6  1  0.52517002  0.13058239  0.60555320  1  0.109604  0.002135  0.117092  0.085502  0.000686  1.023696  0.001
H  H7  1  0.48047301  0.39803889  0.87509284  1  0.118239  0.000104  0.120392  0.093302  -0.000208  1.025014  0.0
H  H8  1  0.38490102  0.80716677  0.21288040  1  0.075327  0.001066  0.111962  0.120748  0.00048  0.991446  0.0
H  H9  1  0.61060401  0.78653977  0.19065096  1  0.086425  0.001126  0.111988  0.120842  0.0005  0.990943  0.0
H  H10  1  0.60937538  0.19141319  0.78523646  1  0.066611  0.001109  0.111955  0.120601  0.000496  0.991929  0.0
H  H11  1  0.39476418  0.21938689  0.81195446  1  0.073152  4e-06  0.110951  0.119799  6.9e-05  0.992313  0.0
H  H12  1  0.03959007  0.61854918  0.24070894  1  0.104039  0.000738  0.110896  0.120485  0.000308  1.021151  0.0
H  H13  1  0.95538472  0.75818766  0.38263925  1  0.124279  0.000792  0.110637  0.119952  0.000334  1.020701  0.0
H  H14  1  0.95525087  0.38140219  0.75967260  1  0.093266  0.000717  0.11037  0.117078  0.000261  1.022932  0.0
H  H15  1  0.05083786  0.25066653  0.62215310  1  0.118007  -0.00012  0.111149  0.120725  -3.8e-05  1.017307  0.0
H  H16  1  0.14544124  0.68195829  0.42144143  1  0.123388  0.001818  0.12744  0.107892  0.000467  0.979133  0.001
H  H17  1  0.85242042  0.57641471  0.31692079  1  0.133462  0.00188  0.127144  0.107786  0.000474  0.981526  0.001
H  H18  1  0.85227659  0.31672219  0.57831383  1  0.133465  0.001885  0.127227  0.108063  0.00047  0.982253  0.001
H  H19  1  0.15470277  0.43059050  0.68792509  1  0.139534  -0.000121  0.128591  0.110426  -0.000347  0.983676  0.0
H  H20  1  0.32715450  0.66124754  0.09298668  1  0.099496  0.00048  0.107753  0.116717  0.000206  1.025009  0.0
H  H21  1  0.66840372  0.90899862  0.33818188  1  0.106035  0.000543  0.107407  0.115853  0.000214  1.019335  0.0
H  H22  1  0.66712297  0.33738217  0.90819116  1  0.097287  0.000519  0.107969  0.117549  0.000215  1.020859  0.0
H  H23  1  0.33558255  0.09483873  0.66553036  1  0.072609  0.000418  0.10699  0.116236  0.000118  1.019649  0.0
H  H24  1  0.99657673  0.56527302  0.83086952  1  0.122486  2.9e-05  0.111277  0.122538  -3.9e-05  1.003849  0.0
H  H25  1  0.00352985  0.16667307  0.43446960  1  0.118582  0.000544  0.112022  0.123491  0.000284  1.00923  0.0
H  H26  1  0.00318219  0.43308076  0.16550756  1  0.069381  0.000537  0.111984  0.123886  0.000278  1.009993  0.0
H  H27  1  0.99924052  0.83796144  0.56855113  1  0.116332  0.000489  0.111072  0.12219  0.000241  1.012769  0.0
H  H28  1  0.55859257  0.50143352  0.71776831  1  0.120844  0.000129  0.124765  0.102549  -0.000259  0.979103  0.0
H  H29  1  0.43306952  0.27610019  0.49323543  1  0.123668  0.002161  0.122406  0.094796  0.000678  0.978474  0.001
H  H30  1  0.43401346  0.49226329  0.27464926  1  0.106826  0.002166  0.122333  0.094882  0.000674  0.979735  0.001
H  H31  1  0.57169678  0.72575412  0.50966586  1  0.132556  0.00202  0.122596  0.094803  0.000648  0.977531  0.001
H  H32  1  0.78885057  0.52004965  0.77587987  1  0.069247  1.1e-05  0.108798  0.115115  5.6e-05  1.004538  0.0
H  H33  1  0.20337275  0.21808311  0.47643229  1  0.092192  0.000971  0.110331  0.117753  0.000445  1.001864  0.0
H  H34  1  0.20398272  0.47621253  0.21678663  1  0.08395  0.000968  0.109795  0.116481  0.000437  1.004057  0.0
H  H35  1  0.80024994  0.78618036  0.52526453  1  0.070927  0.000902  0.109715  0.116869  0.000412  1.004039  0.0
H  H36  1  0.82516058  0.66856862  0.05537853  1  0.158732  2.4e-05  0.110803  0.119418  3.2e-05  1.011252  0.0
H  H37  1  0.16640733  0.93650206  0.32909117  1  0.120563  0.000768  0.111219  0.118866  0.000345  1.013462  0.0
H  H38  1  0.16514619  0.32782981  0.93637632  1  0.101808  0.000755  0.111129  0.118551  0.000335  1.01295  0.0
H  H39  1  0.83286137  0.06665594  0.67170656  1  0.100787  0.000751  0.111261  0.119889  0.00033  1.012255  0.0
H  H40  1  0.59090936  0.64356125  0.98471047  1  0.122553  0.000484  0.12436  0.101961  1.9e-05  1.009656  0.001
H  H41  1  0.40047326  0.00816606  0.35075804  1  0.125375  0.001754  0.121971  0.094497  0.00034  1.004987  0.002
H  H42  1  0.39931173  0.34892274  0.00769027  1  0.103828  0.001649  0.121811  0.094042  0.000257  1.005556  0.002
H  H43  1  0.59989656  0.99278069  0.65113742  1  0.123254  0.001609  0.121709  0.095509  0.000312  1.007001  0.002
C  C44  1  0.37779605  0.80984864  0.35633081  1  0.458215  -0.006426  0.044206  0.080593  -0.006679  3.975748  -0.004
C  C45  1  0.61938815  0.64233336  0.18705686  1  0.544961  -0.005948  0.043526  0.081185  -0.006255  3.967364  -0.003
C  C46  1  0.61869846  0.18798679  0.64219653  1  0.506561  -0.006681  0.043998  0.08018  -0.007  3.978265  -0.004
C  C47  1  0.38749018  0.36337793  0.81680133  1  0.404666  -0.015534  0.039461  0.062495  -0.015947  3.952192  -0.009
C  C48  1  0.32831023  0.77662449  0.25614751  1  -0.019016  0.004849  -0.083613  -0.173674  0.002154  3.952539  0.004
C  C49  1  0.66687619  0.74254621  0.22152789  1  -0.127642  0.004658  -0.083939  -0.173533  0.001978  3.954721  0.004
C  C50  1  0.66586011  0.22219357  0.74200216  1  -0.06547  0.004696  -0.083802  -0.174452  0.001985  3.958313  0.004
C  C51  1  0.33843327  0.26330927  0.78097451  1  -0.026975  0.003686  -0.084287  -0.171435  0.000977  3.96566  0.003
C  C52  1  0.20464267  0.70645240  0.21177431  1  -0.058235  -0.011065  0.012674  0.085509  -0.011474  3.97588  -0.007
C  C53  1  0.78923321  0.78612934  0.29336120  1  -0.05858  -0.010655  0.01139  0.084806  -0.01105  3.99281  -0.007
C  C54  1  0.78836080  0.29353592  0.78615448  1  -0.059275  -0.011607  0.011729  0.086617  -0.012028  3.993512  -0.007
C  C55  1  0.21572764  0.21942253  0.70922895  1  0.033204  -0.021468  0.005234  0.070779  -0.022121  3.991212  -0.014
C  C56  1  0.13615018  0.67284393  0.27192192  1  0.005587  0.004046  -0.07793  -0.165934  0.001774  3.934048  0.004
C  C57  1  0.85925611  0.72633214  0.32762595  1  -0.050265  0.00373  -0.07904  -0.167165  0.001603  3.942331  0.003
C  C58  1  0.85871397  0.32727828  0.72724727  1  0.027999  0.003522  -0.079691  -0.168801  0.00143  3.949834  0.003
C  C59  1  0.14725950  0.28088657  0.67693673  1  -0.025887  0.002483  -0.078502  -0.160641  0.000342  3.947283  0.003
C  C60  1  0.19356100  0.70789068  0.37167020  1  0.45051  -0.006579  0.053263  0.107375  -0.007185  3.917174  -0.004
C  C61  1  0.80381932  0.62662881  0.29135939  1  0.501503  -0.006099  0.051457  0.104331  -0.006766  3.929153  -0.004
C  C62  1  0.80346657  0.29143532  0.62785400  1  0.44276  -0.006501  0.051742  0.104399  -0.007161  3.929608  -0.004
C  C63  1  0.20331447  0.38051265  0.71351713  1  0.410488  -0.015508  0.045317  0.087954  -0.016148  3.899181  -0.009
C  C64  1  0.14890874  0.66746806  0.10559819  1  0.572811  0.000931  0.118514  0.197327  -5.6e-05  4.038836  0.002
C  C65  1  0.84504697  0.89205662  0.33254165  1  0.557311  0.000721  0.117534  0.195093  -0.000245  4.054873  0.002
C  C66  1  0.84409576  0.33244323  0.89168199  1  0.549026  0.000597  0.118661  0.197306  -0.000345  4.055222  0.002
C  C67  1  0.15877347  0.11316827  0.66953837  1  0.531746  0.000729  0.118842  0.199127  -0.000475  4.037667  0.002
C  C68  1  0.22602872  0.64898426  0.05565968  1  -0.095561  -0.006203  -0.076112  -0.181088  -0.006495  3.915116  -0.004
C  C69  1  0.76989503  0.94437699  0.35110809  1  0.020879  -0.00601  -0.074176  -0.177403  -0.006339  3.910881  -0.003
C  C70  1  0.76882920  0.35044483  0.94362291  1  -0.000193  -0.005746  -0.075037  -0.181002  -0.006062  3.912509  -0.003
C  C71  1  0.23371482  0.05974678  0.65186010  1  -0.051054  -0.008351  -0.075991  -0.180499  -0.008758  3.904705  -0.005
C  C72  1  0.17087657  0.60989265  0.95593695  1  0.024282  -0.000166  0.005308  0.034334  -0.000605  3.942143  0.0
C  C73  1  0.82910675  0.04400113  0.39038612  1  -0.035046  0.001774  0.003366  0.03458  0.00071  3.970559  0.002
C  C74  1  0.82824889  0.38930629  0.04299269  1  -0.004459  0.001634  0.004231  0.03712  0.000622  3.968395  0.002
C  C75  1  0.17447398  0.95986958  0.61296734  1  0.10029  0.001881  0.003992  0.035365  0.000798  3.958329  0.002
C  C76  1  0.04029626  0.59317542  0.90908755  1  -0.00392  -0.006594  -0.07052  -0.167996  -0.006854  3.864047  -0.004
C  C77  1  0.95925858  0.08823796  0.40666414  1  -0.073342  -0.007887  -0.069916  -0.166651  -0.008217  3.879883  -0.004
C  C78  1  0.95874233  0.40574940  0.08726724  1  -0.014256  -0.008118  -0.070669  -0.168851  -0.008478  3.881229  -0.005
C  C79  1  0.04382057  0.91641121  0.59591573  1  -0.099864  -0.008768  -0.071865  -0.168149  -0.009132  3.886982  -0.005
C  C80  1  0.96857223  0.61278135  0.96463624  1  0.504895  0.000597  0.120693  0.197885  -0.000326  3.993692  0.002
C  C81  1  0.02749913  0.03033694  0.38629691  1  0.512591  0.000634  0.118861  0.198077  -0.000452  4.027056  0.002
C  C82  1  0.02704734  0.38591160  0.02973368  1  0.509422  0.000526  0.118784  0.197588  -0.000506  4.027834  0.002
C  C83  1  0.97547820  0.97473071  0.61527344  1  0.49961  0.001075  0.118341  0.196168  -0.000113  4.021424  0.002
C  C84  1  0.62136069  0.53771250  0.79220944  1  0.396375  -0.012368  0.04202  0.066423  -0.012991  3.942209  -0.008
C  C85  1  0.37008082  0.20135807  0.45713476  1  0.486616  -0.009141  0.04395  0.080796  -0.009536  3.9745  -0.005
C  C86  1  0.37050002  0.45624984  0.20017365  1  0.431601  -0.008444  0.044184  0.080136  -0.008857  3.976193  -0.005
C  C87  1  0.63318858  0.80092361  0.54534303  1  0.444917  -0.008482  0.043531  0.07959  -0.008901  3.971044  -0.005
C  C88  1  0.75104822  0.54956390  0.82586450  1  0.02299  0.003552  -0.082073  -0.164864  0.001192  3.957408  0.003
C  C89  1  0.24167266  0.16823077  0.44692025  1  -0.117747  0.006405  -0.081814  -0.167128  0.002742  3.959418  0.005
C  C90  1  0.24196934  0.44637859  0.16717800  1  -0.019957  0.006085  -0.081376  -0.165451  0.002645  3.961266  0.005
C  C91  1  0.76144508  0.83554846  0.55492608  1  -0.010875  0.006261  -0.081894  -0.167711  0.002719  3.955012  0.005
C  C92  1  0.82948214  0.59735195  0.92220164  1  -0.05024  -0.01544  0.00824  0.072031  -0.015928  3.952808  -0.01
C  C93  1  0.16496149  0.07120993  0.40028248  1  -0.005406  -0.015287  0.012493  0.078779  -0.015884  3.970652  -0.01
C  C94  1  0.16466821  0.39962202  0.07053368  1  0.017904  -0.014004  0.011894  0.079246  -0.014558  3.970232  -0.009
C  C95  1  0.83747887  0.93298974  0.60108455  1  -0.035658  -0.014368  0.013837  0.082239  -0.014938  3.955969  -0.009
C  C96  1  0.76935835  0.63153961  0.97998443  1  -0.001194  0.002498  -0.073237  -0.139752  0.00059  3.918879  0.002
C  C97  1  0.22307463  0.01208275  0.36548873  1  0.006615  0.005778  -0.075004  -0.144519  0.002497  3.922254  0.005
C  C98  1  0.22222074  0.36428123  0.01169339  1  0.055204  0.005526  -0.074736  -0.143375  0.002458  3.921281  0.005
C  C99  1  0.77761337  0.99074998  0.63568391  1  0.004219  0.00596  -0.075079  -0.145334  0.002627  3.91878  0.005
C  C100  1  0.63990875  0.61779260  0.94175613  1  0.431791  -0.009969  0.04981  0.088028  -0.009956  3.899656  -0.006
C  C101  1  0.35159789  0.05081527  0.37762213  1  0.477899  -0.008968  0.052735  0.105404  -0.00937  3.924663  -0.005
C  C102  1  0.35092486  0.37613402  0.05027900  1  0.435951  -0.008241  0.054189  0.108217  -0.008652  3.921871  -0.005
C  C103  1  0.64919694  0.95061249  0.62416521  1  0.48519  -0.008369  0.053389  0.10539  -0.008753  3.917445  -0.005
C  C104  1  0.25699230  0.58705107  0.90675741  1  1.536917  -0.002214  0.203993  0.550836  -0.002911  4.165075  -0.002
C  C105  1  0.75468636  0.10263856  0.41502024  1  1.570181  -0.005341  0.197732  0.554513  -0.006539  4.199153  -0.006
C  C106  1  0.75381695  0.41325521  0.10145953  1  1.567442  -0.005597  0.197068  0.553358  -0.006821  4.197318  -0.006
C  C107  1  0.24819160  0.89938840  0.58945154  1  1.576184  -0.005061  0.198293  0.554618  -0.006279  4.192079  -0.005
C  C108  1  0.42263947  0.72411130  0.73371410  1  1.575157  -0.00069  0.202112  0.457913  -0.00221  4.191315  0.0
C  C109  1  0.57741992  0.26405245  0.26502822  1  1.598017  -0.001431  0.194846  0.465988  -0.002758  4.244228  -0.001
C  C110  1  0.37180593  0.64025486  0.64407474  1  1.555097  -0.004702  0.202539  0.472761  -0.005371  4.206473  -0.004
C  C111  1  0.62657186  0.35159561  0.35141070  1  1.544832  -0.004484  0.204995  0.477551  -0.006051  4.181037  -0.004
N  N112  1  0.31246836  0.77577747  0.41398255  1  -1.235601  0.0575  -0.331391  -0.249088  0.030983  3.600932  0.047
N  N113  1  0.68592994  0.58493435  0.22200950  1  -1.249456  0.059837  -0.335981  -0.250379  0.032421  3.614286  0.047
N  N114  1  0.68535521  0.22263768  0.58561343  1  -1.209301  0.057182  -0.336826  -0.250068  0.031751  3.618255  0.047
N  N115  1  0.32267731  0.42274383  0.78264930  1  -1.169031  -0.013231  -0.344371  -0.194444  -0.012343  3.666235  -0.008
N  N116  1  0.02273264  0.64802237  0.06144753  1  -1.157471  -0.008498  -0.302586  -0.324223  -0.008706  3.279295  -0.007
N  N117  1  0.97112642  0.93351029  0.35134471  1  -1.165457  -0.010903  -0.30317  -0.325754  -0.011201  3.293881  -0.008
N  N118  1  0.97040135  0.35144412  0.93319336  1  -1.169549  -0.011118  -0.304471  -0.328447  -0.011417  3.299397  -0.009
N  N119  1  0.03215456  0.07175153  0.64993632  1  -1.190018  -0.011397  -0.302843  -0.327281  -0.011676  3.280289  -0.009
N  N120  1  0.56505953  0.57076451  0.84899073  1  -1.185626  -0.002137  -0.341539  -0.197195  -0.002826  3.685381  -0.001
N  N121  1  0.42480072  0.14384402  0.42320803  1  -1.235367  0.064451  -0.342182  -0.253333  0.034828  3.651767  0.051
N  N122  1  0.42474697  0.42190365  0.14288416  1  -1.233551  0.064037  -0.340623  -0.250451  0.034551  3.648454  0.051
N  N123  1  0.57685777  0.85716133  0.57929196  1  -1.230532  0.063047  -0.337928  -0.250945  0.034096  3.632834  0.049
O  O124  1  0.21878868  0.56579374  0.81341485  1  -1.078248  -0.001954  -0.302447  -0.495413  -0.00272  2.22895  -0.002
O  O125  1  0.80655399  0.19460866  0.44126342  1  -1.157687  0.061638  -0.310969  -0.53742  0.031443  2.158996  0.053
O  O126  1  0.80650158  0.43965012  0.19306774  1  -1.152833  0.061435  -0.309723  -0.536483  0.031411  2.161539  0.053
O  O127  1  0.19383644  0.80767215  0.56148929  1  -1.14269  0.05995  -0.310966  -0.536729  0.030569  2.151906  0.052
O  O128  1  0.36701276  0.58991429  0.95921188  1  -1.149591  0.061151  -0.305947  -0.534142  0.031555  2.173307  0.052
O  O129  1  0.63867392  0.05785342  0.40828533  1  -1.140645  0.087831  -0.319987  -0.543527  0.045759  2.219247  0.073
O  O130  1  0.63709724  0.40591424  0.05696103  1  -1.139279  0.086852  -0.318507  -0.541732  0.045296  2.218958  0.072
O  O131  1  0.36562553  0.94193185  0.59837064  1  -1.146529  0.082495  -0.320973  -0.54527  0.042859  2.214334  0.068
O  O132  1  0.44300566  0.70031873  0.81691010  1  -1.073489  -0.006989  -0.296263  -0.441983  -0.007649  2.349662  -0.007
O  O133  1  0.55728972  0.18064596  0.28571285  1  -1.126057  0.078379  -0.311323  -0.500872  0.040077  2.286435  0.069
O  O134  1  0.55930302  0.28419521  0.18177417  1  -1.130842  0.079395  -0.312434  -0.501417  0.040771  2.288316  0.069
O  O135  1  0.44302939  0.80931850  0.71924832  1  -1.124139  0.055219  -0.296938  -0.48027  0.027947  2.258264  0.048
O  O136  1  0.35566804  0.55491863  0.65862918  1  -1.127461  0.084793  -0.298548  -0.490885  0.043781  2.297875  0.075
O  O137  1  0.64397169  0.33313873  0.43561704  1  -1.134693  0.103097  -0.309336  -0.502936  0.053822  2.335648  0.086
O  O138  1  0.64421533  0.43579976  0.33214273  1  -1.12974  0.101352  -0.306989  -0.501977  0.052805  2.337154  0.085
O  O139  1  0.35177769  0.66437081  0.56173472  1  -1.129572  0.092702  -0.31385  -0.509392  0.048195  2.343208  0.076
