# generated using pymatgen
data_Li4H18C14S2O19
_symmetry_space_group_name_H-M   'P 1'
_cell_length_a   8.32572868
_cell_length_b   10.66232519
_cell_length_c   14.06299846
_cell_angle_alpha   91.43650964
_cell_angle_beta   93.82272703
_cell_angle_gamma   66.96382529
_symmetry_Int_Tables_number   1
_chemical_formula_structural   Li4H18C14S2O19
_chemical_formula_sum   'Li8 H36 C28 S4 O38'
_cell_volume   1146.28891156
_cell_formula_units_Z   2
loop_
 _symmetry_equiv_pos_site_id
 _symmetry_equiv_pos_as_xyz
  1  'x, y, z'
loop_
 _atom_site_type_symbol
 _atom_site_label
 _atom_site_symmetry_multiplicity
 _atom_site_fract_x
 _atom_site_fract_y
 _atom_site_fract_z
 _atom_site_occupancy
 _atom_site_pbe_bader_charge
 _atom_site_pbe_bader_spin_density
 _atom_site_pbe_cm5_charge
 _atom_site_pbe_ddec_charge
 _atom_site_pbe_ddec_spin_density
 _atom_site_pbe_ddec_sum_bond_order
 _atom_site_pbe_magmom
Li  Li0  1  0.24757059  0.22090487  0.11659833  1  0.875098  0  0.50912  0.833774  0  0.461631  0
Li  Li1  1  0.53062233  0.22074994  0.38322144  1  0.875656  0  0.50943  0.834088  0  0.461471  0
Li  Li2  1  0.75242493  0.77909490  0.88339855  1  0.87509  0  0.509153  0.833805  0  0.461591  0
Li  Li3  1  0.46937252  0.77924474  0.61677969  1  0.875691  0  0.50944  0.834053  0  0.461504  0
Li  Li4  1  0.91276318  0.02039238  0.35673006  1  0.871347  0  0.508995  0.837204  0  0.463184  0
Li  Li5  1  0.06656602  0.02002450  0.14325596  1  0.869281  0  0.509422  0.837764  0  0.462655  0
Li  Li6  1  0.08723587  0.97960638  0.64326044  1  0.871383  0  0.508967  0.837205  0  0.463154  0
Li  Li7  1  0.93344507  0.97995998  0.85674882  1  0.869285  0  0.509423  0.837753  0  0.462651  0
H  H8  1  0.01548888  0.25972178  0.98314253  1  0.663757  0  0.302042  0.391243  0  0.940134  0
H  H9  1  0.72496154  0.25938144  0.51656028  1  0.659529  0  0.302728  0.391843  0  0.938817  0
H  H10  1  0.98450702  0.74027393  0.01684935  1  0.663676  0  0.302059  0.391247  0  0.940155  0
H  H11  1  0.27502790  0.74063973  0.48344802  1  0.659857  0  0.302849  0.392002  0  0.938513  0
H  H12  1  0.14159563  0.10711751  0.96497461  1  0.62454  0  0.320451  0.396269  0  0.919232  0
H  H13  1  0.75195674  0.10689329  0.53509749  1  0.618179  0  0.319973  0.395361  0  0.920602  0
H  H14  1  0.85840771  0.89287513  0.03502943  1  0.624539  0  0.320447  0.396264  0  0.919233  0
H  H15  1  0.24803885  0.89312483  0.46490872  1  0.618346  0  0.319992  0.395364  0  0.920634  0
H  H16  1  0.17077963  0.81859601  0.27963251  1  0.58989  0  0.344969  0.420271  0  0.864958  0
H  H17  1  0.00814483  0.81984189  0.21999464  1  0.614811  0  0.345165  0.420316  0  0.864788  0
H  H18  1  0.82920408  0.18137014  0.72037982  1  0.59007  0  0.34498  0.420271  0  0.864951  0
H  H19  1  0.99182011  0.18016604  0.78001484  1  0.615006  0  0.345202  0.420324  0  0.864838  0
H  H20  1  0.80760188  0.83243395  0.40232944  1  0.662352  0  0.30268  0.397396  0  0.933113  0
H  H21  1  0.36088667  0.83281517  0.09777419  1  0.666147  0  0.302648  0.397376  0  0.933011  0
H  H22  1  0.19238860  0.16757704  0.59767385  1  0.662313  0  0.302695  0.397488  0  0.932995  0
H  H23  1  0.63912417  0.16718052  0.90222351  1  0.66622  0  0.302643  0.397365  0  0.932992  0
H  H24  1  0.86707780  0.89540925  0.49425885  1  0.611036  0  0.302783  0.387339  0  0.953743  0
H  H25  1  0.23849789  0.89580085  0.00567939  1  0.607622  0  0.30257  0.386852  0  0.954388  0
H  H26  1  0.13291521  0.10460377  0.50574376  1  0.611104  0  0.302746  0.387307  0  0.953812  0
H  H27  1  0.76151790  0.10419178  0.99431620  1  0.607705  0  0.302583  0.386901  0  0.954328  0
H  H28  1  0.11719312  0.47287604  0.15222441  1  0.650212  0  0.306579  0.354962  0  0.967242  0
H  H29  1  0.40926927  0.47281487  0.34768513  1  0.65483  0  0.306249  0.354704  0  0.968205  0
H  H30  1  0.88282277  0.52712780  0.84778119  1  0.650225  0  0.306607  0.354869  0  0.967328  0
H  H31  1  0.59077144  0.52717062  0.65232061  1  0.649811  0  0.306178  0.35466  0  0.968282  0
H  H32  1  0.64667922  0.71563142  0.44227622  1  0.638723  0  0.30443  0.346153  0  0.997281  0
H  H33  1  0.63893973  0.71496945  0.05796984  1  0.636935  0  0.304225  0.345682  0  0.9978  0
H  H34  1  0.35331609  0.28437141  0.55772210  1  0.638586  0  0.304399  0.346141  0  0.997332  0
H  H35  1  0.36104492  0.28502830  0.94202837  1  0.636926  0  0.304228  0.345744  0  0.997711  0
H  H36  1  0.90682284  0.63954171  0.23732953  1  0.059558  0  0.111168  0.138404  0  0.998215  0
H  H37  1  0.45313764  0.63930962  0.26242165  1  0.064148  0  0.111348  0.138473  0  0.997681  0
H  H38  1  0.09320760  0.36046517  0.76268119  1  0.059699  0  0.111165  0.138411  0  0.998154  0
H  H39  1  0.54685395  0.36067692  0.73757800  1  0.064283  0  0.111353  0.138483  0  0.997774  0
H  H40  1  0.94002689  0.27666454  0.46080741  1  0.130315  0  0.11649  0.104408  0  1.077118  0
H  H41  1  0.78240615  0.27640990  0.03910441  1  0.12141  0  0.116318  0.104291  0  1.076689  0
H  H42  1  0.05998394  0.72333931  0.53919531  1  0.130198  0  0.116449  0.104398  0  1.077061  0
H  H43  1  0.21755577  0.72359602  0.96087371  1  0.121582  0  0.116329  0.104285  0  1.07685  0
C  C44  1  0.04167492  0.32189498  0.33560346  1  -0.146948  0  -0.033457  -0.260953  0  3.957287  0
C  C45  1  0.63505629  0.32186989  0.16412565  1  -0.197121  0  -0.033438  -0.262545  0  3.957154  0
C  C46  1  0.95834178  0.67811293  0.66440715  1  -0.146247  0  -0.033467  -0.261039  0  3.957255  0
C  C47  1  0.36492893  0.67812277  0.83586401  1  -0.197115  0  -0.033408  -0.262553  0  3.956933  0
C  C48  1  0.03310549  0.42564649  0.27137180  1  0.553652  0  0.111116  0.380895  0  4.047907  0
C  C49  1  0.54024944  0.42557446  0.22842339  1  0.56098  0  0.111135  0.381591  0  4.048667  0
C  C50  1  0.96691640  0.57436040  0.72863742  1  0.55367  0  0.111117  0.380769  0  4.047407  0
C  C51  1  0.45975574  0.57441308  0.77157281  1  0.560612  0  0.111244  0.3818  0  4.048665  0
C  C52  1  0.91919896  0.55968377  0.28758571  1  0.057731  0  -0.121356  -0.352713  0  3.950048  0
C  C53  1  0.52068865  0.55945026  0.21224376  1  0.005996  0  -0.121685  -0.353588  0  3.950729  0
C  C54  1  0.08082654  0.44032312  0.71242354  1  0.057832  0  -0.121356  -0.352588  0  3.949922  0
C  C55  1  0.47930602  0.44053933  0.78775379  1  0.006241  0  -0.12173  -0.353647  0  3.95108  0
C  C56  1  0.81282738  0.59221167  0.36465940  1  0.479047  0  0.096626  0.344803  0  4.061392  0
C  C57  1  0.59505545  0.59180936  0.13531335  1  0.573535  0  0.09673  0.345272  0  4.059153  0
C  C58  1  0.18718533  0.40779624  0.63534690  1  0.47824  0  0.096658  0.344803  0  4.061227  0
C  C59  1  0.40492876  0.40818635  0.86468200  1  0.575482  0  0.09674  0.345239  0  4.059475  0
C  C60  1  0.81794768  0.48838384  0.42790057  1  0.042648  0  -0.047523  -0.217536  0  4.010288  0
C  C61  1  0.69352215  0.48800470  0.07205842  1  0.002047  0  -0.047332  -0.217632  0  4.010354  0
C  C62  1  0.18207176  0.51161796  0.57210648  1  0.042654  0  -0.04747  -0.217459  0  4.010091  0
C  C63  1  0.30645729  0.51199509  0.92793335  1  -0.000667  0  -0.047424  -0.217652  0  4.010462  0
C  C64  1  0.93413144  0.35540223  0.41159723  1  -0.03036  0  -0.071507  -0.054124  0  4.022857  0
C  C65  1  0.70954683  0.35520137  0.08822579  1  0.013744  0  -0.0712  -0.052416  0  4.022423  0
C  C66  1  0.06587651  0.64460773  0.58840762  1  -0.03088  0  -0.071444  -0.054053  0  4.022701  0
C  C67  1  0.29042470  0.64479639  0.91176021  1  0.013859  0  -0.071217  -0.052478  0  4.022462  0
C  C68  1  0.70602264  0.52353080  0.50995529  1  1.535333  0  0.218425  0.613392  0  4.152971  0
C  C69  1  0.77088653  0.52309870  0.99020205  1  1.524194  0  0.218977  0.613106  0  4.152699  0
C  C70  1  0.29399369  0.47647202  0.49004960  1  1.535718  0  0.218534  0.613441  0  4.153055  0
C  C71  1  0.22908852  0.47690517  0.00979041  1  1.525002  0  0.218879  0.612971  0  4.153202  0
S  S72  1  0.18746225  0.15051750  0.32236816  1  3.167902  0  0.563963  1.287457  0  6.10186  0
S  S73  1  0.66082011  0.15054143  0.17755405  1  3.189716  0  0.56433  1.288385  0  6.099987  0
S  S74  1  0.81253535  0.84948534  0.67762875  1  3.16796  0  0.563936  1.287455  0  6.101739  0
S  S75  1  0.33917842  0.84944613  0.82243498  1  3.189279  0  0.564317  1.288559  0  6.099895  0
O  O76  1  0.12063892  0.06838168  0.38093519  1  -1.363196  0  -0.378193  -0.700633  0  2.252302  0
O  O77  1  0.81025606  0.06837547  0.11932400  1  -1.370196  0  -0.37838  -0.70143  0  2.251528  0
O  O78  1  0.87934903  0.93162626  0.61906308  1  -1.363241  0  -0.378182  -0.700636  0  2.252332  0
O  O79  1  0.18975417  0.93161615  0.88067083  1  -1.370322  0  -0.378414  -0.701416  0  2.251577  0
O  O80  1  0.09049421  0.17269080  0.01537232  1  -1.305429  0  -0.607552  -0.830891  0  2.009985  0
O  O81  1  0.73677145  0.17246227  0.48449853  1  -1.29483  0  -0.606661  -0.829305  0  2.011065  0
O  O82  1  0.90950275  0.82731101  0.98462529  1  -1.305325  0  -0.607583  -0.830924  0  2.009945  0
O  O83  1  0.26321051  0.82756400  0.51550831  1  -1.295347  0  -0.606809  -0.829403  0  2.010896  0
O  O84  1  0.17342229  0.11909665  0.22024779  1  -1.37413  0  -0.428346  -0.742225  0  2.291441  0
O  O85  1  0.70611308  0.11908480  0.27973806  1  -1.375096  0  -0.428581  -0.742661  0  2.29273  0
O  O86  1  0.82655070  0.88091944  0.77974968  1  -1.374065  0  -0.428314  -0.742214  0  2.291431  0
O  O87  1  0.29387714  0.88090786  0.72025377  1  -1.374851  0  -0.428521  -0.742748  0  2.292715  0
O  O88  1  0.05971992  0.87985718  0.24976438  1  -1.190977  0  -0.594946  -0.819602  0  2.036532  0
O  O89  1  0.94028414  0.12012935  0.75024035  1  -1.191388  0  -0.595012  -0.819618  0  2.036554  0
O  O90  1  0.36333170  0.13359500  0.35663344  1  -1.349637  0  -0.366481  -0.636958  0  2.195234  0
O  O91  1  0.50198897  0.13357007  0.14315794  1  -1.34767  0  -0.367255  -0.637022  0  2.193895  0
O  O92  1  0.63667690  0.86638949  0.64335708  1  -1.349652  0  -0.366542  -0.63699  0  2.195159  0
O  O93  1  0.49801665  0.86641138  0.85682257  1  -1.347495  0  -0.367305  -0.637143  0  2.193923  0
O  O94  1  0.87707182  0.88557810  0.42501383  1  -1.301745  0  -0.675382  -0.86579  0  1.986118  0
O  O95  1  0.23828545  0.88623343  0.07496435  1  -1.301072  0  -0.674874  -0.865188  0  1.985118  0
O  O96  1  0.12291941  0.11443594  0.57498806  1  -1.301779  0  -0.675354  -0.865834  0  1.986089  0
O  O97  1  0.76172814  0.11377347  0.92503270  1  -1.301209  0  -0.674855  -0.865187  0  1.98503  0
O  O98  1  0.13272639  0.39267536  0.19583859  1  -1.200386  0  -0.374027  -0.519263  0  2.454296  0
O  O99  1  0.47347562  0.39267488  0.30393761  1  -1.206061  0  -0.374167  -0.519426  0  2.455495  0
O  O100  1  0.86730602  0.60733050  0.80417498  1  -1.200272  0  -0.374111  -0.519183  0  2.454164  0
O  O101  1  0.52653868  0.60731266  0.69606650  1  -1.200861  0  -0.37407  -0.519423  0  2.455653  0
O  O102  1  0.70319502  0.72278362  0.37775781  1  -1.173679  0  -0.33303  -0.453768  0  2.299338  0
O  O103  1  0.57512894  0.72217410  0.12245171  1  -1.169681  0  -0.332805  -0.453357  0  2.297586  0
O  O104  1  0.29681511  0.27721921  0.62224490  1  -1.173578  0  -0.333054  -0.453833  0  2.299121  0
O  O105  1  0.42486413  0.27782160  0.87754870  1  -1.169764  0  -0.33276  -0.453341  0  2.297775  0
O  O106  1  0.61638606  0.65192024  0.52185225  1  -1.194915  0  -0.374001  -0.629393  0  2.336706  0
O  O107  1  0.73278637  0.65141157  0.97844172  1  -1.194263  0  -0.373692  -0.629018  0  2.337075  0
O  O108  1  0.38359444  0.34808260  0.47814168  1  -1.195202  0  -0.373976  -0.629464  0  2.336817  0
O  O109  1  0.26719223  0.34859331  0.02155576  1  -1.194409  0  -0.373713  -0.629055  0  2.337305  0
O  O110  1  0.69963104  0.43335284  0.56601498  1  -1.190391  0  -0.312599  -0.560894  0  2.149141  0
O  O111  1  0.86735072  0.43297467  0.93413611  1  -1.194053  0  -0.312595  -0.560633  0  2.150887  0
O  O112  1  0.30041415  0.56665709  0.43400299  1  -1.190208  0  -0.312725  -0.561027  0  2.149279  0
O  O113  1  0.13262755  0.56703225  0.06585567  1  -1.194325  0  -0.312515  -0.560578  0  2.151022  0
