# generated using pymatgen
data_DyH9C5(NO4)2
_symmetry_space_group_name_H-M   'P 1'
_cell_length_a   6.56116857
_cell_length_b   6.70187772
_cell_length_c   6.70182647
_cell_angle_alpha   64.23885868
_cell_angle_beta   73.12000248
_cell_angle_gamma   73.12046716
_symmetry_Int_Tables_number   1
_chemical_formula_structural   DyH9C5(NO4)2
_chemical_formula_sum   'Dy1 H9 C5 N2 O8'
_cell_volume   249.32015102
_cell_formula_units_Z   1
loop_
 _symmetry_equiv_pos_site_id
 _symmetry_equiv_pos_as_xyz
  1  'x, y, z'
loop_
 _atom_site_type_symbol
 _atom_site_label
 _atom_site_symmetry_multiplicity
 _atom_site_fract_x
 _atom_site_fract_y
 _atom_site_fract_z
 _atom_site_occupancy
 _atom_site_hle17_bader_spin_density
 _atom_site_hle17_ddec_charge
 _atom_site_hle17_ddec_spin_density
 _atom_site_hle17_ddec_sum_bond_order
 _atom_site_hle17_magmom
 _atom_site_hse06_10hf_bader_spin_density
 _atom_site_hse06_10hf_ddec_charge
 _atom_site_hse06_10hf_ddec_spin_density
 _atom_site_hse06_10hf_ddec_sum_bond_order
 _atom_site_hse06_10hf_magmom
 _atom_site_hse06_bader_spin_density
 _atom_site_hse06_ddec_charge
 _atom_site_hse06_ddec_spin_density
 _atom_site_hse06_ddec_sum_bond_order
 _atom_site_hse06_magmom
 _atom_site_pbe_bader_spin_density
 _atom_site_pbe_cm5_charge
 _atom_site_pbe_ddec_charge
 _atom_site_pbe_ddec_spin_density
 _atom_site_pbe_ddec_sum_bond_order
 _atom_site_pbe_magmom
Dy  Dy0  1  0.00000060  0.99448551  0.00550801  1  0  2.140203  0  1.820591  0  0  2.064473  0  2.145977  0  0  2.199421  0  1.944949  0  0  1.483778  2.028734  0  2.174708  0
H  H1  1  0.13001322  0.85190483  0.52801885  1  0  0.004271  0  0.937604  0  0  0.011839  0  1.013376  0  0  0.012966  0  1.007983  0  0  0.114345  0.01078  0  1.017528  0
H  H2  1  0.86997833  0.47196615  0.14809629  1  0  0.004311  0  0.937542  0  0  0.01189  0  1.013312  0  0  0.013014  0  1.007919  0  0  0.114419  0.010812  0  1.017486  0
H  H3  1  0.50000409  0.07718148  0.92281482  1  0  0.022735  0  0.961066  0  0  0.028673  0  1.032963  0  0  0.029591  0  1.028013  0  0  0.120854  0.027649  0  1.03712  0
H  H4  1  0.17693667  0.44556149  0.53555960  1  0  0.015507  0  0.923753  0  0  0.02357  0  0.999025  0  0  0.024709  0  0.994354  0  0  0.127795  0.022458  0  1.002865  0
H  H5  1  0.82306187  0.46442587  0.55445152  1  0  0.015388  0  0.923849  0  0  0.023446  0  0.99914  0  0  0.024581  0  0.994473  0  0  0.127767  0.022337  0  1.002977  0
H  H6  1  0.59965073  0.19980201  0.36399194  1  0  0.35489  0  0.886629  0  0  0.332836  0  0.951777  0  0  0.342508  0  0.943378  0  0  0.311067  0.326006  0  0.957767  0
H  H7  1  0.40034625  0.63600266  0.80021298  1  0  0.354903  0  0.886597  0  0  0.332815  0  0.951786  0  0  0.342494  0  0.943393  0  0  0.311011  0.325984  0  0.957779  0
H  H8  1  0.47150251  0.49129614  0.26361179  1  0  0.343456  0  0.891555  0  0  0.322126  0  0.958088  0  0  0.3307  0  0.950644  0  0  0.310786  0.316279  0  0.962764  0
H  H9  1  0.52851298  0.73638721  0.50870588  1  0  0.343449  0  0.891533  0  0  0.322101  0  0.958109  0  0  0.330678  0  0.950661  0  0  0.31076  0.316256  0  0.962775  0
C  C10  1  0.96099711  0.94809368  0.53291905  1  0  0.63449  0  3.87712  0  0  0.563206  0  4.192039  0  0  0.597512  0  4.187712  0  0  0.158913  0.540363  0  4.198273  0
C  C11  1  0.03899314  0.46706860  0.05191566  1  0  0.634437  0  3.877216  0  0  0.563111  0  4.192183  0  0  0.597419  0  4.187858  0  0  0.158715  0.540285  0  4.198408  0
C  C12  1  0.49999999  0.92303580  0.07697029  1  0  0.63168  0  3.837838  0  0  0.559641  0  4.150457  0  0  0.595469  0  4.143406  0  0  0.154781  0.53536  0  4.15944  0
C  C13  1  0.29650972  0.29128478  0.53460656  1  0  0.578944  0  3.81342  0  0  0.506496  0  4.115637  0  0  0.536668  0  4.115848  0  0  0.193303  0.486293  0  4.117263  0
C  C14  1  0.70350615  0.46536499  0.70874167  1  0  0.579265  0  3.813036  0  0  0.506836  0  4.115203  0  0  0.537013  0  4.115406  0  0  0.193448  0.486625  0  4.116842  0
N  N15  1  0.46937719  0.32795899  0.37346207  1  0  -0.602655  0  3.12031  0  0  -0.561637  0  3.365829  0  0  -0.58266  0  3.356795  0  0  -0.547244  -0.546721  0  3.370208  0
N  N16  1  0.53062858  0.62653993  0.67204806  1  0  -0.603015  0  3.11968  0  0  -0.561952  0  3.365182  0  0  -0.582998  0  3.35615  0  0  -0.547367  -0.547035  0  3.369568  0
O  O17  1  0.86884409  0.00981347  0.69479029  1  0  -0.670949  0  2.119391  0  0  -0.62158  0  2.371236  0  0  -0.659014  0  2.361651  0  0  -0.371805  -0.602589  0  2.374353  0
O  O18  1  0.13115113  0.30520339  0.99019429  1  0  -0.670864  0  2.119381  0  0  -0.621467  0  2.371209  0  0  -0.658902  0  2.361629  0  0  -0.371698  -0.602478  0  2.374319  0
O  O19  1  0.87313733  0.98898566  0.36858186  1  0  -0.710855  0  2.120324  0  0  -0.659369  0  2.379448  0  0  -0.698441  0  2.366084  0  0  -0.408057  -0.64078  0  2.385565  0
O  O20  1  0.12684535  0.63141481  0.01101924  1  0  -0.710903  0  2.120327  0  0  -0.659372  0  2.379439  0  0  -0.698446  0  2.366081  0  0  -0.408023  -0.640783  0  2.385553  0
O  O21  1  0.33237917  0.83315344  0.15517690  1  0  -0.691005  0  2.06266  0  0  -0.641007  0  2.319221  0  0  -0.677846  0  2.305404  0  0  -0.382343  -0.622637  0  2.326476  0
O  O22  1  0.66762368  0.84481111  0.16684447  1  0  -0.690981  0  2.062739  0  0  -0.640967  0  2.319295  0  0  -0.677807  0  2.30548  0  0  -0.382349  -0.62261  0  2.326572  0
O  O23  1  0.26410498  0.09966039  0.67809546  1  0  -0.653402  0  2.100149  0  0  -0.602887  0  2.356594  0  0  -0.639352  0  2.346105  0  0  -0.38645  -0.585325  0  2.361017  0
O  O24  1  0.73589247  0.32190580  0.90035140  1  0  -0.653298  0  2.10043  0  0  -0.60282  0  2.356903  0  0  -0.639276  0  2.3464  0  0  -0.386405  -0.585263  0  2.36133  0
