# generated using pymatgen
data_Zn2H18C37(NO3)6
_symmetry_space_group_name_H-M   'P 1'
_cell_length_a   9.72469000
_cell_length_b   11.12085173
_cell_length_c   23.84648176
_cell_angle_alpha   89.38240297
_cell_angle_beta   90.07006072
_cell_angle_gamma   91.76179126
_symmetry_Int_Tables_number   1
_chemical_formula_structural   Zn2H18C37(NO3)6
_chemical_formula_sum   'Zn2 H18 C37 N6 O18'
_cell_volume   2577.55167587
_cell_formula_units_Z   1
loop_
 _symmetry_equiv_pos_site_id
 _symmetry_equiv_pos_as_xyz
  1  'x, y, z'
loop_
 _atom_site_type_symbol
 _atom_site_label
 _atom_site_symmetry_multiplicity
 _atom_site_fract_x
 _atom_site_fract_y
 _atom_site_fract_z
 _atom_site_occupancy
 _atom_site_pbe_bader_charge
 _atom_site_pbe_bader_spin_density
 _atom_site_pbe_cm5_charge
 _atom_site_pbe_ddec_charge
 _atom_site_pbe_ddec_spin_density
 _atom_site_pbe_ddec_sum_bond_order
 _atom_site_pbe_magmom
Zn  Zn0  1  0.36049434  0.49565565  0.50170875  1  1.282379  0  0.664381  0.844361  0  2.447061  0
Zn  Zn1  1  0.64323445  0.50478577  0.50205525  1  1.278339  0  0.666163  0.847765  0  2.44464  0
H  H2  1  0.62121013  0.78928976  0.05334587  1  0.136072  0  0.12051  0.124869  0  0.974834  0
H  H3  1  0.61958831  0.79208209  0.94716795  1  0.088948  0  0.120586  0.12633  0  0.974188  0
H  H4  1  0.39376494  0.21410108  0.94696461  1  0.125767  0  0.121158  0.127313  0  0.974155  0
H  H5  1  0.39730469  0.21030854  0.05316501  1  0.140206  0  0.120318  0.124843  0  0.975051  0
H  H6  1  0.71531700  0.47160066  0.78594327  1  0.035243  0  0.111207  0.117722  0  0.978376  0
H  H7  1  0.71387286  0.47283321  0.68040646  1  0.124328  0  0.111538  0.114676  0  0.986978  0
H  H8  1  0.28315773  0.54176897  0.68157991  1  0.134215  0  0.11207  0.121903  0  1.003278  0
H  H9  1  0.35316341  0.63401386  0.21327451  1  0.106109  0  0.130666  0.155018  0  0.95527  0
H  H10  1  0.66025660  0.36088415  0.21841126  1  0.13288  0  0.130669  0.151883  0  0.956895  0
H  H11  1  0.71173244  0.11371370  0.48353620  1  0.091496  0  0.106075  0.101829  0  0.987356  0
H  H12  1  0.40684160  0.09436911  0.51816530  1  0.078613  0  0.108274  0.125181  0  0.988958  0
H  H13  1  0.71078057  0.89317810  0.50272966  1  0.101897  0  0.106634  0.104647  0  0.98621  0
H  H14  1  0.39945487  0.89925327  0.47953522  1  0.095039  0  0.110238  0.128988  0  0.982398  0
H  H15  1  0.12407256  0.41549248  0.42269428  1  0.174003  0  0.15095  0.127586  0  0.931912  0
H  H16  1  0.09933156  0.50535703  0.53716043  1  0.408757  0  0.320053  0.283632  0  0.910494  0
H  H17  1  0.86548579  0.36651786  0.44240534  1  0.17102  0  0.147533  0.121275  0  0.944037  0
H  H18  1  0.90991548  0.57901833  0.51248333  1  0.428425  0  0.321484  0.285023  0  0.909499  0
H  H19  1  0.05890887  0.57537196  0.78436795  1  0.615336  0  0.345162  0.381143  0  0.855942  0
C  C20  1  0.50572591  0.73194248  0.49502390  1  1.536827  0  0.209994  0.636788  0  4.175806  0
C  C21  1  0.49581533  0.50526672  0.61194680  1  1.618215  0  0.217118  0.596265  0  4.175088  0
C  C22  1  0.51188970  0.26765357  0.50334757  1  1.530379  0  0.208956  0.639002  0  4.171534  0
C  C23  1  0.49137385  0.49477119  0.39071913  1  1.656087  0  0.210473  0.59335  0  4.260239  0
C  C24  1  0.46891405  0.38909448  0.12130231  1  1.339931  0  0.245528  0.440924  0  4.093002  0
C  C25  1  0.55166452  0.60662483  0.12135925  1  1.328529  0  0.245869  0.441966  0  4.090226  0
C  C26  1  0.55034565  0.60586648  0.05929711  1  -0.061783  0  -0.004716  -0.065262  0  3.991085  0
C  C27  1  0.50888251  0.50045985  0.03020684  1  0.062604  0  0.006123  0.033249  0  4.000049  0
C  C28  1  0.46859599  0.39333612  0.05923789  1  -0.062825  0  -0.004936  -0.064739  0  3.991447  0
C  C29  1  0.58985928  0.70968019  0.02972128  1  0.104905  0  -0.058891  -0.064021  0  3.925559  0
C  C30  1  0.58897653  0.71124226  0.97082966  1  -0.023707  0  -0.058976  -0.066873  0  3.923545  0
C  C31  1  0.54852778  0.60906936  0.94132013  1  -0.011419  0  0.004737  -0.045551  0  3.957806  0
C  C32  1  0.50772161  0.50220786  0.97044054  1  -0.073005  0  0.008184  0.033295  0  3.984546  0
C  C33  1  0.46544742  0.39715110  0.94129403  1  -0.110482  0  0.003655  -0.04412  0  3.959965  0
C  C34  1  0.42603778  0.29327068  0.97071229  1  0.093603  0  -0.058518  -0.068203  0  3.923419  0
C  C35  1  0.42781741  0.29128337  0.02959907  1  -0.125119  0  -0.058974  -0.064168  0  3.926532  0
C  C36  1  0.54798169  0.61264263  0.87908373  1  1.375564  0  0.248367  0.451328  0  4.089906  0
C  C37  1  0.46223190  0.39752475  0.87912103  1  1.395011  0  0.248193  0.450349  0  4.094072  0
C  C38  1  0.62129569  0.48791996  0.76251845  1  -0.016245  0  -0.079183  -0.152379  0  3.974011  0
C  C39  1  0.62053963  0.48816656  0.70416213  1  0.066359  0  -0.063443  -0.048747  0  3.935893  0
C  C40  1  0.49801120  0.50717251  0.67501072  1  -0.072861  0  -0.008548  -0.025827  0  3.944442  0
C  C41  1  0.37748738  0.52697060  0.70483420  1  0.085248  0  -0.062544  -0.07397  0  3.892601  0
C  C42  1  0.37677660  0.52842478  0.76360572  1  -0.027848  0  -0.005894  -0.102652  0  3.921789  0
C  C43  1  0.50103205  0.50786547  0.79206554  1  0.300912  0  0.108828  0.199738  0  3.967859  0
C  C44  1  0.41867486  0.57312931  0.23629953  1  0.074147  0  -0.059111  -0.176706  0  3.901283  0
C  C45  1  0.41772016  0.57293479  0.29459815  1  0.273537  0  0.091865  0.078885  0  3.903816  0
C  C46  1  0.49617037  0.49539189  0.32726195  1  0.095011  0  0.016611  -0.080922  0  3.880187  0
C  C47  1  0.58122072  0.41964949  0.29736632  1  0.260263  0  0.091663  0.080941  0  3.896074  0
C  C48  1  0.59027596  0.42052676  0.23914750  1  0.056295  0  -0.058051  -0.172438  0  3.897017  0
C  C49  1  0.50644903  0.49682046  0.20868832  1  0.33585  0  0.102123  0.22125  0  4.010289  0
C  C50  1  0.61438812  0.06700875  0.49392377  1  0.063956  0  -0.069646  -0.018167  0  3.985885  0
C  C51  1  0.50584533  0.13491711  0.50570910  1  -0.082431  0  -0.088131  -0.219443  0  3.876446  0
C  C52  1  0.61267404  0.93666166  0.49592352  1  -0.04734  0  -0.070494  -0.026294  0  3.987392  0
C  C53  1  0.50016529  0.86412601  0.48952242  1  -0.066895  0  -0.086967  -0.215549  0  3.869674  0
C  C54  1  0.07403651  0.44483644  0.46118048  1  0.673493  0  0.133878  0.181867  0  3.815395  0
C  C55  1  0.92182071  0.43772515  0.46513187  1  0.711041  0  0.132641  0.183359  0  3.821444  0
C  C56  1  0.24791772  0.55201432  0.79459183  1  1.458219  0  0.232626  0.588368  0  4.099411  0
N  N57  1  0.50980528  0.49731181  0.14849128  1  -1.189914  0  -0.230005  -0.22689  0  3.558105  0
N  N58  1  0.50794979  0.50490741  0.85242966  1  -1.151086  0  -0.232672  -0.234018  0  3.623609  0
N  N59  1  0.15059991  0.48266192  0.50128108  1  -1.151789  0  -0.429008  -0.368769  0  3.256118  0
N  N60  1  0.85278250  0.51098297  0.49397066  1  -1.165279  0  -0.42981  -0.371723  0  3.251934  0
N  N61  1  0.33209306  0.66320549  0.32183541  1  0.397858  0  0.060999  0.515137  0  4.214019  0
N  N62  1  0.66607658  0.33258718  0.32806792  1  0.395059  0  0.061188  0.514866  0  4.214094  0
O  O63  1  0.39068301  0.67406328  0.49020213  1  -1.147629  0  -0.322961  -0.550794  0  2.308831  0
O  O64  1  0.62176561  0.68480617  0.50446250  1  -1.161235  0  -0.32758  -0.559084  0  2.302137  0
O  O65  1  0.37979314  0.51659168  0.58807036  1  -1.171054  0  -0.321524  -0.549997  0  2.283869  0
O  O66  1  0.61081781  0.49177480  0.58760928  1  -1.172292  0  -0.321075  -0.555372  0  2.303979  0
O  O67  1  0.39664486  0.31834039  0.50981214  1  -1.156533  0  -0.326709  -0.558424  0  2.291107  0
O  O68  1  0.62774775  0.32247308  0.49569472  1  -1.157581  0  -0.322881  -0.564473  0  2.323859  0
O  O69  1  0.37460697  0.47468046  0.41279254  1  -1.156136  0  -0.31062  -0.543576  0  2.286265  0
O  O70  1  0.60578774  0.51470761  0.41456161  1  -1.148185  0  -0.310073  -0.542286  0  2.312933  0
O  O71  1  0.43553393  0.29877653  0.14869451  1  -1.096056  0  -0.270708  -0.426356  0  2.067897  0
O  O72  1  0.58628536  0.69521748  0.14885094  1  -1.0912  0  -0.269944  -0.425219  0  2.066675  0
O  O73  1  0.58085903  0.70300529  0.85157506  1  -1.097187  0  -0.275732  -0.433708  0  2.050265  0
O  O74  1  0.42344641  0.31014525  0.85160017  1  -1.093703  0  -0.273743  -0.43059  0  2.05277  0
O  O75  1  0.38416510  0.71947708  0.36128136  1  -0.422334  0  -0.109162  -0.293016  0  1.918063  0
O  O76  1  0.21572049  0.67728189  0.30200001  1  -0.441439  0  -0.142464  -0.339884  0  1.848199  0
O  O77  1  0.60977837  0.27215700  0.36577822  1  -0.424285  0  -0.109824  -0.297369  0  1.920828  0
O  O78  1  0.78780608  0.32598782  0.31314394  1  -0.446254  0  -0.143795  -0.344985  0  1.850088  0
O  O79  1  0.23722067  0.56662830  0.84521258  1  -1.110948  0  -0.299354  -0.497315  0  2.076095  0
O  O80  1  0.13613817  0.55709337  0.75988470  1  -1.103897  0  -0.338621  -0.487039  0  2.206117  0
