# generated using pymatgen
data_CdH16C17N2O5
_symmetry_space_group_name_H-M   'P 1'
_cell_length_a   8.21213260
_cell_length_b   8.39538971
_cell_length_c   12.24180608
_cell_angle_alpha   101.35836412
_cell_angle_beta   99.58738853
_cell_angle_gamma   101.15447437
_symmetry_Int_Tables_number   1
_chemical_formula_structural   CdH16C17N2O5
_chemical_formula_sum   'Cd2 H32 C34 N4 O10'
_cell_volume   793.25074643
_cell_formula_units_Z   2
loop_
 _symmetry_equiv_pos_site_id
 _symmetry_equiv_pos_as_xyz
  1  'x, y, z'
loop_
 _atom_site_type_symbol
 _atom_site_label
 _atom_site_symmetry_multiplicity
 _atom_site_fract_x
 _atom_site_fract_y
 _atom_site_fract_z
 _atom_site_occupancy
 _atom_site_hle17_bader_spin_density
 _atom_site_hle17_ddec_charge
 _atom_site_hle17_ddec_spin_density
 _atom_site_hle17_ddec_sum_bond_order
 _atom_site_hle17_magmom
 _atom_site_hse06_10hf_bader_spin_density
 _atom_site_hse06_10hf_ddec_charge
 _atom_site_hse06_10hf_ddec_spin_density
 _atom_site_hse06_10hf_ddec_sum_bond_order
 _atom_site_hse06_10hf_magmom
 _atom_site_hse06_bader_spin_density
 _atom_site_hse06_ddec_charge
 _atom_site_hse06_ddec_spin_density
 _atom_site_hse06_ddec_sum_bond_order
 _atom_site_hse06_magmom
 _atom_site_pbe_bader_spin_density
 _atom_site_pbe_cm5_charge
 _atom_site_pbe_ddec_charge
 _atom_site_pbe_ddec_spin_density
 _atom_site_pbe_ddec_sum_bond_order
 _atom_site_pbe_magmom
Cd  Cd0  1  0.86999698  0.87166134  0.78260829  1  0  1.102869  0  1.660675  0  0  0.908572  0  2.100435  0  0  0.969707  0  2.047337  0  0  0.753212  0.865326  0  2.136611  0
Cd  Cd1  1  0.13000166  0.12833962  0.21739103  1  0  1.102901  0  1.660636  0  0  0.908614  0  2.100399  0  0  0.969747  0  2.047304  0  0  0.75322  0.865369  0  2.136572  0
H  H2  1  0.53876783  0.18586365  0.99605236  1  0  0.098227  0  0.943268  0  0  0.113713  0  1.00284  0  0  0.115673  0  1.002386  0  0  0.0935  0.112281  0  1.003302  0
H  H3  1  0.46123453  0.81413734  0.00394818  1  0  0.098233  0  0.943277  0  0  0.113703  0  1.002859  0  0  0.115664  0  1.002405  0  0  0.093494  0.112268  0  1.003319  0
H  H4  1  0.40222683  0.10277379  0.86217030  1  0  0.101902  0  0.944065  0  0  0.118715  0  1.005068  0  0  0.120716  0  1.004392  0  0  0.09892  0.117276  0  1.0057  0
H  H5  1  0.59777115  0.89722966  0.13782928  1  0  0.101875  0  0.94415  0  0  0.118712  0  1.005113  0  0  0.120713  0  1.004435  0  0  0.098915  0.117272  0  1.005743  0
H  H6  1  0.61786918  0.93915327  0.56690252  1  0  0.085814  0  0.948104  0  0  0.094757  0  1.0125  0  0  0.097535  0  1.009895  0  0  0.116234  0.092703  0  1.014395  0
H  H7  1  0.38213108  0.06084396  0.43309730  1  0  0.085844  0  0.948102  0  0  0.094804  0  1.012481  0  0  0.097564  0  1.009905  0  0  0.116243  0.09275  0  1.014377  0
H  H8  1  0.05300656  0.67912573  0.26899008  1  0  0.108677  0  0.930733  0  0  0.124076  0  0.982826  0  0  0.126283  0  0.982661  0  0  0.111896  0.122419  0  0.98309  0
H  H9  1  0.94699666  0.32087900  0.73101023  1  0  0.10869  0  0.930745  0  0  0.124078  0  0.98285  0  0  0.126285  0  0.982685  0  0  0.111896  0.122423  0  0.983113  0
H  H10  1  0.45395782  0.63761776  0.78858577  1  0  0.119263  0  0.972175  0  0  0.126131  0  1.034984  0  0  0.129593  0  1.033997  0  0  0.108597  0.123571  0  1.035921  0
H  H11  1  0.54604090  0.36237822  0.21141372  1  0  0.119252  0  0.972195  0  0  0.126124  0  1.034998  0  0  0.129586  0  1.03401  0  0  0.108617  0.123566  0  1.035935  0
H  H12  1  0.79869339  0.80248372  0.25660207  1  0  0.110889  0  0.956051  0  0  0.122191  0  1.016645  0  0  0.125096  0  1.014225  0  0  0.109445  0.119999  0  1.018475  0
H  H13  1  0.20131078  0.19751978  0.74339900  1  0  0.110932  0  0.955993  0  0  0.122222  0  1.016596  0  0  0.125127  0  1.014177  0  0  0.109448  0.120028  0  1.018426  0
H  H14  1  0.22045496  0.74980055  0.86849004  1  0  0.087342  0  0.950752  0  0  0.093025  0  1.019605  0  0  0.095668  0  1.017127  0  0  0.11851  0.091055  0  1.02143  0
H  H15  1  0.77954376  0.25019543  0.13150945  1  0  0.087317  0  0.950759  0  0  0.092971  0  1.019655  0  0  0.095614  0  1.017177  0  0  0.118497  0.091002  0  1.021478  0
H  H16  1  0.58396500  0.91488677  0.35480850  1  0  0.115151  0  0.961698  0  0  0.12298  0  1.024668  0  0  0.126889  0  1.022898  0  0  0.107637  0.12013  0  1.026096  0
H  H17  1  0.41603613  0.08511422  0.64519273  1  0  0.11514  0  0.961717  0  0  0.122966  0  1.024686  0  0  0.126875  0  1.022917  0  0  0.10764  0.120116  0  1.026114  0
H  H18  1  0.28280220  0.59559682  0.38434429  1  0  0.113011  0  0.952034  0  0  0.121839  0  1.015165  0  0  0.125361  0  1.013231  0  0  0.106112  0.119267  0  1.016637  0
H  H19  1  0.71719711  0.40440165  0.61565559  1  0  0.113001  0  0.95204  0  0  0.121831  0  1.015164  0  0  0.125354  0  1.013232  0  0  0.10611  0.11926  0  1.016636  0
H  H20  1  0.43849980  0.58674077  0.58052661  1  0  0.098841  0  0.926982  0  0  0.112593  0  0.983591  0  0  0.115356  0  0.981711  0  0  0.110251  0.1105  0  0.985101  0
H  H21  1  0.56149828  0.41325770  0.41947395  1  0  0.098833  0  0.927016  0  0  0.112588  0  0.983623  0  0  0.115352  0  0.981742  0  0  0.110261  0.110497  0  0.985132  0
H  H22  1  0.06363366  0.17481392  0.94465985  1  0  0.425486  0  0.879835  0  0  0.393998  0  0.944534  0  0  0.405053  0  0.928699  0  0  0.288716  0.386174  0  0.955716  0
H  H23  1  0.93636592  0.82518580  0.05533858  1  0  0.425458  0  0.879873  0  0  0.393971  0  0.944573  0  0  0.405026  0  0.928737  0  0  0.288697  0.386147  0  0.955755  0
H  H24  1  0.17129815  0.04427772  0.93847954  1  0  0.43291  0  0.86738  0  0  0.40214  0  0.932055  0  0  0.412965  0  0.916295  0  0  0.293881  0.394455  0  0.943221  0
H  H25  1  0.82870237  0.95572075  0.06151883  1  0  0.432888  0  0.86741  0  0  0.402113  0  0.932094  0  0  0.412938  0  0.916333  0  0  0.293867  0.394428  0  0.943261  0
H  H26  1  0.55605262  0.31815947  0.77933160  1  0  0.065291  0  0.963968  0  0  0.079006  0  1.034184  0  0  0.080794  0  1.033491  0  0  0.087231  0.077708  0  1.034752  0
H  H27  1  0.44394785  0.68184401  0.22066988  1  0  0.065392  0  0.963862  0  0  0.079118  0  1.034047  0  0  0.080907  0  1.03335  0  0  0.087264  0.07782  0  1.034618  0
H  H28  1  0.76264568  0.49192573  0.02070602  1  0  0.095086  0  0.923991  0  0  0.112604  0  0.981538  0  0  0.11469  0  0.980616  0  0  0.097473  0.111107  0  0.982272  0
H  H29  1  0.23735571  0.50807649  0.97929295  1  0  0.095069  0  0.923978  0  0  0.112586  0  0.981558  0  0  0.114672  0  0.980638  0  0  0.097461  0.111086  0  0.98229  0
H  H30  1  0.47489708  0.40865375  0.89465795  1  0  0.056288  0  0.936991  0  0  0.078079  0  0.994764  0  0  0.078196  0  0.995868  0  0  0.086321  0.077911  0  0.994095  0
H  H31  1  0.52510310  0.59134849  0.10534333  1  0  0.056325  0  0.936986  0  0  0.078105  0  0.994763  0  0  0.078223  0  0.995868  0  0  0.086329  0.077938  0  0.994095  0
H  H32  1  0.84355845  0.36926379  0.92151779  1  0  0.111988  0  0.933123  0  0  0.127676  0  0.992489  0  0  0.130439  0  0.990956  0  0  0.101418  0.125659  0  0.993733  0
H  H33  1  0.15644201  0.63073969  0.07848287  1  0  0.111942  0  0.933136  0  0  0.127648  0  0.992508  0  0  0.13041  0  0.990976  0  0  0.101403  0.125629  0  0.993751  0
C  C34  1  0.53300200  0.17130256  0.90440281  1  0  -0.263485  0  3.666593  0  0  -0.301419  0  3.917898  0  0  -0.307203  0  3.925675  0  0  -0.169854  -0.297496  0  3.912543  0
C  C35  1  0.46699664  0.82869840  0.09559651  1  0  -0.263526  0  3.666743  0  0  -0.301472  0  3.918044  0  0  -0.307253  0  3.92582  0  0  -0.169871  -0.297539  0  3.912677  0
C  C36  1  0.80536313  0.59341357  0.87897148  1  0  0.695233  0  3.839772  0  0  0.647669  0  4.134499  0  0  0.681326  0  4.128744  0  0  0.202914  0.62487  0  4.137455  0
C  C37  1  0.19463550  0.40658739  0.12102702  1  0  0.69524  0  3.839798  0  0  0.647784  0  4.134392  0  0  0.681442  0  4.128635  0  0  0.202983  0.624982  0  4.137352  0
C  C38  1  0.64942699  0.06104508  0.86684353  1  0  0.689896  0  3.866216  0  0  0.644885  0  4.160877  0  0  0.677832  0  4.156208  0  0  0.193835  0.622562  0  4.163109  0
C  C39  1  0.35057010  0.93895461  0.13315382  1  0  0.690066  0  3.866116  0  0  0.64506  0  4.160753  0  0  0.678005  0  4.156081  0  0  0.193894  0.622735  0  4.162989  0
C  C40  1  0.74836400  0.44502922  0.92823263  1  0  -0.265831  0  3.675012  0  0  -0.30209  0  3.928497  0  0  -0.308168  0  3.936572  0  0  -0.168554  -0.297923  0  3.922891  0
C  C41  1  0.25163645  0.55497424  0.07176721  1  0  -0.265658  0  3.675019  0  0  -0.30202  0  3.928564  0  0  -0.308099  0  3.936643  0  0  -0.168496  -0.297842  0  3.922943  0
C  C42  1  0.70491575  0.88824491  0.51945978  1  0  0.139942  0  3.709704  0  0  0.107005  0  3.965821  0  0  0.115425  0  3.982948  0  0  0.053026  0.101594  0  3.954006  0
C  C43  1  0.29508603  0.11175359  0.48054037  1  0  0.139865  0  3.709767  0  0  0.106906  0  3.965894  0  0  0.115335  0  3.983024  0  0  0.052981  0.101494  0  3.954079  0
C  C44  1  0.57029040  0.33941504  0.87202259  1  0  -0.059806  0  3.713246  0  0  -0.104443  0  3.975523  0  0  -0.103753  0  3.988651  0  0  -0.168742  -0.104673  0  3.966352  0
C  C45  1  0.42971101  0.66058720  0.12797802  1  0  -0.059957  0  3.713275  0  0  -0.104566  0  3.975528  0  0  -0.103877  0  3.988654  0  0  -0.168764  -0.104801  0  3.966356  0
C  C46  1  0.06248510  0.69396446  0.36046486  1  0  -0.078176  0  3.709524  0  0  -0.102512  0  3.966688  0  0  -0.105134  0  3.989333  0  0  -0.078071  -0.100649  0  3.95137  0
C  C47  1  0.93751848  0.30603653  0.63953500  1  0  -0.07825  0  3.709543  0  0  -0.102611  0  3.966709  0  0  -0.105237  0  3.989362  0  0  -0.078088  -0.100745  0  3.951384  0
C  C48  1  0.93769054  0.76147327  0.41095836  1  0  0.019716  0  3.79262  0  0  0.034462  0  4.027272  0  0  0.031754  0  4.052042  0  0  -0.004412  0.036106  0  4.010587  0
C  C49  1  0.06231153  0.23852647  0.58904198  1  0  0.019686  0  3.792832  0  0  0.034498  0  4.027351  0  0  0.031792  0  4.052117  0  0  -0.004434  0.036142  0  4.010665  0
C  C50  1  0.94573940  0.78123885  0.52990529  1  0  0.1294  0  3.761127  0  0  0.123738  0  3.997565  0  0  0.128287  0  4.020052  0  0  0.11739  0.120692  0  3.98236  0
C  C51  1  0.05425991  0.21875963  0.47009459  1  0  0.129508  0  3.761116  0  0  0.123859  0  3.997468  0  0  0.128408  0  4.019954  0  0  0.117434  0.120813  0  3.982263  0
C  C52  1  0.08379295  0.73778511  0.59880861  1  0  0.125181  0  3.769278  0  0  0.118367  0  4.0071  0  0  0.12241  0  4.030122  0  0  0.115049  0.115679  0  3.99151  0
C  C53  1  0.91620731  0.26221213  0.40119202  1  0  0.124966  0  3.769257  0  0  0.118211  0  4.007065  0  0  0.122255  0  4.030086  0  0  0.114994  0.115524  0  3.991475  0
C  C54  1  0.34882684  0.66333898  0.73321365  1  0  -0.112876  0  3.716971  0  0  -0.127796  0  3.973799  0  0  -0.134576  0  3.994621  0  0  -0.082292  -0.123405  0  3.959834  0
C  C55  1  0.65117429  0.33666201  0.26678676  1  0  -0.112838  0  3.716994  0  0  -0.127747  0  3.973791  0  0  -0.134527  0  3.994614  0  0  -0.082313  -0.123358  0  3.95983  0
C  C56  1  0.80479439  0.81146531  0.34745931  1  0  -0.0361  0  3.65436  0  0  -0.062188  0  3.904169  0  0  -0.05987  0  3.922356  0  0  -0.059056  -0.063399  0  3.891702  0
C  C57  1  0.19521065  0.18854194  0.65254235  1  0  -0.036139  0  3.654507  0  0  -0.062233  0  3.904286  0  0  -0.059914  0  3.922472  0  0  -0.059002  -0.063441  0  3.891816  0
C  C58  1  0.22099034  0.72688447  0.77765180  1  0  0.139764  0  3.690477  0  0  0.108735  0  3.946016  0  0  0.116471  0  3.963377  0  0  0.055589  0.103692  0  3.934214  0
C  C59  1  0.77900564  0.27311026  0.22234886  1  0  0.139755  0  3.690584  0  0  0.108743  0  3.946112  0  0  0.11648  0  3.963475  0  0  0.055599  0.1037  0  3.93431  0
C  C60  1  0.20632044  0.67263023  0.54563490  1  0  0.018572  0  3.800735  0  0  0.034314  0  4.035242  0  0  0.031932  0  4.059912  0  0  -0.00393  0.035763  0  4.018538  0
C  C61  1  0.79367736  0.32736700  0.45436628  1  0  0.018774  0  3.800546  0  0  0.034389  0  4.035201  0  0  0.032007  0  4.059872  0  0  -0.003917  0.035837  0  4.018499  0
C  C62  1  0.68796907  0.87504391  0.40165662  1  0  -0.12539  0  3.722608  0  0  -0.138145  0  3.978119  0  0  -0.145256  0  3.998712  0  0  -0.084449  -0.133526  0  3.964268  0
C  C63  1  0.31203271  0.12495458  0.59834353  1  0  -0.12535  0  3.722607  0  0  -0.138104  0  3.978131  0  0  -0.145213  0  3.998719  0  0  -0.084462  -0.133484  0  3.964278  0
C  C64  1  0.19098088  0.64969157  0.42499334  1  0  -0.09892  0  3.718489  0  0  -0.123701  0  3.978462  0  0  -0.126963  0  4.000372  0  0  -0.08497  -0.121381  0  3.963626  0
C  C65  1  0.80901873  0.35030816  0.57500755  1  0  -0.098886  0  3.718519  0  0  -0.123638  0  3.978528  0  0  -0.1269  0  4.000438  0  0  -0.084939  -0.121318  0  3.963693  0
C  C66  1  0.34071727  0.63589652  0.61712864  1  0  -0.039357  0  3.677595  0  0  -0.064664  0  3.928298  0  0  -0.062334  0  3.946112  0  0  -0.060253  -0.065862  0  3.916051  0
C  C67  1  0.65928234  0.36410322  0.38287308  1  0  -0.039393  0  3.677618  0  0  -0.064671  0  3.928346  0  0  -0.062341  0  3.946162  0  0  -0.06024  -0.065869  0  3.916101  0
N  N68  1  0.82953192  0.84274257  0.58132876  1  0  -0.361307  0  3.255768  0  0  -0.292279  0  3.519266  0  0  -0.312072  0  3.53804  0  0  -0.323838  -0.278781  0  3.506234  0
N  N69  1  0.17046985  0.15725592  0.41867056  1  0  -0.361308  0  3.255739  0  0  -0.292291  0  3.519237  0  0  -0.312083  0  3.538005  0  0  -0.323833  -0.278793  0  3.506206  0
N  N70  1  0.09339618  0.76331492  0.71246672  1  0  -0.347392  0  3.251242  0  0  -0.280176  0  3.512202  0  0  -0.299799  0  3.532827  0  0  -0.32022  -0.266769  0  3.497956  0
N  N71  1  0.90660254  0.23668106  0.28753276  1  0  -0.347388  0  3.251361  0  0  -0.280189  0  3.512303  0  0  -0.299813  0  3.532932  0  0  -0.32024  -0.266781  0  3.498057  0
O  O72  1  0.71803848  0.60522836  0.78555300  1  0  -0.643403  0  1.968134  0  0  -0.574734  0  2.20955  0  0  -0.603145  0  2.199355  0  0  -0.327523  -0.554854  0  2.215815  0
O  O73  1  0.28195834  0.39477008  0.21444497  1  0  -0.643472  0  1.968074  0  0  -0.574838  0  2.209459  0  0  -0.603249  0  2.199264  0  0  -0.327596  -0.554959  0  2.215728  0
O  O74  1  0.72068724  0.98744921  0.93591662  1  0  -0.674526  0  1.996828  0  0  -0.607069  0  2.23266  0  0  -0.63598  0  2.223747  0  0  -0.329325  -0.586751  0  2.237949  0
O  O75  1  0.27931596  0.01255551  0.06408206  1  0  -0.674633  0  1.996829  0  0  -0.607189  0  2.232681  0  0  -0.636108  0  2.223788  0  0  -0.329385  -0.586864  0  2.237957  0
O  O76  1  0.94127981  0.70214639  0.93224825  1  0  -0.679141  0  2.002581  0  0  -0.615465  0  2.237831  0  0  -0.643752  0  2.228563  0  0  -0.333485  -0.595654  0  2.243496  0
O  O77  1  0.05872059  0.29785704  0.06774750  1  0  -0.679165  0  2.002612  0  0  -0.615519  0  2.237842  0  0  -0.643805  0  2.228567  0  0  -0.333511  -0.59571  0  2.243511  0
O  O78  1  0.09717085  0.09154430  0.88711180  1  0  -0.837871  0  1.859488  0  0  -0.775594  0  2.053962  0  0  -0.798926  0  2.020356  0  0  -0.588844  -0.759093  0  2.077305  0
O  O79  1  0.90283025  0.90845667  0.11288697  1  0  -0.837819  0  1.859538  0  0  -0.775541  0  2.054003  0  0  -0.798874  0  2.020395  0  0  -0.588804  -0.759041  0  2.077346  0
O  O80  1  0.67176825  0.04391726  0.76458978  1  0  -0.663144  0  1.94065  0  0  -0.598948  0  2.183189  0  0  -0.628471  0  2.175767  0  0  -0.339349  -0.578245  0  2.187527  0
O  O81  1  0.32822149  0.95607739  0.23540529  1  0  -0.663189  0  1.940651  0  0  -0.599018  0  2.183228  0  0  -0.628539  0  2.1758  0  0  -0.339344  -0.578317  0  2.187571  0
