# generated using pymatgen
data_AlH15(C11O6)3
_symmetry_space_group_name_H-M   'P 1'
_cell_length_a   4.22187491
_cell_length_b   16.13765004
_cell_length_c   16.13871650
_cell_angle_alpha   119.69510821
_cell_angle_beta   90.31813609
_cell_angle_gamma   90.32111175
_symmetry_Int_Tables_number   1
_chemical_formula_structural   AlH15(C11O6)3
_chemical_formula_sum   'Al1 H15 C33 O18'
_cell_volume   955.09064726
_cell_formula_units_Z   1
loop_
 _symmetry_equiv_pos_site_id
 _symmetry_equiv_pos_as_xyz
  1  'x, y, z'
loop_
 _atom_site_type_symbol
 _atom_site_label
 _atom_site_symmetry_multiplicity
 _atom_site_fract_x
 _atom_site_fract_y
 _atom_site_fract_z
 _atom_site_occupancy
 _atom_site_pbe_bader_charge
 _atom_site_pbe_bader_spin_density
 _atom_site_pbe_cm5_charge
 _atom_site_pbe_ddec_charge
 _atom_site_pbe_ddec_spin_density
 _atom_site_pbe_ddec_sum_bond_order
 _atom_site_pbe_magmom
Al  Al0  1  0.99998083  0.50175185  0.49817942  1  2.517157  0  0.467513  1.641409  0  2.459656  0
H  H1  1  0.49982758  0.92076470  0.07917715  1  0.06387  0  0.109528  0.112729  0  1.016726  0
H  H2  1  0.44420714  0.65550782  0.08101128  1  0.085042  0  0.107942  0.110347  0  1.014048  0
H  H3  1  0.55580179  0.91885340  0.34437073  1  0.086856  0  0.107781  0.11032  0  1.013852  0
H  H4  1  0.68732751  0.05502864  0.15130078  1  0.106273  0  0.117648  0.123757  0  0.991936  0
H  H5  1  0.38331453  0.05511609  0.40690756  1  0.117857  0  0.11594  0.120226  0  0.996518  0
H  H6  1  0.31278105  0.84866704  0.94484201  1  0.105702  0  0.117666  0.123892  0  0.991842  0
H  H7  1  0.61659283  0.59303677  0.94476894  1  0.116868  0  0.115962  0.120423  0  0.996484  0
H  H8  1  0.73536113  0.60408757  0.16106936  1  0.085047  0  0.112551  0.118514  0  0.986761  0
H  H9  1  0.26466026  0.83877516  0.39573142  1  0.085626  0  0.112743  0.118986  0  0.986906  0
H  H10  1  0.06536154  0.31901369  0.51500876  1  0.624831  0  0.315116  0.343637  0  0.950304  0
H  H11  1  0.02897256  0.31646559  0.31058165  1  0.627427  0  0.30597  0.335565  0  0.989918  0
H  H12  1  0.97124811  0.68935864  0.68340874  1  0.626727  0  0.306134  0.335659  0  0.989314  0
H  H13  1  0.93460942  0.48488118  0.68089919  1  0.624019  0  0.315255  0.343505  0  0.950592  0
H  H14  1  0.34919233  0.42851114  0.19554125  1  0.667015  0  0.318378  0.384447  0  0.952885  0
H  H15  1  0.65070123  0.80436770  0.57127986  1  0.66717  0  0.318594  0.384629  0  0.952653  0
C  C16  1  0.47938776  0.57498052  0.65018806  1  1.567375  0  0.278047  0.660832  0  4.056697  0
C  C17  1  0.49999643  0.57368267  0.42621461  1  1.56007  0  0.285618  0.685444  0  4.010322  0
C  C18  1  0.52059200  0.34972743  0.42493116  1  1.568107  0  0.277962  0.660805  0  4.0556  0
C  C19  1  0.48144835  0.78184536  0.06723415  1  -0.058661  0  -0.005048  0.077812  0  4.017431  0
C  C20  1  0.49989356  0.88173419  0.11816872  1  0.106908  0  -0.079382  -0.165538  0  3.908162  0
C  C21  1  0.51837798  0.93264384  0.21806406  1  -0.059992  0  -0.005273  0.07733  0  4.017662  0
C  C22  1  0.52419425  0.88126428  0.26715464  1  -0.089599  0  -0.080869  -0.168754  0  3.913928  0
C  C23  1  0.50002450  0.78147690  0.21838841  1  0.031776  0  -0.004927  0.076107  0  4.022584  0
C  C24  1  0.47582185  0.73272881  0.11859837  1  -0.089832  0  -0.08136  -0.169082  0  3.913611  0
C  C25  1  0.61998549  0.19022751  0.27380484  1  -0.210946  0  -0.012449  -0.06402  0  3.988495  0
C  C26  1  0.61631074  0.09048881  0.22577684  1  0.08912  0  -0.069122  -0.11998  0  3.907855  0
C  C27  1  0.52941689  0.03829121  0.27034135  1  0.010396  0  -0.0006  0.076105  0  3.999376  0
C  C28  1  0.45008092  0.09040750  0.36688827  1  0.069103  0  -0.070623  -0.119836  0  3.926194  0
C  C29  1  0.44988039  0.18992810  0.41675196  1  -0.148619  0  -0.015318  -0.071162  0  4.015576  0
C  C30  1  0.53049693  0.24192156  0.37056191  1  0.035196  0  -0.021001  -0.125519  0  3.957378  0
C  C31  1  0.38367321  0.77417233  0.90940644  1  0.085575  0  -0.068768  -0.119859  0  3.909285  0
C  C32  1  0.38002980  0.72614448  0.80967095  1  -0.206708  0  -0.012975  -0.064582  0  3.989725  0
C  C33  1  0.46948142  0.62937518  0.75797283  1  0.033895  0  -0.020892  -0.125388  0  3.957708  0
C  C34  1  0.55008615  0.58317888  0.80995761  1  -0.147543  0  -0.015349  -0.070824  0  4.014204  0
C  C35  1  0.54978238  0.63305103  0.90947722  1  0.072315  0  -0.070676  -0.120518  0  3.925978  0
C  C36  1  0.47044078  0.72960183  0.96160542  1  0.007412  0  -0.000396  0.076415  0  4.00011  0
C  C37  1  0.62829509  0.63699961  0.23148044  1  -0.075429  0  -0.076529  -0.146645  0  3.926591  0
C  C38  1  0.62462805  0.58610160  0.28036332  1  0.007038  0  0.006729  -0.019796  0  3.955372  0
C  C39  1  0.49992571  0.62677739  0.37305841  1  0.044148  0  -0.004876  -0.09563  0  3.914909  0
C  C40  1  0.37528307  0.71947944  0.41370919  1  0.03335  0  0.007128  -0.01936  0  3.956058  0
C  C41  1  0.37166758  0.76836886  0.36282126  1  -0.073901  0  -0.076915  -0.14747  0  3.92659  0
C  C42  1  0.50002318  0.72855326  0.27127141  1  0.088967  0  0.004785  0.092062  0  4.001289  0
C  C43  1  0.38608058  0.23518777  0.52173253  1  1.56335  0  0.229253  0.560957  0  4.133518  0
C  C44  1  0.71734556  0.23272615  0.21290643  1  1.567187  0  0.227443  0.562315  0  4.13209  0
C  C45  1  0.28280134  0.78703591  0.76715989  1  1.567778  0  0.227204  0.562131  0  4.1325  0
C  C46  1  0.61383789  0.47819220  0.76472547  1  1.563233  0  0.22937  0.561118  0  4.132775  0
C  C47  1  0.76436038  0.48798399  0.22712718  1  1.598843  0  0.252418  0.614628  0  4.104365  0
C  C48  1  0.23557143  0.77274235  0.51181737  1  1.57688  0  0.252061  0.615154  0  4.105144  0
O  O49  1  0.28055209  0.39046589  0.41306550  1  -1.24312  0  -0.222648  -0.576718  0  2.388212  0
O  O50  1  0.24469621  0.51939007  0.60613448  1  -1.266744  0  -0.232413  -0.607309  0  2.422409  0
O  O51  1  0.26743233  0.58589837  0.48185143  1  -1.272851  0  -0.237123  -0.619337  0  2.391176  0
O  O52  1  0.75530845  0.39378359  0.48051341  1  -1.26527  0  -0.232535  -0.607206  0  2.421743  0
O  O53  1  0.73261902  0.51807793  0.41402733  1  -1.273033  0  -0.237224  -0.619398  0  2.391705  0
O  O54  1  0.71942448  0.58683616  0.60944355  1  -1.243097  0  -0.222885  -0.576597  0  2.388062  0
O  O55  1  0.20371408  0.31389914  0.56140895  1  -1.114088  0  -0.324651  -0.440633  0  2.346438  0
O  O56  1  0.50352248  0.20361723  0.56901771  1  -1.071227  0  -0.250778  -0.396627  0  2.038578  0
O  O57  1  0.92879573  0.30578879  0.25069464  1  -1.126012  0  -0.331208  -0.454574  0  2.332311  0
O  O58  1  0.61394342  0.20062264  0.13239904  1  -1.07546  0  -0.25653  -0.405231  0  2.049373  0
O  O59  1  0.07142620  0.74924612  0.69408347  1  -1.126053  0  -0.331216  -0.4546  0  2.331913  0
O  O60  1  0.38617272  0.86755229  0.79927485  1  -1.075804  0  -0.256416  -0.405082  0  2.048986  0
O  O61  1  0.79627012  0.43849253  0.68604164  1  -1.113174  0  -0.324777  -0.440457  0  2.346503  0
O  O62  1  0.49645594  0.43093369  0.79634043  1  -1.071582  0  -0.250875  -0.396776  0  2.038185  0
O  O63  1  0.58483212  0.41184972  0.18912551  1  -1.135239  0  -0.294284  -0.422724  0  2.312338  0
O  O64  1  0.05451990  0.48466390  0.21653594  1  -1.141541  0  -0.274708  -0.503196  0  2.292574  0
O  O65  1  0.41508991  0.81079862  0.58794851  1  -1.138237  0  -0.294515  -0.423324  0  2.312585  0
O  O66  1  0.94541085  0.78333812  0.51512439  1  -1.141748  0  -0.274605  -0.503502  0  2.292778  0
