# generated using pymatgen
data_ZnPH4C2N3O4
_symmetry_space_group_name_H-M   'P 1'
_cell_length_a   8.45311524
_cell_length_b   8.51322158
_cell_length_c   8.94527953
_cell_angle_alpha   89.99985117
_cell_angle_beta   89.99997199
_cell_angle_gamma   89.99978087
_symmetry_Int_Tables_number   1
_chemical_formula_structural   ZnPH4C2N3O4
_chemical_formula_sum   'Zn4 P4 H16 C8 N12 O16'
_cell_volume   643.73132544
_cell_formula_units_Z   4
loop_
 _symmetry_equiv_pos_site_id
 _symmetry_equiv_pos_as_xyz
  1  'x, y, z'
loop_
 _atom_site_type_symbol
 _atom_site_label
 _atom_site_symmetry_multiplicity
 _atom_site_fract_x
 _atom_site_fract_y
 _atom_site_fract_z
 _atom_site_occupancy
 _atom_site_pbe_bader_spin_density
 _atom_site_pbe_cm5_charge
 _atom_site_pbe_ddec_charge
 _atom_site_pbe_ddec_spin_density
 _atom_site_pbe_ddec_sum_bond_order
 _atom_site_pbe_magmom
Zn  Zn0  1  0.82572353  0.16960923  0.48883731  1  0  0.731394  0.961413  0  2.329396  0
Zn  Zn1  1  0.17427709  0.83039136  0.98883779  1  0  0.731406  0.961434  0  2.329378  0
Zn  Zn2  1  0.17427517  0.66961155  0.48883685  1  0  0.731384  0.961426  0  2.329351  0
Zn  Zn3  1  0.82572546  0.33038787  0.98883714  1  0  0.731372  0.96138  0  2.329398  0
P  P4  1  0.96271461  0.04663513  0.78776158  1  0  0.412012  1.52972  0  5.445577  0
P  P5  1  0.03728612  0.95336601  0.28776176  1  0  0.411997  1.529736  0  5.44557  0
P  P6  1  0.03728677  0.54663563  0.78776564  1  0  0.411926  1.52966  0  5.44552  0
P  P7  1  0.96271396  0.45336316  0.28776328  1  0  0.411927  1.52969  0  5.44566  0
H  H8  1  0.92880851  0.80837399  0.69244445  1  0  0.307844  0.397354  0  0.949529  0
H  H9  1  0.07119227  0.19162741  0.19244538  1  0  0.307838  0.397332  0  0.949562  0
H  H10  1  0.07119192  0.30837219  0.69244526  1  0  0.307836  0.397346  0  0.94955  0
H  H11  1  0.92880768  0.69162686  0.19244457  1  0  0.307853  0.397383  0  0.949487  0
H  H12  1  0.28526615  0.05020038  0.72015736  1  0  0.319332  0.308242  0  0.959292  0
H  H13  1  0.71473462  0.94979977  0.22015724  1  0  0.319321  0.308225  0  0.959316  0
H  H14  1  0.71473526  0.55019947  0.72015776  1  0  0.319312  0.308221  0  0.959311  0
H  H15  1  0.28526432  0.44980068  0.22015684  1  0  0.319317  0.308217  0  0.959323  0
H  H16  1  0.23638571  0.20595383  0.47617486  1  0  0.142148  0.116569  0  1.000185  0
H  H17  1  0.76361493  0.79404796  0.97617404  1  0  0.142146  0.116547  0  1.000229  0
H  H18  1  0.76361404  0.70595274  0.47617412  1  0  0.142143  0.116578  0  1.000211  0
H  H19  1  0.23638541  0.29404554  0.97617478  1  0  0.142146  0.116581  0  1.000165  0
H  H20  1  0.59033244  0.01315268  0.75476441  1  0  0.143787  0.115871  0  1.018312  0
H  H21  1  0.40966594  0.98684620  0.25476434  1  0  0.14378  0.115883  0  1.018284  0
H  H22  1  0.40966672  0.51315293  0.75476495  1  0  0.143795  0.115883  0  1.018308  0
H  H23  1  0.59033284  0.48684713  0.25476380  1  0  0.143788  0.115871  0  1.018282  0
C  C24  1  0.35125938  0.17510155  0.52043621  1  0  0.16031  0.166358  0  3.902421  0
C  C25  1  0.64874030  0.82489915  0.02043531  1  0  0.1603  0.166311  0  3.90262  0
C  C26  1  0.64874046  0.67510089  0.52043552  1  0  0.160212  0.166177  0  3.902653  0
C  C27  1  0.35126040  0.32489863  0.02043600  1  0  0.160263  0.166258  0  3.902546  0
C  C28  1  0.53154218  0.07454800  0.66437142  1  0  0.169759  0.160854  0  3.916283  0
C  C29  1  0.46845743  0.92545113  0.16437148  1  0  0.16977  0.160869  0  3.916247  0
C  C30  1  0.46845797  0.57454803  0.66437194  1  0  0.16973  0.160833  0  3.916279  0
C  C31  1  0.53154282  0.42545227  0.16437208  1  0  0.169765  0.160875  0  3.916217  0
N  N32  1  0.60203561  0.14573612  0.55035364  1  0  -0.2591  -0.237152  0  3.577082  0
N  N33  1  0.39796524  0.85426450  0.05035390  1  0  -0.25909  -0.237199  0  3.577142  0
N  N34  1  0.39796433  0.64573641  0.55035531  1  0  -0.259094  -0.237192  0  3.577076  0
N  N35  1  0.60203534  0.35426303  0.05035447  1  0  -0.259074  -0.237143  0  3.577052  0
N  N36  1  0.48789771  0.21026432  0.45789477  1  0  -0.239083  -0.229262  0  3.17458  0
N  N37  1  0.51210175  0.78973753  0.95789519  1  0  -0.239064  -0.229143  0  3.174641  0
N  N38  1  0.51210085  0.71026418  0.45789526  1  0  -0.239038  -0.229136  0  3.174583  0
N  N39  1  0.48789861  0.28973532  0.95789469  1  0  -0.239051  -0.229195  0  3.174576  0
N  N40  1  0.37363706  0.09079717  0.64840100  1  0  -0.355988  -0.210914  0  3.592648  0
N  N41  1  0.62636374  0.90920318  0.14840103  1  0  -0.355992  -0.210916  0  3.592683  0
N  N42  1  0.62636304  0.59079542  0.64840256  1  0  -0.355911  -0.210816  0  3.592685  0
N  N43  1  0.37363776  0.40920258  0.14840170  1  0  -0.355986  -0.210882  0  3.592692  0
O  O44  1  0.98446972  0.15870449  0.65138783  1  0  -0.376921  -0.788138  0  2.359533  0
O  O45  1  0.01552990  0.84129820  0.15138718  1  0  -0.376908  -0.788137  0  2.359487  0
O  O46  1  0.01553012  0.65869802  0.65138632  1  0  -0.376934  -0.788112  0  2.359379  0
O  O47  1  0.98447068  0.34129997  0.15138646  1  0  -0.376888  -0.788089  0  2.359525  0
O  O48  1  0.12995470  0.99373992  0.83696868  1  0  -0.377112  -0.78801  0  2.303065  0
O  O49  1  0.87004482  0.00626108  0.33696858  1  0  -0.377123  -0.788011  0  2.30307  0
O  O50  1  0.87004376  0.49374096  0.83697136  1  0  -0.377119  -0.788002  0  2.303013  0
O  O51  1  0.12995576  0.50626122  0.33696925  1  0  -0.377091  -0.788003  0  2.303078  0
O  O52  1  0.86529473  0.12063181  0.91226069  1  0  -0.387026  -0.785527  0  2.319534  0
O  O53  1  0.13470475  0.87936781  0.41226101  1  0  -0.387024  -0.785561  0  2.319536  0
O  O54  1  0.13470867  0.62064133  0.91225689  1  0  -0.386908  -0.785477  0  2.319554  0
O  O55  1  0.86529199  0.37936064  0.41225587  1  0  -0.386965  -0.785528  0  2.319537  0
O  O56  1  0.86273209  0.90004911  0.73363367  1  0  -0.391367  -0.717403  0  2.264665  0
O  O57  1  0.13726867  0.09995101  0.23363368  1  0  -0.391338  -0.717356  0  2.264694  0
O  O58  1  0.13726914  0.40004823  0.73363781  1  0  -0.391345  -0.717383  0  2.264648  0
O  O59  1  0.86272925  0.59995071  0.23363402  1  0  -0.39137  -0.717411  0  2.264556  0
