# generated using pymatgen
data_CoH12C17N3O5
_symmetry_space_group_name_H-M   'P 1'
_cell_length_a   9.65908750
_cell_length_b   9.84713754
_cell_length_c   10.08873129
_cell_angle_alpha   102.87018537
_cell_angle_beta   110.29367073
_cell_angle_gamma   114.24875257
_symmetry_Int_Tables_number   1
_chemical_formula_structural   CoH12C17N3O5
_chemical_formula_sum   'Co2 H24 C34 N6 O10'
_cell_volume   742.02712451
_cell_formula_units_Z   2
loop_
 _symmetry_equiv_pos_site_id
 _symmetry_equiv_pos_as_xyz
  1  'x, y, z'
loop_
 _atom_site_type_symbol
 _atom_site_label
 _atom_site_symmetry_multiplicity
 _atom_site_fract_x
 _atom_site_fract_y
 _atom_site_fract_z
 _atom_site_occupancy
 _atom_site_pbe_cm5_charge
 _atom_site_pbe_ddec_charge
 _atom_site_pbe_ddec_spin_density
 _atom_site_pbe_ddec_sum_bond_order
 _atom_site_pbe_magmom
Co  Co0  1  0.07455743  0.23964654  0.92070052  1  0.675326  0.926863  2.799684  2.38176  2.536
Co  Co1  1  0.92544325  0.76035179  0.07929954  1  0.675299  0.926793  2.799643  2.38181  2.536
H  H2  1  0.74471501  0.98687305  0.32559636  1  0.107117  0.119506  0.000534  1.025975  0.001
H  H3  1  0.25528954  0.01313023  0.67440903  1  0.107109  0.119498  0.000534  1.025966  0.001
H  H4  1  0.39822730  0.47665727  0.84203770  1  0.102922  0.119705  -0.000122  1.0123  0.0
H  H5  1  0.60177587  0.52334354  0.15796472  1  0.102921  0.119694  -0.000122  1.012329  0.0
H  H6  1  0.15272191  0.50476473  0.69439424  1  0.092602  0.093736  -9.5e-05  1.042442  0.0
H  H7  1  0.84727406  0.49523112  0.30560372  1  0.092621  0.093732  -9.5e-05  1.042475  0.0
H  H8  1  0.02490581  0.41809217  0.40823128  1  0.094182  0.094321  -2.6e-05  1.03495  0.0
H  H9  1  0.97509264  0.58190615  0.59176706  1  0.094182  0.094306  -2.6e-05  1.03494  0.0
H  H10  1  0.13659836  0.29680862  0.25868253  1  0.104421  0.122057  -0.000232  1.044423  0.0
H  H11  1  0.86340328  0.70319339  0.74131567  1  0.104442  0.122122  -0.000232  1.044386  0.0
H  H12  1  0.54726084  0.09420110  0.30314333  1  0.107198  0.104246  -0.000209  1.021933  0.0
H  H13  1  0.45273942  0.90579846  0.69685686  1  0.107181  0.104226  -0.000209  1.021956  0.0
H  H14  1  0.96350487  0.05182643  0.59187435  1  0.123311  0.09719  0.000474  0.998882  0.001
H  H15  1  0.03649635  0.94817683  0.40813092  1  0.123314  0.097186  0.000475  0.998828  0.001
H  H16  1  0.82073302  0.33822582  0.80768182  1  0.122033  0.093077  0.000837  1.040444  0.002
H  H17  1  0.17926668  0.66177865  0.19231924  1  0.122013  0.093041  0.000837  1.040524  0.002
H  H18  1  0.59527404  0.28445695  0.02748996  1  0.11126  0.118758  0.000202  1.03147  0.0
H  H19  1  0.40472276  0.71553645  0.97250776  1  0.111281  0.118776  0.000202  1.031478  0.0
H  H20  1  0.40183722  0.22977278  0.31107774  1  0.311833  0.297566  0.000293  0.973022  0.0
H  H21  1  0.59816510  0.77023047  0.68892195  1  0.311822  0.297564  0.000293  0.973032  0.0
H  H22  1  0.19077365  0.53798770  0.97227174  1  0.29028  0.382165  0.000513  0.970997  0.002
H  H23  1  0.80922771  0.46201187  0.02772981  1  0.290281  0.382143  0.000513  0.971006  0.002
H  H24  1  0.32246863  0.54472641  0.13166394  1  0.282194  0.349019  0.000849  1.014305  0.002
H  H25  1  0.67753232  0.45527438  0.86833675  1  0.282184  0.348992  0.000849  1.014341  0.002
C  C26  1  0.40670084  0.37292784  0.63292090  1  0.086267  0.144143  0.000158  4.056737  0.0
C  C27  1  0.59330191  0.62707419  0.36707867  1  0.086235  0.144085  0.000158  4.056776  0.0
C  C28  1  0.75480621  0.06308716  0.42931187  1  -0.078676  -0.108555  0.002764  3.958634  0.005
C  C29  1  0.24519585  0.93691365  0.57069118  1  -0.078656  -0.108556  0.002764  3.958586  0.005
C  C30  1  0.34274905  0.43903589  0.71654191  1  -0.096447  -0.151819  -3.8e-05  3.979939  0.0
C  C31  1  0.65725190  0.56096490  0.28345580  1  -0.096412  -0.15176  -3.8e-05  3.979746  0.0
C  C32  1  0.20550779  0.45401006  0.63255700  1  -0.1087  -0.112532  1e-06  4.051389  0.0
C  C33  1  0.79449689  0.54598953  0.36744467  1  -0.108741  -0.11257  1e-06  4.051266  0.0
C  C34  1  0.13208872  0.40398231  0.46947698  1  -0.104007  -0.094475  -3.1e-05  4.039768  0.0
C  C35  1  0.86791111  0.59601848  0.53052235  1  -0.103986  -0.094371  -3.1e-05  4.039801  0.0
C  C36  1  0.19232389  0.33613067  0.38417496  1  -0.097982  -0.162018  0.000104  3.969478  0.0
C  C37  1  0.80767955  0.66387258  0.61582511  1  -0.097987  -0.16213  0.000104  3.969567  0.0
C  C38  1  0.33004432  0.32113869  0.46886692  1  0.095807  0.150838  4.5e-05  4.012713  0.0
C  C39  1  0.66995801  0.67886456  0.53113178  1  0.095749  0.150801  4.5e-05  4.01284  0.0
C  C40  1  0.54769966  0.27997042  0.55547904  1  0.226288  0.296976  9.1e-05  4.048647  0.0
C  C41  1  0.45230129  0.72003037  0.44452066  1  0.226256  0.296905  9.1e-05  4.048708  0.0
C  C42  1  0.66456673  0.22223270  0.55503439  1  0.002367  -0.023232  0.002612  4.014495  0.005
C  C43  1  0.33543103  0.77776439  0.44496444  1  0.002328  -0.023261  0.002612  4.014535  0.005
C  C44  1  0.64642743  0.12440050  0.41780145  1  -0.063861  -0.063523  -0.008755  3.900126  -0.005
C  C45  1  0.35357172  0.87559905  0.58219738  1  -0.063845  -0.063528  -0.008752  3.900188  -0.005
C  C46  1  0.87848744  0.09994398  0.57638499  1  0.050997  0.092119  -0.004314  3.925432  -0.002
C  C47  1  0.12151267  0.90005928  0.42361892  1  0.050952  0.092152  -0.004313  3.925171  -0.002
C  C48  1  0.79656140  0.25782383  0.69819651  1  0.055225  0.073923  -0.005052  3.873576  -0.003
C  C49  1  0.20343692  0.74217817  0.30180356  1  0.055251  0.073997  -0.00505  3.873586  -0.003
C  C50  1  0.83579540  0.21255267  0.03068930  1  0.21396  0.56587  -0.001726  4.20935  -0.001
C  C51  1  0.16420126  0.78744442  0.96931016  1  0.213951  0.565839  -0.001724  4.209409  -0.001
C  C52  1  0.72092743  0.86849223  0.00482284  1  0.212788  0.586523  0.002203  4.202785  -0.001
C  C53  1  0.27907075  0.13150363  0.99517289  1  0.212786  0.586527  0.002203  4.202652  0.0
C  C54  1  0.66532773  0.10282310  0.01898801  1  -0.010561  -0.051937  0.002668  3.953843  0.004
C  C55  1  0.33466935  0.89717276  0.98101231  1  -0.010503  -0.051802  0.002668  3.953645  0.004
C  C56  1  0.61069207  0.94077438  0.00272558  1  -0.004173  -0.032899  0.002817  3.940539  0.003
C  C57  1  0.38930680  0.05922271  0.99727263  1  -0.004236  -0.033045  0.002817  3.940518  0.003
C  C58  1  0.55356539  0.15965060  0.01620128  1  -0.077112  -0.122105  0.001645  3.935297  0.002
C  C59  1  0.44643072  0.84034157  0.98379495  1  -0.077159  -0.122196  0.001645  3.935194  0.002
N  N60  1  0.90006085  0.19740530  0.70903243  1  -0.337726  -0.267621  0.03502  3.646132  0.051
N  N61  1  0.09994175  0.80260042  0.29097185  1  -0.337682  -0.26764  0.035021  3.64603  0.051
N  N62  1  0.54220257  0.34674779  0.68346275  1  -0.328313  -0.396432  0.000994  3.300886  0.002
N  N63  1  0.45780086  0.65325547  0.31653632  1  -0.328268  -0.396378  0.000994  3.300947  0.002
N  N64  1  0.42123673  0.26174848  0.42393236  1  -0.370978  -0.307771  0.000569  3.570347  0.001
N  N65  1  0.57876601  0.73825354  0.57606721  1  -0.370916  -0.307701  0.000569  3.570418  0.001
O  O66  1  0.24447978  0.47641677  0.01210830  1  -0.574764  -0.770043  0.047021  2.289723  0.066
O  O67  1  0.75551979  0.52358157  0.98789338  1  -0.574742  -0.769981  0.04702  2.289791  0.066
O  O68  1  0.90827757  0.13993674  0.98922397  1  -0.305926  -0.54002  0.046578  2.415694  0.069
O  O69  1  0.09172089  0.86006158  0.01077437  1  -0.305913  -0.539996  0.046578  2.415725  0.069
O  O70  1  0.89945739  0.36554474  0.07540311  1  -0.309911  -0.555984  0.003255  2.244322  0.005
O  O71  1  0.10053816  0.63445234  0.92459498  1  -0.309933  -0.556018  0.003256  2.24429  0.005
O  O72  1  0.83018168  0.89271957  0.13929481  1  -0.313718  -0.540711  0.050386  2.270212  0.077
O  O73  1  0.16981927  0.10728122  0.86070389  1  -0.313747  -0.540768  0.050383  2.270212  0.077
O  O74  1  0.69618917  0.77695483  0.87920860  1  -0.285471  -0.526817  0.018298  2.220878  0.03
O  O75  1  0.30380680  0.22304102  0.12078639  1  -0.285484  -0.526789  0.0183  2.220761  0.03
