# generated using pymatgen
data_Cd3H38C56(NO6)2
_symmetry_space_group_name_H-M   'P 1'
_cell_length_a   9.22895102
_cell_length_b   13.33523691
_cell_length_c   14.23573347
_cell_angle_alpha   116.02367459
_cell_angle_beta   91.40502577
_cell_angle_gamma   105.33784549
_symmetry_Int_Tables_number   1
_chemical_formula_structural   Cd3H38C56(NO6)2
_chemical_formula_sum   'Cd3 H38 C56 N2 O12'
_cell_volume   1498.18343040
_cell_formula_units_Z   1
loop_
 _symmetry_equiv_pos_site_id
 _symmetry_equiv_pos_as_xyz
  1  'x, y, z'
loop_
 _atom_site_type_symbol
 _atom_site_label
 _atom_site_symmetry_multiplicity
 _atom_site_fract_x
 _atom_site_fract_y
 _atom_site_fract_z
 _atom_site_occupancy
 _atom_site_pbe_bader_charge
 _atom_site_pbe_bader_spin_density
 _atom_site_pbe_cm5_charge
 _atom_site_pbe_ddec_charge
 _atom_site_pbe_ddec_spin_density
 _atom_site_pbe_ddec_sum_bond_order
 _atom_site_pbe_magmom
Cd  Cd0  1  0.99999732  0.99999918  0.99999963  1  1.383543  0  0.791865  1.094371  0  2.177701  0
Cd  Cd1  1  0.59925940  0.88401344  0.91757847  1  1.291743  0  0.780071  0.948046  0  2.151048  0
Cd  Cd2  1  0.40074159  0.11598682  0.08242309  1  1.291724  0  0.780064  0.948058  0  2.151039  0
H  H3  1  0.59446363  0.16991212  0.28567112  1  0.107456  0  0.103911  0.113304  0  1.027583  0
H  H4  1  0.40553769  0.83008901  0.71432869  1  0.107457  0  0.103934  0.113377  0  1.027577  0
H  H5  1  0.69600179  0.28903475  0.47768694  1  0.073516  0  0.099371  0.104125  0  1.01212  0
H  H6  1  0.30399954  0.71096638  0.52231286  1  0.073466  0  0.099358  0.104101  0  1.012133  0
H  H7  1  0.05598758  0.13030427  0.43556906  1  0.054491  0  0.103068  0.10754  0  0.993502  0
H  H8  1  0.94401196  0.86969511  0.56443001  1  0.055954  0  0.103058  0.107533  0  0.993492  0
H  H9  1  0.95690214  0.01531878  0.24268783  1  0.092832  0  0.100839  0.099959  0  1.04984  0
H  H10  1  0.04309780  0.98467885  0.75731121  1  0.092848  0  0.100845  0.099967  0  1.049817  0
H  H11  1  0.07130764  0.31048486  0.59384686  1  0.023276  0  0.107901  0.08864  0  0.961894  0
H  H12  1  0.92869443  0.68951540  0.40615400  1  0.023272  0  0.107914  0.088664  0  0.961868  0
H  H13  1  0.10761260  0.31071460  0.76118573  1  0.044645  0  0.099577  0.101525  0  0.997336  0
H  H14  1  0.89238911  0.68928478  0.23881407  1  0.044643  0  0.099574  0.101511  0  0.997355  0
H  H15  1  0.03557986  0.20096566  0.86624598  1  0.092713  0  0.104451  0.109721  0  1.003738  0
H  H16  1  0.96441861  0.79903372  0.13375377  1  0.092703  0  0.104436  0.109691  0  1.003766  0
H  H17  1  0.62066041  0.98691651  0.64682207  1  0.088992  0  0.103397  0.108207  0  1.008113  0
H  H18  1  0.37933913  0.01308286  0.35317629  1  0.089001  0  0.103408  0.108219  0  1.008101  0
H  H19  1  0.69142340  0.09497242  0.54073582  1  0.072694  0  0.098963  0.102435  0  1.013566  0
H  H20  1  0.30857793  0.90502871  0.45926469  1  0.072718  0  0.098969  0.102418  0  1.013455  0
H  H21  1  0.70431455  0.32692999  0.69338450  1  0.057052  0  0.097679  0.099885  0  1.018923  0
H  H22  1  0.29568750  0.67307026  0.30661215  1  0.057036  0  0.097687  0.099868  0  1.018933  0
H  H23  1  0.64999751  0.51776220  0.78782298  1  0.092257  0  0.099516  0.102186  0  1.009093  0
H  H24  1  0.35000242  0.48223542  0.21217397  1  0.092308  0  0.099535  0.102194  0  1.009076  0
H  H25  1  0.05072069  0.68941539  0.70522227  1  0.107299  0  0.098899  0.098862  0  1.049951  0
H  H26  1  0.94927847  0.31058574  0.29477821  1  0.107305  0  0.098896  0.098844  0  1.049944  0
H  H27  1  0.09983045  0.49841201  0.60381506  1  0.070171  0  0.101942  0.106444  0  0.99376  0
H  H28  1  0.90017088  0.50158912  0.39618405  1  0.069862  0  0.101965  0.106462  0  0.993822  0
H  H29  1  0.23153540  0.77841534  0.88228684  1  0.10605  0  0.116117  0.090261  0  1.023138  0
H  H30  1  0.76846450  0.22158492  0.11771540  1  0.106085  0  0.116118  0.090254  0  1.023147  0
H  H31  1  0.03441624  0.63875976  0.91573511  1  0.092578  0  0.106622  0.112954  0  1.037665  0
H  H32  1  0.96558367  0.36124049  0.08426783  1  0.092578  0  0.10662  0.112955  0  1.037648  0
H  H33  1  0.39396269  0.57974442  0.06574145  1  0.080105  0  0.10581  0.114083  0  1.000506  0
H  H34  1  0.60604158  0.42025320  0.93425695  1  0.080215  0  0.105826  0.114106  0  1.000498  0
H  H35  1  0.57971485  0.72144248  0.02189758  1  0.112675  0  0.117333  0.092746  0  0.986454  0
H  H36  1  0.42028689  0.27855427  0.97809762  1  0.112708  0  0.117385  0.092759  0  0.986462  0
H  H37  1  0.10976413  0.42733575  0.98572490  1  0.043082  0  0.101049  0.103707  0  0.977084  0
H  H38  1  0.89023825  0.57266802  0.01427812  1  0.043097  0  0.10106  0.103723  0  0.977021  0
H  H39  1  0.10200757  0.54345529  0.10594121  1  0.073693  0  0.09738  0.100859  0  1.010353  0
H  H40  1  0.89799845  0.45654672  0.89405973  1  0.073742  0  0.097361  0.10082  0  1.010322  0
C  C41  1  0.71836498  0.01894471  0.13541003  1  1.516063  0  0.207997  0.588056  0  4.162535  0
C  C42  1  0.28163383  0.98105554  0.86458939  1  1.516316  0  0.207928  0.588025  0  4.162576  0
C  C43  1  0.77119729  0.08631599  0.25159948  1  -0.047546  0  -0.024126  -0.051169  0  3.991768  0
C  C44  1  0.22880334  0.91368339  0.74840030  1  -0.047596  0  -0.02413  -0.051214  0  3.991837  0
C  C45  1  0.69712174  0.16297908  0.31829915  1  -0.058788  0  -0.082366  -0.08465  0  3.967359  0
C  C46  1  0.30287851  0.83702205  0.68170205  1  -0.058804  0  -0.082395  -0.084763  0  3.967445  0
C  C47  1  0.75318205  0.22849128  0.42653883  1  -0.018001  0  -0.09586  -0.147595  0  3.984979  0
C  C48  1  0.24681893  0.77150897  0.57346132  1  -0.018068  0  -0.095823  -0.147494  0  3.984953  0
C  C49  1  0.88286905  0.21801670  0.46995953  1  -0.062502  0  -0.000684  0.101913  0  3.949329  0
C  C50  1  0.11713228  0.78198443  0.53004099  1  -0.062813  0  -0.000675  0.101903  0  3.949361  0
C  C51  1  0.95524321  0.13992245  0.40283553  1  -0.020689  0  -0.091233  -0.141522  0  3.97264  0
C  C52  1  0.04475635  0.86007693  0.59716564  1  -0.02175  0  -0.091294  -0.14161  0  3.972511  0
C  C53  1  0.90030233  0.07496393  0.29504087  1  -0.009981  0  -0.079355  -0.064446  0  3.966203  0
C  C54  1  0.09969901  0.92503720  0.70496175  1  -0.009928  0  -0.07927  -0.064304  0  3.965989  0
C  C55  1  0.94630739  0.28583083  0.58763861  1  0.038287  0  -0.070666  -0.113341  0  3.920306  0
C  C56  1  0.05369324  0.71416855  0.41235906  1  0.03833  0  -0.070684  -0.113395  0  3.920431  0
C  C57  1  0.90336202  0.21130537  0.64473376  1  -0.047017  0  -0.001849  0.099691  0  3.948036  0
C  C58  1  0.09663680  0.78869489  0.35526635  1  -0.047041  0  -0.001866  0.099674  0  3.94811  0
C  C59  1  0.00029570  0.23984261  0.73623166  1  0.001686  0  -0.095995  -0.147317  0  3.995931  0
C  C60  1  0.99970458  0.76015589  0.26376846  1  0.001642  0  -0.095963  -0.147242  0  3.996102  0
C  C61  1  0.96073628  0.17974868  0.79528860  1  -0.10018  0  -0.083876  -0.083926  0  3.985083  0
C  C62  1  0.03926292  0.82024983  0.20471150  1  -0.100147  0  -0.083895  -0.08394  0  3.98521  0
C  C63  1  0.82303084  0.08872649  0.76358057  1  -0.032651  0  -0.021088  -0.040462  0  3.969969  0
C  C64  1  0.17696870  0.91127288  0.23641849  1  -0.032653  0  -0.0211  -0.040493  0  3.969925  0
C  C65  1  0.72708418  0.05819205  0.67116290  1  -0.023253  0  -0.082575  -0.08326  0  3.972391  0
C  C66  1  0.27291463  0.94180821  0.32883651  1  -0.023307  0  -0.082582  -0.083259  0  3.97249  0
C  C67  1  0.76701413  0.11908821  0.61243772  1  -0.050272  0  -0.095766  -0.147202  0  3.995899  0
C  C68  1  0.23298394  0.88091292  0.38756134  1  -0.050213  0  -0.095763  -0.147166  0  3.995858  0
C  C69  1  0.77963092  0.02637969  0.82908906  1  1.564876  0  0.20513  0.581254  0  4.20496  0
C  C70  1  0.22036897  0.97362057  0.17091037  1  1.564874  0  0.205116  0.58122  0  4.204933  0
C  C71  1  0.90743399  0.39989281  0.64359973  1  0.006903  0  -0.005029  0.094928  0  3.954433  0
C  C72  1  0.09256517  0.60010832  0.35640145  1  0.006908  0  -0.005079  0.094857  0  3.954515  0
C  C73  1  0.77932854  0.40589297  0.69426549  1  -0.047446  0  -0.098186  -0.15163  0  4.012265  0
C  C74  1  0.22066993  0.59410640  0.30573426  1  -0.047766  0  -0.098172  -0.151589  0  4.012158  0
C  C75  1  0.74910600  0.51227320  0.74788998  1  -0.080431  0  -0.090205  -0.098614  0  4.002751  0
C  C76  1  0.25089215  0.48772267  0.25210763  1  -0.080136  0  -0.090201  -0.098548  0  4.002524  0
C  C77  1  0.84893303  0.61547330  0.75458399  1  0.005609  0  -0.022357  -0.039437  0  3.968451  0
C  C78  1  0.15106222  0.38452345  0.24541534  1  0.005683  0  -0.022395  -0.039586  0  3.968613  0
C  C79  1  0.97423953  0.60929178  0.70106013  1  -0.075798  0  -0.08601  -0.089652  0  3.985419  0
C  C80  1  0.02576072  0.39070935  0.29894037  1  -0.075856  0  -0.086018  -0.089643  0  3.985528  0
C  C81  1  0.00181804  0.50230810  0.64520962  1  -0.108215  0  -0.092554  -0.143225  0  3.986836  0
C  C82  1  0.99818186  0.49769215  0.35479051  1  -0.107895  0  -0.092568  -0.143211  0  3.986864  0
C  C83  1  0.82547692  0.73145099  0.82402653  1  1.572438  0  0.207283  0.594452  0  4.201522  0
C  C84  1  0.17452012  0.26854751  0.17597284  1  1.572395  0  0.207372  0.594689  0  4.201428  0
C  C85  1  0.26377225  0.73164396  0.92144573  1  0.535474  0  0.052629  0.118807  0  3.935626  0
C  C86  1  0.73623160  0.26835805  0.07855517  1  0.535427  0  0.052624  0.118793  0  3.935555  0
C  C87  1  0.15315339  0.65310260  0.94158828  1  -0.077495  0  -0.084119  -0.174017  0  3.922804  0
C  C88  1  0.84684721  0.34689941  0.05841329  1  -0.078011  0  -0.084114  -0.173964  0  3.922772  0
C  C89  1  0.19627736  0.59585150  0.99405880  1  0.01192  0  0.014011  0.169949  0  3.939223  0
C  C90  1  0.80372580  0.40414875  0.00594208  1  0.012031  0  0.013995  0.169885  0  3.939367  0
C  C91  1  0.35321535  0.62130957  0.02392210  1  -0.043577  0  -0.09185  -0.201482  0  3.968764  0
C  C92  1  0.64678745  0.37868980  0.97607771  1  -0.043525  0  -0.091862  -0.201453  0  3.968865  0
C  C93  1  0.45709429  0.69997687  0.00038261  1  0.448438  0  0.041263  0.094916  0  3.971373  0
C  C94  1  0.54290993  0.30002338  0.99961407  1  0.448069  0  0.041207  0.094887  0  3.971454  0
C  C95  1  0.08292098  0.51091874  0.01944062  1  -0.01861  0  -0.156904  -0.201689  0  3.967381  0
C  C96  1  0.91708223  0.48907888  0.98056199  1  -0.04847  0  -0.156844  -0.20164  0  3.967401  0
N  N97  1  0.41316160  0.75478386  0.94973401  1  -1.224292  0  -0.333937  -0.244271  0  3.509475  0
N  N98  1  0.58683795  0.24521552  0.05026506  1  -1.22398  0  -0.333936  -0.244285  0  3.509349  0
O  O99  1  0.78486180  0.94519324  0.07784379  1  -1.181337  0  -0.334818  -0.594606  0  2.295165  0
O  O100  1  0.21513524  0.05480526  0.92215558  1  -1.18147  0  -0.334777  -0.594597  0  2.295203  0
O  O101  1  0.60744544  0.03351028  0.09273486  1  -1.169984  0  -0.322638  -0.568884  0  2.35904  0
O  O102  1  0.39255550  0.96649260  0.90726566  1  -1.170088  0  -0.322617  -0.568881  0  2.359035  0
O  O103  1  0.85946556  0.06888387  0.91985545  1  -1.192334  0  -0.335716  -0.601858  0  2.328219  0
O  O104  1  0.14053360  0.93111726  0.08014433  1  -1.192324  0  -0.335708  -0.601842  0  2.328211  0
O  O105  1  0.66223504  0.93573094  0.79103282  1  -1.138092  0  -0.324608  -0.538474  0  2.260059  0
O  O106  1  0.33776520  0.06427019  0.20896697  1  -1.138104  0  -0.324588  -0.538447  0  2.260037  0
O  O107  1  0.94298106  0.82149475  0.85792310  1  -1.157207  0  -0.327555  -0.566938  0  2.287971  0
O  O108  1  0.05701343  0.17850550  0.14207836  1  -1.157283  0  -0.327574  -0.566977  0  2.287796  0
O  O109  1  0.69190027  0.72860164  0.84487966  1  -1.17005  0  -0.336245  -0.576987  0  2.298247  0
O  O110  1  0.30809499  0.27139511  0.15511896  1  -1.169981  0  -0.336263  -0.577087  0  2.298349  0
