# generated using pymatgen
data_NaPH20C14(NO)2
_symmetry_space_group_name_H-M   'P 1'
_cell_length_a   8.30047774
_cell_length_b   8.66909254
_cell_length_c   12.42003692
_cell_angle_alpha   95.18162938
_cell_angle_beta   90.01429551
_cell_angle_gamma   118.58205633
_symmetry_Int_Tables_number   1
_chemical_formula_structural   NaPH20C14(NO)2
_chemical_formula_sum   'Na2 P2 H40 C28 N4 O4'
_cell_volume   780.62881205
_cell_formula_units_Z   2
loop_
 _symmetry_equiv_pos_site_id
 _symmetry_equiv_pos_as_xyz
  1  'x, y, z'
loop_
 _atom_site_type_symbol
 _atom_site_label
 _atom_site_symmetry_multiplicity
 _atom_site_fract_x
 _atom_site_fract_y
 _atom_site_fract_z
 _atom_site_occupancy
 _atom_site_hle17_bader_spin_density
 _atom_site_hle17_ddec_charge
 _atom_site_hle17_ddec_spin_density
 _atom_site_hle17_ddec_sum_bond_order
 _atom_site_hle17_magmom
 _atom_site_hse06_10hf_bader_spin_density
 _atom_site_hse06_10hf_ddec_charge
 _atom_site_hse06_10hf_ddec_spin_density
 _atom_site_hse06_10hf_ddec_sum_bond_order
 _atom_site_hse06_10hf_magmom
 _atom_site_hse06_bader_spin_density
 _atom_site_hse06_ddec_charge
 _atom_site_hse06_ddec_spin_density
 _atom_site_hse06_ddec_sum_bond_order
 _atom_site_hse06_magmom
 _atom_site_pbe_bader_spin_density
 _atom_site_pbe_cm5_charge
 _atom_site_pbe_ddec_charge
 _atom_site_pbe_ddec_spin_density
 _atom_site_pbe_ddec_sum_bond_order
 _atom_site_pbe_magmom
Na  Na0  1  0.18569680  0.73512398  0.82423003  1  0  0.85281  0  0.449478  0  0  0.78239  0  0.61816  0  0  0.796183  0  0.595881  0  0  0.715551  0.77262  0  0.633745  0
Na  Na1  1  0.54962816  0.73538295  0.32421712  1  0  0.852811  0  0.449515  0  0  0.78243  0  0.618145  0  0  0.796216  0  0.595881  0  0  0.715685  0.772662  0  0.633723  0
P  P2  1  0.31208025  0.75421627  0.55017100  1  0  0.371663  0  3.143407  0  0  0.337133  0  3.520055  0  0  0.356217  0  3.521148  0  0  0.214011  0.324488  0  3.519157  0
P  P3  1  0.44157788  0.75370823  0.05029468  1  0  0.37075  0  3.143506  0  0  0.336225  0  3.52003  0  0  0.355307  0  3.521114  0  0  0.21355  0.323578  0  3.519155  0
H  H4  1  0.30692762  0.07584821  0.51545133  1  0  0.05723  0  1.027458  0  0  0.059949  0  1.110169  0  0  0.061833  0  1.11076  0  0  0.082144  0.058542  0  1.109889  0
H  H5  1  0.76875724  0.07532422  0.01580153  1  0  0.056995  0  1.027106  0  0  0.059567  0  1.110033  0  0  0.061496  0  1.110582  0  0  0.082023  0.058158  0  1.109765  0
H  H6  1  0.38111842  0.31854138  0.39745765  1  0  0.088404  0  0.962896  0  0  0.101636  0  1.023036  0  0  0.105056  0  1.020456  0  0  0.100294  0.09913  0  1.025018  0
H  H7  1  0.93679446  0.31806311  0.89777488  1  0  0.088205  0  0.961915  0  0  0.101297  0  1.022278  0  0  0.10476  0  1.019651  0  0  0.10031  0.098806  0  1.024239  0
H  H8  1  0.17791987  0.35688570  0.77606795  1  0  0.097461  0  0.967997  0  0  0.106547  0  1.034226  0  0  0.109793  0  1.032283  0  0  0.099902  0.104248  0  1.035626  0
H  H9  1  0.17898498  0.35652436  0.27627003  1  0  0.097034  0  0.968394  0  0  0.10637  0  1.034479  0  0  0.109623  0  1.032513  0  0  0.099833  0.104073  0  1.035877  0
H  H10  1  0.20640102  0.09517937  0.70094341  1  0  0.084363  0  0.970664  0  0  0.09552  0  1.030736  0  0  0.098962  0  1.028654  0  0  0.097827  0.093005  0  1.032371  0
H  H11  1  0.88902333  0.09468788  0.20124924  1  0  0.084796  0  0.970406  0  0  0.095851  0  1.030497  0  0  0.099395  0  1.028318  0  0  0.098023  0.093279  0  1.032188  0
H  H12  1  0.50934113  0.17798558  0.75762824  1  0  0.048085  0  0.950548  0  0  0.05952  0  1.023565  0  0  0.059882  0  1.022977  0  0  0.097777  0.059176  0  1.024032  0
H  H13  1  0.66926969  0.17854327  0.25760304  1  0  0.048199  0  0.951264  0  0  0.059824  0  1.023963  0  0  0.060193  0  1.023392  0  0  0.097707  0.05948  0  1.02442  0
H  H14  1  0.61579038  0.11899055  0.86024528  1  0  0.03612  0  0.948371  0  0  0.051928  0  1.014788  0  0  0.052143  0  1.014416  0  0  0.093  0.051641  0  1.015157  0
H  H15  1  0.50343825  0.11956045  0.35995084  1  0  0.03625  0  0.94859  0  0  0.052107  0  1.014752  0  0  0.052326  0  1.014406  0  0  0.092995  0.051793  0  1.015152  0
H  H16  1  0.93620245  0.91446300  0.89332868  1  0  0.046945  0  0.954264  0  0  0.060906  0  1.019462  0  0  0.061103  0  1.01958  0  0  0.098551  0.060686  0  1.019461  0
H  H17  1  0.97863153  0.91470932  0.39330233  1  0  0.047003  0  0.95388  0  0  0.061112  0  1.019043  0  0  0.061259  0  1.019199  0  0  0.098471  0.060895  0  1.019042  0
H  H18  1  0.72267650  0.72726514  0.91586714  1  0  0.033091  0  0.967915  0  0  0.040019  0  1.046916  0  0  0.040731  0  1.045957  0  0  0.0866  0.039434  0  1.047618  0
H  H19  1  0.00484484  0.72726878  0.41559957  1  0  0.032653  0  0.968437  0  0  0.039653  0  1.047422  0  0  0.040373  0  1.046439  0  0  0.08649  0.039072  0  1.048124  0
H  H20  1  0.56151532  0.22594814  0.06696111  1  0  0.065726  0  0.953801  0  0  0.081566  0  1.020964  0  0  0.081869  0  1.022204  0  0  0.087391  0.081282  0  1.020155  0
H  H21  1  0.66421633  0.22613788  0.56690709  1  0  0.065604  0  0.953922  0  0  0.081455  0  1.021115  0  0  0.081755  0  1.022359  0  0  0.087293  0.081175  0  1.020305  0
H  H22  1  0.44927792  0.35809268  0.07366659  1  0  0.08311  0  0.968901  0  0  0.099865  0  1.029307  0  0  0.100114  0  1.031205  0  0  0.094531  0.099599  0  1.028074  0
H  H23  1  0.90853001  0.35809535  0.57383877  1  0  0.083103  0  0.969009  0  0  0.099833  0  1.029422  0  0  0.100119  0  1.031288  0  0  0.094679  0.099567  0  1.028202  0
H  H24  1  0.24814492  0.99586393  0.03157898  1  0  0.041906  0  0.966662  0  0  0.053682  0  1.040064  0  0  0.053797  0  1.039852  0  0  0.096876  0.05351  0  1.040261  0
H  H25  1  0.74752171  0.99590381  0.53162832  1  0  0.041987  0  0.966144  0  0  0.053832  0  1.039703  0  0  0.053953  0  1.039473  0  0  0.096889  0.053642  0  1.039919  0
H  H26  1  0.18754245  0.13720395  0.96493924  1  0  0.046964  0  0.955375  0  0  0.059109  0  1.02364  0  0  0.059089  0  1.024747  0  0  0.092168  0.059033  0  1.02298  0
H  H27  1  0.94951560  0.13725962  0.46511302  1  0  0.046954  0  0.955014  0  0  0.059032  0  1.023476  0  0  0.058953  0  1.024654  0  0  0.092089  0.058955  0  1.022807  0
H  H28  1  0.71262037  0.42565093  0.92609214  1  0  0.083393  0  0.953836  0  0  0.099455  0  1.016193  0  0  0.100684  0  1.0162  0  0  0.09684  0.098541  0  1.016228  0
H  H29  1  0.71316073  0.42604514  0.42607024  1  0  0.083402  0  0.95317  0  0  0.099358  0  1.015805  0  0  0.100526  0  1.015879  0  0  0.096733  0.098476  0  1.015806  0
H  H30  1  0.49927293  0.40685137  0.88160411  1  0  0.079348  0  0.930826  0  0  0.097309  0  0.990652  0  0  0.097591  0  0.992463  0  0  0.093858  0.097043  0  0.989485  0
H  H31  1  0.90773409  0.40715329  0.38181536  1  0  0.079492  0  0.931005  0  0  0.097616  0  0.990585  0  0  0.097901  0  0.992396  0  0  0.093945  0.097343  0  0.989413  0
H  H32  1  0.66184945  0.49520978  0.70128266  1  0  0.048832  0  0.928452  0  0  0.063658  0  0.992553  0  0  0.063545  0  0.993615  0  0  0.095137  0.063624  0  0.99194  0
H  H33  1  0.83371318  0.49553550  0.20123896  1  0  0.048791  0  0.92749  0  0  0.063801  0  0.991624  0  0  0.063707  0  0.992683  0  0  0.095089  0.063752  0  0.991015  0
H  H34  1  0.88474999  0.58238556  0.64569094  1  0  0.052958  0  0.960777  0  0  0.064049  0  1.031287  0  0  0.064224  0  1.031111  0  0  0.101884  0.063854  0  1.031448  0
H  H35  1  0.69797354  0.58266198  0.14549202  1  0  0.053095  0  0.960919  0  0  0.064444  0  1.031234  0  0  0.064615  0  1.031063  0  0  0.102194  0.064252  0  1.031384  0
H  H36  1  0.57140534  0.77148265  0.77240506  1  0  0.075133  0  0.957302  0  0  0.086421  0  1.027048  0  0  0.087291  0  1.028338  0  0  0.092627  0.085726  0  1.026263  0
H  H37  1  0.20046413  0.77190957  0.27228254  1  0  0.074783  0  0.957909  0  0  0.086314  0  1.027423  0  0  0.087211  0  1.028684  0  0  0.092536  0.085611  0  1.026641  0
H  H38  1  0.76798983  0.98052106  0.76591485  1  0  0.070887  0  0.942993  0  0  0.090078  0  1.000847  0  0  0.090678  0  1.001566  0  0  0.091615  0.089643  0  1.000339  0
H  H39  1  0.21261888  0.98087210  0.26574653  1  0  0.070698  0  0.943373  0  0  0.089824  0  1.001401  0  0  0.09042  0  1.00213  0  0  0.091568  0.089391  0  1.000885  0
H  H40  1  0.89612234  0.86412115  0.62792906  1  0  0.068853  0  0.951211  0  0  0.085474  0  1.015295  0  0  0.085764  0  1.016392  0  0  0.090968  0.085193  0  1.014594  0
H  H41  1  0.96822980  0.86436869  0.12768950  1  0  0.068827  0  0.951005  0  0  0.085442  0  1.015338  0  0  0.085751  0  1.016421  0  0  0.09072  0.085159  0  1.014637  0
H  H42  1  0.65831497  0.71768646  0.59472701  1  0  0.080575  0  0.97035  0  0  0.096129  0  1.034304  0  0  0.09638  0  1.036131  0  0  0.095306  0.095872  0  1.033141  0
H  H43  1  0.05959530  0.71782898  0.09461207  1  0  0.080587  0  0.970981  0  0  0.09635  0  1.034704  0  0  0.096592  0  1.03653  0  0  0.095397  0.09609  0  1.033543  0
C  C44  1  0.29476117  0.19198125  0.54504101  1  0  -0.106212  0  3.865155  0  0  -0.119425  0  4.122211  0  0  -0.122076  0  4.146255  0  0  -0.113959  -0.117547  0  4.105897  0
C  C45  1  0.89702974  0.19147184  0.04533722  1  0  -0.10565  0  3.863521  0  0  -0.118706  0  4.120596  0  0  -0.121426  0  4.144701  0  0  -0.113579  -0.116817  0  4.104243  0
C  C46  1  0.33617716  0.32637688  0.47940305  1  0  -0.169154  0  3.780526  0  0  -0.185644  0  4.027482  0  0  -0.18842  0  4.04725  0  0  -0.103852  -0.183674  0  4.014131  0
C  C47  1  0.98978224  0.32585470  0.97968034  1  0  -0.169357  0  3.77871  0  0  -0.185511  0  4.026088  0  0  -0.188323  0  4.04586  0  0  -0.104099  -0.183554  0  4.012735  0
C  C48  1  0.31926589  0.47509232  0.51977889  1  0  0.177179  0  3.85476  0  0  0.18442  0  4.090564  0  0  0.187767  0  4.114887  0  0  0.084523  0.18213  0  4.074121  0
C  C49  1  0.15535127  0.47462238  0.02000457  1  0  0.177776  0  3.854286  0  0  0.184052  0  4.091291  0  0  0.187375  0  4.115667  0  0  0.084458  0.181778  0  4.074818  0
C  C50  1  0.21959530  0.34762164  0.69341324  1  0  -0.160387  0  3.749597  0  0  -0.176599  0  3.996022  0  0  -0.17896  0  4.015835  0  0  -0.100653  -0.174927  0  3.982575  0
C  C51  1  0.12791255  0.34720448  0.19363340  1  0  -0.159965  0  3.749868  0  0  -0.176546  0  3.996153  0  0  -0.178912  0  4.016003  0  0  -0.100877  -0.174871  0  3.982679  0
C  C52  1  0.25951802  0.48545312  0.62805826  1  0  0.179002  0  3.846029  0  0  0.186959  0  4.079947  0  0  0.19027  0  4.103946  0  0  0.086257  0.184668  0  4.063778  0
C  C53  1  0.22561021  0.48504793  0.12826559  1  0  0.178714  0  3.846168  0  0  0.187247  0  4.079822  0  0  0.190564  0  4.103823  0  0  0.086543  0.184953  0  4.063647  0
C  C54  1  0.23661212  0.20241058  0.65111423  1  0  -0.099422  0  3.83393  0  0  -0.111322  0  4.084862  0  0  -0.114226  0  4.107652  0  0  -0.109223  -0.109288  0  4.069371  0
C  C55  1  0.96577876  0.20193603  0.15139537  1  0  -0.099883  0  3.8338  0  0  -0.111606  0  4.084571  0  0  -0.114603  0  4.107386  0  0  -0.109338  -0.109524  0  4.069102  0
C  C56  1  0.51743900  0.16704764  0.84470568  1  0  0.098  0  3.616684  0  0  0.041518  0  3.887939  0  0  0.048862  0  3.893705  0  0  -0.072461  0.03666  0  3.883866  0
C  C57  1  0.64985301  0.16745256  0.34463845  1  0  0.097568  0  3.617385  0  0  0.041095  0  3.888286  0  0  0.048409  0  3.894068  0  0  -0.072545  0.036264  0  3.884201  0
C  C58  1  0.81765339  0.79656679  0.85345782  1  0  0.093592  0  3.589655  0  0  0.04306  0  3.853591  0  0  0.049874  0  3.859662  0  0  -0.073585  0.038539  0  3.849306  0
C  C59  1  0.97922842  0.79683445  0.35330047  1  0  0.093998  0  3.589116  0  0  0.043228  0  3.853313  0  0  0.050078  0  3.859417  0  0  -0.073434  0.038701  0  3.849028  0
C  C60  1  0.47498096  0.26432634  0.02128611  1  0  -0.151293  0  3.686841  0  0  -0.189499  0  3.940098  0  0  -0.192058  0  3.954621  0  0  -0.170554  -0.187571  0  3.93005  0
C  C61  1  0.78918122  0.26445453  0.52135506  1  0  -0.150973  0  3.68643  0  0  -0.189184  0  3.940101  0  0  -0.191762  0  3.954568  0  0  -0.170556  -0.187268  0  3.930061  0
C  C62  1  0.29696775  0.10269322  0.97869075  1  0  0.091633  0  3.606776  0  0  0.036036  0  3.878078  0  0  0.043131  0  3.883819  0  0  -0.077701  0.031306  0  3.874074  0
C  C63  1  0.80559212  0.10278848  0.47877595  1  0  0.091653  0  3.60583  0  0  0.035725  0  3.877791  0  0  0.042859  0  3.883516  0  0  -0.077674  0.031013  0  3.873773  0
C  C64  1  0.56422144  0.33639771  0.91624290  1  0  -0.150089  0  3.677925  0  0  -0.189052  0  3.936364  0  0  -0.191606  0  3.950153  0  0  -0.169471  -0.187185  0  3.92683  0
C  C65  1  0.77226636  0.33670681  0.41630091  1  0  -0.150493  0  3.677466  0  0  -0.189597  0  3.936095  0  0  -0.19212  0  3.949886  0  0  -0.169573  -0.187738  0  3.926545  0
C  C66  1  0.79457428  0.61553479  0.69560728  1  0  0.096948  0  3.611058  0  0  0.045454  0  3.875438  0  0  0.052518  0  3.881053  0  0  -0.073464  0.040749  0  3.871484  0
C  C67  1  0.82127923  0.61586848  0.19545369  1  0  0.097269  0  3.610276  0  0  0.045183  0  3.875429  0  0  0.052232  0  3.881066  0  0  -0.073688  0.040491  0  3.871459  0
C  C68  1  0.72061103  0.83839105  0.76390585  1  0  -0.146104  0  3.651394  0  0  -0.184553  0  3.908954  0  0  -0.187395  0  3.923239  0  0  -0.167098  -0.182495  0  3.89907  0
C  C69  1  0.11803841  0.83873090  0.26374486  1  0  -0.145395  0  3.650015  0  0  -0.184003  0  3.907942  0  0  -0.186852  0  3.922229  0  0  -0.167053  -0.181944  0  3.898056  0
C  C70  1  0.76749031  0.76418582  0.65847509  1  0  -0.152644  0  3.681973  0  0  -0.191202  0  3.937215  0  0  -0.193017  0  3.950517  0  0  -0.169172  -0.189827  0  3.928041  0
C  C71  1  0.99694276  0.76443056  0.15830251  1  0  -0.153121  0  3.681496  0  0  -0.191975  0  3.937388  0  0  -0.193803  0  3.950699  0  0  -0.169141  -0.190591  0  3.928208  0
N  N72  1  0.24815904  0.63689387  0.65545033  1  0  -0.662679  0  3.065684  0  0  -0.60771  0  3.348779  0  0  -0.624988  0  3.357597  0  0  -0.479067  -0.595856  0  3.342597  0
N  N73  1  0.38832098  0.63650848  0.15562619  1  0  -0.662218  0  3.066009  0  0  -0.607377  0  3.348987  0  0  -0.624643  0  3.357801  0  0  -0.479052  -0.595534  0  3.342812  0
N  N74  1  0.35519249  0.61942232  0.46664630  1  0  -0.659269  0  3.051406  0  0  -0.608085  0  3.339281  0  0  -0.625344  0  3.348187  0  0  -0.479946  -0.596248  0  3.333036  0
N  N75  1  0.26358934  0.61892808  0.96683711  1  0  -0.658791  0  3.050602  0  0  -0.607423  0  3.338929  0  0  -0.624658  0  3.347809  0  0  -0.479468  -0.595597  0  3.332685  0
O  O76  1  0.33680058  0.03782036  0.87491790  1  0  -0.402258  0  2.167163  0  0  -0.328808  0  2.422345  0  0  -0.344248  0  2.41919  0  0  -0.313758  -0.318041  0  2.424204  0
O  O77  1  0.70099366  0.03802927  0.37496109  1  0  -0.402085  0  2.167673  0  0  -0.328484  0  2.422929  0  0  -0.343923  0  2.419788  0  0  -0.313484  -0.31771  0  2.424754  0
O  O78  1  0.88642082  0.68393829  0.80169961  1  0  -0.390743  0  2.181353  0  0  -0.31785  0  2.431791  0  0  -0.332954  0  2.428382  0  0  -0.311672  -0.307247  0  2.433758  0
O  O79  1  0.79787203  0.68442115  0.30150573  1  0  -0.391018  0  2.18155  0  0  -0.317903  0  2.43227  0  0  -0.333001  0  2.42884  0  0  -0.311657  -0.307299  0  2.43424  0
