# generated using pymatgen
data_NaH7(CO)6
_symmetry_space_group_name_H-M   'P 1'
_cell_length_a   4.45101838
_cell_length_b   8.56221309
_cell_length_c   18.78481326
_cell_angle_alpha   90.00010276
_cell_angle_beta   89.99998676
_cell_angle_gamma   90.00004007
_symmetry_Int_Tables_number   1
_chemical_formula_structural   NaH7(CO)6
_chemical_formula_sum   'Na4 H28 C24 O24'
_cell_volume   715.89990049
_cell_formula_units_Z   4
loop_
 _symmetry_equiv_pos_site_id
 _symmetry_equiv_pos_as_xyz
  1  'x, y, z'
loop_
 _atom_site_type_symbol
 _atom_site_label
 _atom_site_symmetry_multiplicity
 _atom_site_fract_x
 _atom_site_fract_y
 _atom_site_fract_z
 _atom_site_occupancy
 _atom_site_hle17_bader_spin_density
 _atom_site_hle17_ddec_charge
 _atom_site_hle17_ddec_spin_density
 _atom_site_hle17_ddec_sum_bond_order
 _atom_site_hle17_magmom
 _atom_site_hse06_10hf_bader_spin_density
 _atom_site_hse06_10hf_ddec_charge
 _atom_site_hse06_10hf_ddec_spin_density
 _atom_site_hse06_10hf_ddec_sum_bond_order
 _atom_site_hse06_10hf_magmom
 _atom_site_hse06_bader_spin_density
 _atom_site_hse06_ddec_charge
 _atom_site_hse06_ddec_spin_density
 _atom_site_hse06_ddec_sum_bond_order
 _atom_site_hse06_magmom
 _atom_site_pbe_bader_spin_density
 _atom_site_pbe_cm5_charge
 _atom_site_pbe_ddec_charge
 _atom_site_pbe_ddec_spin_density
 _atom_site_pbe_ddec_sum_bond_order
 _atom_site_pbe_magmom
Na  Na0  1  0.36042343  0.89329022  0.63155947  1  0  0.89472  0  0.346667  0  0  0.83879  0  0.497834  0  0  0.851907  0  0.47569  0  0  0.651833  0.829284  0  0.513657  0
Na  Na1  1  0.86042355  0.60670851  0.36844041  1  0  0.894723  0  0.346678  0  0  0.838809  0  0.497805  0  0  0.85193  0  0.475661  0  0  0.651833  0.829303  0  0.513629  0
Na  Na2  1  0.63957707  0.39329150  0.86843997  1  0  0.894717  0  0.346678  0  0  0.838788  0  0.497831  0  0  0.851904  0  0.475685  0  0  0.651825  0.829281  0  0.513656  0
Na  Na3  1  0.13957705  0.10670985  0.13155897  1  0  0.894727  0  0.346678  0  0  0.838791  0  0.497838  0  0  0.851908  0  0.475691  0  0  0.651834  0.829286  0  0.51366  0
H  H4  1  0.81054502  0.79003798  0.72727343  1  0  0.376236  0  0.92802  0  0  0.345736  0  1.008291  0  0  0.357258  0  0.995937  0  0  0.29584  0.337498  0  1.017107  0
H  H5  1  0.31054501  0.70996073  0.27272751  1  0  0.376273  0  0.927959  0  0  0.345769  0  1.008238  0  0  0.357292  0  0.995881  0  0  0.295856  0.337531  0  1.017053  0
H  H6  1  0.18945534  0.29003872  0.77272699  1  0  0.376181  0  0.928078  0  0  0.345664  0  1.00838  0  0  0.357188  0  0.996025  0  0  0.295814  0.337404  0  1.017234  0
H  H7  1  0.68945573  0.20996031  0.22727249  1  0  0.376249  0  0.927986  0  0  0.345749  0  1.008256  0  0  0.357272  0  0.995899  0  0  0.295849  0.337511  0  1.01707  0
H  H8  1  0.49660523  0.17988020  0.70295940  1  0  0.366717  0  0.929888  0  0  0.342376  0  1.001158  0  0  0.352863  0  0.989223  0  0  0.297244  0.335  0  1.009491  0
H  H9  1  0.99660346  0.32011777  0.29704059  1  0  0.366733  0  0.929866  0  0  0.34239  0  1.001135  0  0  0.352877  0  0.989196  0  0  0.297239  0.335014  0  1.009465  0
H  H10  1  0.50339498  0.67988196  0.79704093  1  0  0.366699  0  0.929901  0  0  0.342349  0  1.001182  0  0  0.352838  0  0.989241  0  0  0.297232  0.334974  0  1.009513  0
H  H11  1  0.00339518  0.82011781  0.20295950  1  0  0.366812  0  0.929853  0  0  0.342462  0  1.001117  0  0  0.352949  0  0.98918  0  0  0.297279  0.33509  0  1.009441  0
H  H12  1  0.90670971  0.89693869  0.52225573  1  0  0.381803  0  0.904082  0  0  0.359663  0  0.972143  0  0  0.370015  0  0.960123  0  0  0.300961  0.35239  0  0.980416  0
H  H13  1  0.40671159  0.60306005  0.47774414  1  0  0.381796  0  0.904102  0  0  0.359661  0  0.97216  0  0  0.370012  0  0.960142  0  0  0.300942  0.352387  0  0.980436  0
H  H14  1  0.09329080  0.39694021  0.97774424  1  0  0.38181  0  0.904069  0  0  0.359666  0  0.972142  0  0  0.370017  0  0.960123  0  0  0.300967  0.352393  0  0.980415  0
H  H15  1  0.59328900  0.10305996  0.02225577  1  0  0.3818  0  0.904102  0  0  0.359666  0  0.972157  0  0  0.370018  0  0.960137  0  0  0.300957  0.352393  0  0.980431  0
H  H16  1  0.16970942  0.36097918  0.61729401  1  0  0.08478  0  0.929216  0  0  0.088226  0  1.000452  0  0  0.090349  0  0.998777  0  0  0.118349  0.086872  0  1.001774  0
H  H17  1  0.66970957  0.13902101  0.38270600  1  0  0.084824  0  0.92923  0  0  0.088255  0  1.000424  0  0  0.090376  0  0.998748  0  0  0.118377  0.086901  0  1.001746  0
H  H18  1  0.83029104  0.86098023  0.88270647  1  0  0.084779  0  0.929215  0  0  0.088226  0  1.000433  0  0  0.090348  0  0.998759  0  0  0.11835  0.086872  0  1.001756  0
H  H19  1  0.33029108  0.63902200  0.11729394  1  0  0.084779  0  0.929223  0  0  0.088213  0  1.000432  0  0  0.090336  0  0.998756  0  0  0.11837  0.086861  0  1.001752  0
H  H20  1  0.97896449  0.13087071  0.67411213  1  0  0.046993  0  0.964201  0  0  0.055998  0  1.029789  0  0  0.057887  0  1.027955  0  0  0.113161  0.054517  0  1.031352  0
H  H21  1  0.47896239  0.36912959  0.32588733  1  0  0.046992  0  0.964144  0  0  0.056004  0  1.029755  0  0  0.057897  0  1.027917  0  0  0.113165  0.054528  0  1.031312  0
H  H22  1  0.02103341  0.63087124  0.82588763  1  0  0.046995  0  0.964185  0  0  0.055995  0  1.029784  0  0  0.057885  0  1.027949  0  0  0.113166  0.054515  0  1.031345  0
H  H23  1  0.52103407  0.86912971  0.17411280  1  0  0.046991  0  0.96414  0  0  0.055992  0  1.029766  0  0  0.057885  0  1.027928  0  0  0.113162  0.054519  0  1.031321  0
H  H24  1  0.72715478  0.14786130  0.52341541  1  0  0.06045  0  0.92846  0  0  0.074885  0  0.995475  0  0  0.075621  0  0.99434  0  0  0.103089  0.074329  0  0.996302  0
H  H25  1  0.22715252  0.35213774  0.47658459  1  0  0.060452  0  0.928463  0  0  0.07485  0  0.995505  0  0  0.075602  0  0.994354  0  0  0.103122  0.074293  0  0.996332  0
H  H26  1  0.27284988  0.64786251  0.97658489  1  0  0.06047  0  0.928458  0  0  0.074856  0  0.995497  0  0  0.075605  0  0.994346  0  0  0.103124  0.0743  0  0.996323  0
H  H27  1  0.77284842  0.85213618  0.02341605  1  0  0.060436  0  0.928479  0  0  0.074835  0  0.995528  0  0  0.075586  0  0.994378  0  0  0.103081  0.074279  0  0.996355  0
H  H28  1  0.11908494  0.14603109  0.54266396  1  0  0.051623  0  0.965207  0  0  0.058909  0  1.044337  0  0  0.060361  0  1.042138  0  0  0.100311  0.057575  0  1.046197  0
H  H29  1  0.61908531  0.35396557  0.45733606  1  0  0.051671  0  0.965157  0  0  0.058913  0  1.044328  0  0  0.060365  0  1.042132  0  0  0.100308  0.057577  0  1.046185  0
H  H30  1  0.88091747  0.64603128  0.95733635  1  0  0.051664  0  0.965211  0  0  0.05894  0  1.044317  0  0  0.060392  0  1.042123  0  0  0.100317  0.057605  0  1.046178  0
H  H31  1  0.38091563  0.85396745  0.04266352  1  0  0.051625  0  0.965202  0  0  0.058912  0  1.044321  0  0  0.060364  0  1.042126  0  0  0.100311  0.057577  0  1.04618  0
C  C32  1  0.64350451  0.57250166  0.60254493  1  0  0.517998  0  3.92534  0  0  0.465573  0  4.234351  0  0  0.498139  0  4.230459  0  0  0.197865  0.443562  0  4.237142  0
C  C33  1  0.14348894  0.92749817  0.39745548  1  0  0.518242  0  3.925394  0  0  0.465795  0  4.234418  0  0  0.498364  0  4.230518  0  0  0.197926  0.443784  0  4.237208  0
C  C34  1  0.35650005  0.07250295  0.89745637  1  0  0.518104  0  3.925239  0  0  0.465683  0  4.234255  0  0  0.49825  0  4.230362  0  0  0.197911  0.443672  0  4.237046  0
C  C35  1  0.85650760  0.42749848  0.10254416  1  0  0.518181  0  3.925628  0  0  0.465752  0  4.234633  0  0  0.498319  0  4.230738  0  0  0.197938  0.443739  0  4.237424  0
C  C36  1  0.72327949  0.58755166  0.67592283  1  0  -0.06352  0  3.873327  0  0  -0.07527  0  4.159548  0  0  -0.085515  0  4.176304  0  0  0.011709  -0.068885  0  4.14866  0
C  C37  1  0.22328194  0.91244702  0.32407599  1  0  -0.063633  0  3.87333  0  0  -0.07537  0  4.159554  0  0  -0.085617  0  4.176308  0  0  0.011688  -0.068985  0  4.148663  0
C  C38  1  0.27672060  0.08755264  0.82407742  1  0  -0.063542  0  3.873187  0  0  -0.075306  0  4.159443  0  0  -0.08555  0  4.176202  0  0  0.011718  -0.06892  0  4.148551  0
C  C39  1  0.77671907  0.41244759  0.17592364  1  0  -0.063634  0  3.873275  0  0  -0.075383  0  4.159501  0  0  -0.08563  0  4.176258  0  0  0.011692  -0.068997  0  4.148611  0
C  C40  1  0.87570743  0.45443545  0.69761583  1  0  0.275921  0  3.871995  0  0  0.243088  0  4.165585  0  0  0.26375  0  4.175455  0  0  0.091882  0.229343  0  4.158121  0
C  C41  1  0.37570941  0.04556715  0.30238417  1  0  0.275911  0  3.872098  0  0  0.243045  0  4.165663  0  0  0.263708  0  4.175529  0  0  0.091867  0.229302  0  4.158196  0
C  C42  1  0.12429091  0.95443592  0.80238366  1  0  0.275886  0  3.871997  0  0  0.243032  0  4.165619  0  0  0.263693  0  4.175492  0  0  0.091848  0.229287  0  4.158156  0
C  C43  1  0.62428886  0.54556740  0.19761569  1  0  0.275867  0  3.87218  0  0  0.243024  0  4.165734  0  0  0.263684  0  4.175602  0  0  0.091864  0.22928  0  4.158269  0
C  C44  1  0.92871998  0.35833167  0.63071387  1  0  0.040872  0  3.607561  0  0  0.011073  0  3.865042  0  0  0.013033  0  3.874979  0  0  -7.4e-05  0.009669  0  3.85822  0
C  C45  1  0.42872203  0.14166979  0.36928666  1  0  0.040766  0  3.607633  0  0  0.0111  0  3.864965  0  0  0.013071  0  3.874888  0  0  -7.5e-05  0.009694  0  3.858141  0
C  C46  1  0.07127823  0.85833122  0.86928607  1  0  0.040889  0  3.607532  0  0  0.011122  0  3.864986  0  0  0.013081  0  3.874925  0  0  -6.2e-05  0.009716  0  3.858161  0
C  C47  1  0.57127862  0.64166975  0.13071328  1  0  0.040883  0  3.60754  0  0  0.011192  0  3.864921  0  0  0.01316  0  3.874847  0  0  -7.1e-05  0.009784  0  3.8581  0
C  C48  1  0.83675439  0.18652444  0.63341332  1  0  0.176038  0  3.656371  0  0  0.149578  0  3.912423  0  0  0.154618  0  3.921309  0  0  -0.013542  0.145756  0  3.906858  0
C  C49  1  0.33674993  0.31347698  0.36658667  1  0  0.176156  0  3.656312  0  0  0.149599  0  3.912436  0  0  0.15464  0  3.92132  0  0  -0.013551  0.145774  0  3.906865  0
C  C50  1  0.16324583  0.68652518  0.86658701  1  0  0.176083  0  3.656337  0  0  0.149605  0  3.912367  0  0  0.154646  0  3.921256  0  0  -0.013538  0.145784  0  3.906799  0
C  C51  1  0.66324645  0.81347698  0.13341340  1  0  0.176112  0  3.656247  0  0  0.149561  0  3.912393  0  0  0.1546  0  3.921278  0  0  -0.01354  0.145736  0  3.906825  0
C  C52  1  0.89733602  0.10964816  0.56228296  1  0  0.072619  0  3.661044  0  0  0.003619  0  3.949397  0  0  0.011308  0  3.951531  0  0  -0.092626  -0.001375  0  3.947944  0
C  C53  1  0.39733833  0.39034978  0.43771704  1  0  0.072529  0  3.661035  0  0  0.003623  0  3.949353  0  0  0.011296  0  3.951493  0  0  -0.092655  -0.001364  0  3.947892  0
C  C54  1  0.10266635  0.60964916  0.93771731  1  0  0.07246  0  3.661169  0  0  0.00355  0  3.949425  0  0  0.011226  0  3.951561  0  0  -0.092691  -0.001445  0  3.947971  0
C  C55  1  0.60266490  0.89035065  0.06228311  1  0  0.072591  0  3.661029  0  0  0.003636  0  3.94939  0  0  0.011309  0  3.95153  0  0  -0.092639  -0.001359  0  3.947937  0
O  O56  1  0.48088338  0.65823756  0.56496515  1  0  -0.58354  0  1.991799  0  0  -0.539768  0  2.215893  0  0  -0.560159  0  2.2049  0  0  -0.336235  -0.525949  0  2.223371  0
O  O57  1  0.98089723  0.84176939  0.43503365  1  0  -0.583665  0  1.992128  0  0  -0.539881  0  2.216221  0  0  -0.560269  0  2.205221  0  0  -0.336276  -0.526065  0  2.223701  0
O  O58  1  0.51911456  0.15823673  0.93503570  1  0  -0.583579  0  1.991817  0  0  -0.53981  0  2.215912  0  0  -0.5602  0  2.204915  0  0  -0.336251  -0.525993  0  2.223392  0
O  O59  1  0.01910369  0.34176925  0.06496858  1  0  -0.583603  0  1.992299  0  0  -0.539821  0  2.216395  0  0  -0.560209  0  2.205396  0  0  -0.336269  -0.526004  0  2.223874  0
O  O60  1  0.63064458  0.71444765  0.71548729  1  0  -0.552929  0  2.263204  0  0  -0.495012  0  2.490717  0  0  -0.510541  0  2.482609  0  0  -0.394744  -0.483844  0  2.49634  0
O  O61  1  0.13064465  0.78555333  0.28451313  1  0  -0.552933  0  2.263285  0  0  -0.495022  0  2.490789  0  0  -0.510552  0  2.48269  0  0  -0.394746  -0.483856  0  2.496408  0
O  O62  1  0.36935793  0.21444617  0.78451253  1  0  -0.552898  0  2.263206  0  0  -0.494962  0  2.490717  0  0  -0.510481  0  2.482585  0  0  -0.394752  -0.483779  0  2.496371  0
O  O63  1  0.86935619  0.28555176  0.21548587  1  0  -0.552934  0  2.263174  0  0  -0.495014  0  2.49068  0  0  -0.510535  0  2.482559  0  0  -0.394793  -0.483847  0  2.496302  0
O  O64  1  0.96344235  0.41273959  0.76015835  1  0  -0.579479  0  2.057791  0  0  -0.530394  0  2.298881  0  0  -0.552601  0  2.291703  0  0  -0.351637  -0.514632  0  2.303233  0
O  O65  1  0.46344220  0.08725604  0.23984271  1  0  -0.579495  0  2.057887  0  0  -0.530415  0  2.298986  0  0  -0.552619  0  2.291806  0  0  -0.351645  -0.514667  0  2.303325  0
O  O66  1  0.03655818  0.91273979  0.73984110  1  0  -0.579491  0  2.05781  0  0  -0.530407  0  2.298905  0  0  -0.552613  0  2.291731  0  0  -0.351636  -0.514658  0  2.303246  0
O  O67  1  0.53656062  0.58725649  0.26015612  1  0  -0.579445  0  2.057975  0  0  -0.530374  0  2.299074  0  0  -0.552576  0  2.291897  0  0  -0.351613  -0.514625  0  2.303413  0
O  O68  1  0.76724241  0.43945892  0.57432421  1  0  -0.322836  0  2.233587  0  0  -0.255543  0  2.46914  0  0  -0.274705  0  2.468375  0  0  -0.165685  -0.242169  0  2.469393  0
O  O69  1  0.26724654  0.06054014  0.42567473  1  0  -0.322869  0  2.233521  0  0  -0.255617  0  2.46907  0  0  -0.274786  0  2.468305  0  0  -0.165722  -0.24224  0  2.469321  0
O  O70  1  0.23275591  0.93945991  0.92567580  1  0  -0.322854  0  2.233593  0  0  -0.255581  0  2.469153  0  0  -0.274745  0  2.46839  0  0  -0.165694  -0.242205  0  2.469405  0
O  O71  1  0.73275400  0.56054111  0.07432514  1  0  -0.322898  0  2.233572  0  0  -0.255656  0  2.469137  0  0  -0.274824  0  2.468374  0  0  -0.165739  -0.242277  0  2.469389  0
O  O72  1  0.52883832  0.16069698  0.65096420  1  0  -0.614661  0  2.079187  0  0  -0.565639  0  2.317377  0  0  -0.582281  0  2.305493  0  0  -0.449656  -0.553875  0  2.325372  0
O  O73  1  0.02883166  0.33930199  0.34903581  1  0  -0.614716  0  2.079157  0  0  -0.565679  0  2.317379  0  0  -0.582338  0  2.305528  0  0  -0.449655  -0.553917  0  2.325373  0
O  O74  1  0.47116187  0.66069777  0.84903558  1  0  -0.614656  0  2.079164  0  0  -0.565624  0  2.317358  0  0  -0.582263  0  2.305467  0  0  -0.449662  -0.553861  0  2.325351  0
O  O75  1  0.97116476  0.83930217  0.15096482  1  0  -0.614802  0  2.079176  0  0  -0.565731  0  2.317377  0  0  -0.582381  0  2.305509  0  0  -0.449704  -0.553971  0  2.325373  0
O  O76  1  0.88596615  0.94297244  0.57091740  1  0  -0.629767  0  2.066241  0  0  -0.575836  0  2.298507  0  0  -0.591263  0  2.28432  0  0  -0.478002  -0.565002  0  2.308157  0
O  O77  1  0.38596802  0.55702630  0.42908247  1  0  -0.629769  0  2.066295  0  0  -0.575846  0  2.298507  0  0  -0.591268  0  2.284325  0  0  -0.478005  -0.565015  0  2.308158  0
O  O78  1  0.11403443  0.44297377  0.92908261  1  0  -0.629722  0  2.066279  0  0  -0.575802  0  2.2985  0  0  -0.591229  0  2.284316  0  0  -0.477987  -0.564968  0  2.30815  0
O  O79  1  0.61403252  0.05702756  0.07091740  1  0  -0.62976  0  2.066239  0  0  -0.575826  0  2.298469  0  0  -0.591249  0  2.284285  0  0  -0.478001  -0.564993  0  2.308118  0
