# generated using pymatgen
data_CoH8(C3O2)2
_symmetry_space_group_name_H-M   'P 1'
_cell_length_a   4.83138143
_cell_length_b   9.36485897
_cell_length_c   15.89578431
_cell_angle_alpha   89.52533945
_cell_angle_beta   89.99898517
_cell_angle_gamma   90.00103730
_symmetry_Int_Tables_number   1
_chemical_formula_structural   CoH8(C3O2)2
_chemical_formula_sum   'Co4 H32 C24 O16'
_cell_volume   719.18335156
_cell_formula_units_Z   4
loop_
 _symmetry_equiv_pos_site_id
 _symmetry_equiv_pos_as_xyz
  1  'x, y, z'
loop_
 _atom_site_type_symbol
 _atom_site_label
 _atom_site_symmetry_multiplicity
 _atom_site_fract_x
 _atom_site_fract_y
 _atom_site_fract_z
 _atom_site_occupancy
 _atom_site_hle17_ddec_charge
 _atom_site_hle17_ddec_spin_density
 _atom_site_hle17_ddec_sum_bond_order
 _atom_site_hle17_magmom
 _atom_site_hse06_10hf_ddec_charge
 _atom_site_hse06_10hf_ddec_spin_density
 _atom_site_hse06_10hf_ddec_sum_bond_order
 _atom_site_hse06_10hf_magmom
 _atom_site_hse06_ddec_charge
 _atom_site_hse06_ddec_spin_density
 _atom_site_hse06_ddec_sum_bond_order
 _atom_site_hse06_magmom
 _atom_site_pbe_cm5_charge
 _atom_site_pbe_ddec_charge
 _atom_site_pbe_ddec_spin_density
 _atom_site_pbe_ddec_sum_bond_order
 _atom_site_pbe_magmom
Co  Co0  1  0.04114800  0.78406789  0.24598214  1  1.098915  2.818083  1.854733  2.548  1.070523  2.831381  2.287145  2.615  1.154554  2.874475  2.209537  2.699  0.666058  0.994511  2.789062  2.357312  2.535
Co  Co1  1  0.04116704  0.71593778  0.75401587  1  1.098899  2.818107  1.854651  2.548  1.070493  2.831398  2.287116  2.615  1.154537  2.874491  2.20949  2.699  0.666104  0.994505  2.789078  2.357242  2.535
Co  Co2  1  0.95882538  0.21593538  0.75401595  1  1.098741  2.818103  1.855052  2.548  1.070393  2.831365  2.287485  2.615  1.154434  2.874459  2.209856  2.699  0.666031  0.994371  2.789059  2.357671  2.535
Co  Co3  1  0.95883325  0.28405798  0.24598601  1  1.098803  2.81812  1.854849  2.548  1.070485  2.831382  2.287296  2.615  1.154522  2.874475  2.20967  2.699  0.666067  0.994463  2.789077  2.357484  2.535
H  H4  1  0.73292309  0.47193823  0.06421095  1  0.064774  -1.7e-05  0.927328  0.0  0.085025  6e-05  0.985054  0.0  0.085313  -2e-06  0.985952  0.0  0.090399  0.084953  0.000135  0.984435  0.0
H  H5  1  0.73291860  0.02807334  0.93578779  1  0.064751  -1.8e-05  0.927557  0.0  0.085039  6e-05  0.985149  0.0  0.08533  -3e-06  0.986052  0.0  0.090411  0.084969  0.000135  0.984531  0.0
H  H6  1  0.26707099  0.52805968  0.93578903  1  0.064822  -1.7e-05  0.927315  0.0  0.085049  6e-05  0.985057  0.0  0.08534  -3e-06  0.985954  0.0  0.090403  0.084978  0.000135  0.984443  0.0
H  H7  1  0.26707547  0.97194482  0.06421594  1  0.064824  -1.6e-05  0.927292  0.0  0.085071  6e-05  0.985042  0.0  0.085361  -3e-06  0.985939  0.0  0.090408  0.085  0.000135  0.984426  0.0
H  H8  1  0.71482061  0.62120096  0.99705423  1  0.066319  8e-06  0.943037  0.0  0.085604  -2.5e-05  1.003147  0.0  0.086463  -5.7e-05  1.003734  0.0  0.088677  0.084756  9e-06  1.003267  0.0
H  H9  1  0.71481508  0.87880674  0.00294205  1  0.06639  7e-06  0.942854  0.0  0.085607  -2.5e-05  1.002976  0.0  0.086467  -5.7e-05  1.003566  0.0  0.088677  0.084758  9e-06  1.003102  0.0
H  H10  1  0.28517760  0.37879592  0.00294199  1  0.066298  8e-06  0.943103  0.0  0.085631  -2.5e-05  1.003157  0.0  0.086492  -5.7e-05  1.003745  0.0  0.088696  0.08478  8e-06  1.003277  0.0
H  H11  1  0.28517900  0.12121245  0.99706545  1  0.066258  9e-06  0.943031  0.0  0.085695  -2.5e-05  1.002985  0.0  0.086556  -5.7e-05  1.003573  0.0  0.088702  0.084845  8e-06  1.003105  0.0
H  H12  1  0.26572070  0.11107039  0.50195142  1  0.064849  6.1e-05  0.939738  0.0  0.084625  5.7e-05  0.998883  0.0  0.085349  1.4e-05  0.999409  0.0  0.089934  0.083891  0.00011  0.998932  0.0
H  H13  1  0.26571122  0.38892826  0.49804922  1  0.064876  6.2e-05  0.939643  0.0  0.084616  5.7e-05  0.998826  0.0  0.085341  1.4e-05  0.99935  0.0  0.089926  0.083882  0.00011  0.998878  0.0
H  H14  1  0.73427337  0.88893174  0.49805359  1  0.064792  6.4e-05  0.939695  0.0  0.084548  5.7e-05  0.998883  0.0  0.085271  1.4e-05  0.999409  0.0  0.089912  0.083817  0.00011  0.998937  0.0
H  H15  1  0.73429321  0.61106013  0.50194197  1  0.064802  6.2e-05  0.939691  0.0  0.084539  5.7e-05  0.998884  0.0  0.085263  1.4e-05  0.999408  0.0  0.08991  0.083807  0.00011  0.998938  0.0
H  H16  1  0.56699478  0.12627835  0.44079094  1  0.067704  -0.000123  0.929404  0.0  0.088444  -0.000136  0.985735  0.0  0.088703  -0.000146  0.987173  0.0  0.091253  0.088055  -9.3e-05  0.985244  0.0
H  H17  1  0.56697495  0.37371671  0.55920871  1  0.067748  -0.000123  0.929471  0.0  0.088485  -0.000136  0.985755  0.0  0.088743  -0.000146  0.987196  0.0  0.091307  0.088093  -9.3e-05  0.985266  0.0
H  H18  1  0.43300344  0.87372591  0.55921532  1  0.067668  -0.000121  0.929388  0.0  0.088369  -0.000136  0.985772  0.0  0.088625  -0.000146  0.987214  0.0  0.091225  0.087979  -9.3e-05  0.985288  0.0
H  H19  1  0.43302740  0.62626528  0.44078123  1  0.067731  -0.000123  0.92932  0.0  0.088416  -0.000136  0.985689  0.0  0.088672  -0.000146  0.987132  0.0  0.091221  0.088024  -9.3e-05  0.985208  0.0
H  H20  1  0.44603915  0.90373566  0.36260313  1  0.120874  0.000101  0.924196  0.0  0.13507  0.000449  0.985641  0.001  0.137245  0.000274  0.98494  0.001  0.110048  0.133674  0.000617  0.985823  0.001
H  H21  1  0.44604635  0.59626525  0.63739397  1  0.120871  9.9e-05  0.92416  0.0  0.135083  0.000449  0.985589  0.001  0.137257  0.000274  0.984891  0.001  0.110015  0.133681  0.000617  0.985768  0.001
H  H22  1  0.55396735  0.09626864  0.63739874  1  0.120891  9.9e-05  0.924157  0.0  0.1351  0.000449  0.985624  0.001  0.137274  0.000274  0.984923  0.001  0.110062  0.133702  0.000617  0.985801  0.001
H  H23  1  0.55395601  0.40371779  0.36259785  1  0.120909  0.000101  0.924156  0.0  0.135049  0.00045  0.985663  0.001  0.137222  0.000274  0.984966  0.001  0.110038  0.13365  0.000617  0.985839  0.001
H  H24  1  0.15120607  0.87821843  0.42517525  1  0.109415  -0.000373  0.938908  0.0  0.122862  5.4e-05  1.003404  0.0  0.125375  -1.1e-05  1.002106  0.0  0.104447  0.120892  0.000225  1.004566  0.0
H  H25  1  0.15120957  0.62178079  0.57482343  1  0.10946  -0.000375  0.938867  0.0  0.122915  5.4e-05  1.003368  0.0  0.12543  -1.2e-05  1.002069  0.0  0.104466  0.120937  0.000225  1.004533  0.0
H  H26  1  0.84880664  0.12178804  0.57482346  1  0.109369  -0.000377  0.938872  0.0  0.122878  5.4e-05  1.003339  0.0  0.125391  -1.1e-05  1.002039  0.0  0.104437  0.120904  0.000225  1.004502  0.0
H  H27  1  0.84880520  0.37819900  0.42517344  1  0.109409  -0.000374  0.938964  0.0  0.122866  5.4e-05  1.003427  0.0  0.125379  -1.1e-05  1.002129  0.0  0.104471  0.12089  0.000225  1.004591  0.0
H  H28  1  0.28212370  0.54162480  0.13248737  1  0.119247  -0.00023  0.926054  0.0  0.132444  6e-05  0.989154  0.0  0.134843  -5.6e-05  0.988055  0.0  0.107983  0.13083  0.000164  0.98967  0.0
H  H29  1  0.28212389  0.95837882  0.86751375  1  0.119264  -0.00023  0.925983  0.0  0.132466  5.9e-05  0.989091  0.0  0.134865  -5.5e-05  0.987993  0.0  0.107992  0.130852  0.000164  0.989609  0.0
H  H30  1  0.71786624  0.45837739  0.86751198  1  0.11923  -0.000231  0.926052  0.0  0.132445  6e-05  0.989162  0.0  0.134844  -5.6e-05  0.988062  0.0  0.107982  0.130838  0.000164  0.989687  0.0
H  H31  1  0.71788054  0.04162443  0.13248623  1  0.119237  -0.00023  0.925993  0.0  0.132456  5.9e-05  0.989095  0.0  0.134851  -5.5e-05  0.987996  0.0  0.107996  0.130859  0.000164  0.989625  0.0
H  H32  1  0.24924947  0.68674267  0.06421873  1  0.109849  -0.000726  0.936481  0.0  0.125306  -0.000195  0.998492  0.0  0.127652  -0.000227  0.997568  0.0  0.104756  0.123389  -0.000206  0.999555  0.0
H  H33  1  0.24924260  0.81325637  0.93578194  1  0.109884  -0.000724  0.936449  0.0  0.125347  -0.000195  0.998475  0.0  0.127696  -0.000227  0.99755  0.0  0.104781  0.123426  -0.000206  0.99954  0.0
H  H34  1  0.75074461  0.31325317  0.93577496  1  0.109866  -0.000727  0.936433  0.0  0.125325  -0.000195  0.998457  0.0  0.12767  -0.000227  0.997535  0.0  0.10474  0.123413  -0.000206  0.999522  0.0
H  H35  1  0.75075769  0.18675109  0.06422369  1  0.10991  -0.000725  0.936278  0.0  0.125336  -0.000195  0.998374  0.0  0.127679  -0.000227  0.99745  0.0  0.104741  0.123432  -0.000206  0.999443  0.0
C  C36  1  0.55877764  0.70961685  0.15763704  1  0.729731  -0.013542  3.767151  -0.011  0.692052  0.00325  4.065968  0.003  0.732233  0.002563  4.057959  0.003  0.228815  0.661718  0.002706  4.069916  0.001
C  C37  1  0.55878582  0.79039578  0.84236195  1  0.72952  -0.01354  3.767137  -0.011  0.691996  0.00325  4.065794  0.003  0.732178  0.002563  4.057786  0.003  0.228837  0.66166  0.002706  4.069746  0.001
C  C38  1  0.44120609  0.29039287  0.84235663  1  0.729604  -0.013538  3.76733  -0.011  0.692009  0.003251  4.066109  0.003  0.732188  0.002563  4.0581  0.003  0.228801  0.661682  0.002706  4.070062  0.001
C  C39  1  0.44121447  0.20960523  0.15764873  1  0.729137  -0.013541  3.767809  -0.011  0.691757  0.00325  4.06625  0.003  0.731932  0.002562  4.058248  0.003  0.228783  0.661447  0.002705  4.070192  0.001
C  C40  1  0.58628195  0.54288600  0.03114988  1  -0.077473  0.000277  3.688979  0.0  -0.117387  0.000471  3.946215  0.001  -0.117564  0.000263  3.960947  0.0  -0.167701  -0.117215  0.000742  3.93617  0.001
C  C41  1  0.58627406  0.95712153  0.96885023  1  -0.077596  0.000285  3.689131  0.0  -0.117315  0.000472  3.946158  0.001  -0.117502  0.000263  3.960908  0.0  -0.167647  -0.117145  0.000742  3.936109  0.001
C  C42  1  0.41371420  0.45711087  0.96884759  1  -0.077651  0.00028  3.689102  0.0  -0.117551  0.000471  3.94636  0.001  -0.117736  0.000262  3.961101  0.0  -0.167781  -0.117373  0.000741  3.936328  0.001
C  C43  1  0.41371795  0.04289662  0.03115476  1  -0.077688  0.000278  3.689051  0.0  -0.117757  0.000472  3.946381  0.001  -0.117927  0.000263  3.96109  0.0  -0.167869  -0.117564  0.000742  3.936357  0.001
C  C44  1  0.42323453  0.04801816  0.46879762  1  -0.073509  0.000275  3.686734  0.0  -0.113291  0.000546  3.943341  0.001  -0.113348  0.000329  3.957583  0.001  -0.166151  -0.113139  0.000781  3.933766  0.001
C  C45  1  0.42323359  0.45197876  0.53120155  1  -0.073643  0.000276  3.686972  0.0  -0.113387  0.000546  3.943528  0.001  -0.113443  0.000329  3.957769  0.001  -0.166252  -0.113243  0.000781  3.933952  0.001
C  C46  1  0.57676576  0.95198611  0.53120676  1  -0.073336  0.000265  3.686582  0.0  -0.113077  0.000545  3.943219  0.001  -0.113134  0.000329  3.95746  0.001  -0.1661  -0.112923  0.000781  3.933652  0.001
C  C47  1  0.57677084  0.54800322  0.46878965  1  -0.073427  0.000275  3.686814  0.0  -0.113118  0.000545  3.943271  0.001  -0.113172  0.000329  3.95751  0.001  -0.166137  -0.11297  0.000781  3.933706  0.001
C  C48  1  0.12016359  0.04747470  0.33685172  1  0.719786  -0.014027  3.777788  -0.012  0.682641  0.002546  4.074495  0.001  0.721699  0.001972  4.068021  0.001  0.224675  0.653693  0.002512  4.076681  0.0
C  C49  1  0.12015904  0.45253318  0.66315723  1  0.71947  -0.01403  3.778068  -0.012  0.682382  0.002548  4.074743  0.001  0.721444  0.001972  4.068271  0.001  0.224617  0.653425  0.002514  4.076926  0.0
C  C50  1  0.87984291  0.95253699  0.66315831  1  0.719446  -0.014031  3.777952  -0.012  0.682353  0.002548  4.07465  0.001  0.721411  0.001973  4.068177  0.001  0.224556  0.653405  0.002514  4.076833  0.0
C  C51  1  0.87985573  0.54745301  0.33684025  1  0.719287  -0.014027  3.777957  -0.012  0.682137  0.00255  4.074663  0.001  0.721198  0.001975  4.06819  0.001  0.224499  0.65319  0.002515  4.076841  0.0
C  C52  1  0.28816707  0.96177878  0.39909854  1  -0.287531  0.004057  3.691485  0.006  -0.325731  0.003234  3.94088  0.004  -0.33323  0.002156  3.949415  0.002  -0.161833  -0.319947  0.004163  3.934615  0.005
C  C53  1  0.28816609  0.53822172  0.60089941  1  -0.287464  0.00406  3.691441  0.006  -0.325717  0.003234  3.940825  0.004  -0.333221  0.002157  3.949369  0.002  -0.161785  -0.319911  0.004164  3.934529  0.005
C  C54  1  0.71184357  0.03822657  0.60090521  1  -0.287431  0.004065  3.691329  0.006  -0.325778  0.003235  3.940868  0.004  -0.333273  0.002157  3.949398  0.002  -0.161855  -0.320002  0.004164  3.934606  0.005
C  C55  1  0.71184454  0.46176025  0.39909242  1  -0.287485  0.004058  3.691682  0.006  -0.325658  0.003235  3.941025  0.004  -0.333157  0.002157  3.949562  0.002  -0.161823  -0.319868  0.004165  3.934741  0.005
C  C56  1  0.40525863  0.61862738  0.09534148  1  -0.283712  0.003425  3.687127  0.006  -0.323074  0.002009  3.936462  0.003  -0.330768  0.001072  3.945393  0.002  -0.162391  -0.317219  0.003087  3.930373  0.005
C  C57  1  0.40525807  0.88137741  0.90465772  1  -0.283634  0.003419  3.687202  0.006  -0.323198  0.00201  3.936635  0.003  -0.330889  0.001072  3.945559  0.002  -0.162436  -0.317337  0.003087  3.930545  0.005
C  C58  1  0.59473131  0.38137164  0.90465473  1  -0.283704  0.003423  3.687168  0.006  -0.323094  0.002009  3.936509  0.003  -0.330784  0.001072  3.945441  0.002  -0.162379  -0.317275  0.003087  3.930465  0.005
C  C59  1  0.59474015  0.11862900  0.09534729  1  -0.283568  0.00342  3.687017  0.006  -0.323024  0.00201  3.936372  0.003  -0.330702  0.001072  3.945291  0.002  -0.162407  -0.317254  0.003087  3.93038  0.005
O  O60  1  0.43069347  0.76986251  0.21824192  1  -0.655589  0.048327  2.098788  0.082  -0.627689  0.039162  2.393527  0.058  -0.667474  0.02984  2.37498  0.043  -0.319343  -0.594387  0.048736  2.405789  0.072
O  O61  1  0.43070516  0.73015002  0.78175462  1  -0.655554  0.048327  2.098774  0.082  -0.627649  0.039162  2.393368  0.058  -0.667439  0.029839  2.37482  0.043  -0.31938  -0.594351  0.048735  2.405632  0.072
O  O62  1  0.56928612  0.23014938  0.78174861  1  -0.655519  0.048329  2.099045  0.082  -0.627648  0.039164  2.393773  0.058  -0.667438  0.029842  2.375223  0.043  -0.319347  -0.594341  0.048738  2.406031  0.072
O  O63  1  0.56928892  0.26984563  0.21825795  1  -0.655291  0.048325  2.099166  0.082  -0.62744  0.03916  2.393679  0.058  -0.667225  0.029838  2.375136  0.043  -0.319229  -0.594134  0.048734  2.405924  0.072
O  O64  1  0.00374320  0.98601234  0.27434980  1  -0.651202  0.047785  2.08185  0.081  -0.622525  0.039024  2.371378  0.058  -0.661946  0.030064  2.353423  0.044  -0.315284  -0.588798  0.048911  2.382595  0.073
O  O65  1  0.00375680  0.51399394  0.72565847  1  -0.651001  0.047776  2.082421  0.081  -0.622299  0.039019  2.37184  0.058  -0.66172  0.030061  2.353885  0.044  -0.31522  -0.588581  0.048905  2.383059  0.073
O  O66  1  0.99624881  0.01400468  0.72566085  1  -0.650904  0.047788  2.082163  0.081  -0.622167  0.039025  2.371553  0.058  -0.66159  0.030066  2.353603  0.044  -0.31511  -0.588439  0.048911  2.382762  0.073
O  O67  1  0.99627247  0.48598586  0.27433777  1  -0.650816  0.047791  2.081825  0.081  -0.62212  0.039026  2.371279  0.058  -0.661542  0.030066  2.353329  0.044  -0.315127  -0.588393  0.048913  2.382484  0.073
O  O68  1  0.09701703  0.18227324  0.34629749  1  -0.616304  0.053509  2.056543  0.092  -0.583058  0.039153  2.335063  0.061  -0.622808  0.028955  2.321  0.045  -0.306573  -0.550957  0.048807  2.344479  0.075
O  O69  1  0.09700001  0.31772807  0.65370720  1  -0.616208  0.053518  2.056272  0.092  -0.583009  0.039158  2.334808  0.061  -0.622765  0.028958  2.320755  0.045  -0.306582  -0.550893  0.048816  2.344198  0.075
O  O70  1  0.90300603  0.81773958  0.65370688  1  -0.616302  0.053509  2.056357  0.092  -0.583072  0.039154  2.334871  0.061  -0.622824  0.028955  2.320808  0.045  -0.30662  -0.550974  0.048809  2.344283  0.075
O  O71  1  0.90299820  0.68225173  0.34628904  1  -0.61624  0.053506  2.0565  0.092  -0.582993  0.039153  2.33504  0.061  -0.622741  0.028955  2.320977  0.045  -0.306546  -0.550879  0.048808  2.344421  0.075
O  O72  1  0.82041345  0.72441207  0.14944254  1  -0.626105  0.053113  2.087459  0.09  -0.591798  0.038895  2.374347  0.059  -0.632256  0.02852  2.359645  0.043  -0.307717  -0.55865  0.049521  2.383864  0.075
O  O73  1  0.82042270  0.77560195  0.85055505  1  -0.625964  0.053111  2.087342  0.09  -0.591748  0.038896  2.374221  0.059  -0.632208  0.028521  2.359523  0.043  -0.307721  -0.558602  0.049521  2.383739  0.075
O  O74  1  0.17957441  0.27559659  0.85055051  1  -0.62593  0.053105  2.087393  0.09  -0.591769  0.038893  2.374396  0.059  -0.632221  0.02852  2.359684  0.043  -0.307718  -0.55862  0.049519  2.383912  0.075
O  O75  1  0.17957759  0.22439911  0.14945059  1  -0.625847  0.053111  2.087531  0.09  -0.59179  0.038898  2.37445  0.059  -0.632248  0.028523  2.359749  0.043  -0.307798  -0.558639  0.049525  2.383951  0.075
