# generated using pymatgen
data_LaH5C9N3O7
_symmetry_space_group_name_H-M   'P 1'
_cell_length_a   9.34050444
_cell_length_b   10.45618702
_cell_length_c   12.65905000
_cell_angle_alpha   89.99944418
_cell_angle_beta   106.54064877
_cell_angle_gamma   89.99995588
_symmetry_Int_Tables_number   1
_chemical_formula_structural   LaH5C9N3O7
_chemical_formula_sum   'La4 H20 C36 N12 O28'
_cell_volume   1185.19651946
_cell_formula_units_Z   4
loop_
 _symmetry_equiv_pos_site_id
 _symmetry_equiv_pos_as_xyz
  1  'x, y, z'
loop_
 _atom_site_type_symbol
 _atom_site_label
 _atom_site_symmetry_multiplicity
 _atom_site_fract_x
 _atom_site_fract_y
 _atom_site_fract_z
 _atom_site_occupancy
 _atom_site_hle17_bader_spin_density
 _atom_site_hle17_ddec_charge
 _atom_site_hle17_ddec_spin_density
 _atom_site_hle17_ddec_sum_bond_order
 _atom_site_hle17_magmom
 _atom_site_hse06_10hf_bader_spin_density
 _atom_site_hse06_10hf_ddec_charge
 _atom_site_hse06_10hf_ddec_spin_density
 _atom_site_hse06_10hf_ddec_sum_bond_order
 _atom_site_hse06_10hf_magmom
 _atom_site_hse06_bader_spin_density
 _atom_site_hse06_ddec_charge
 _atom_site_hse06_ddec_spin_density
 _atom_site_hse06_ddec_sum_bond_order
 _atom_site_hse06_magmom
 _atom_site_pbe_bader_spin_density
 _atom_site_pbe_cm5_charge
 _atom_site_pbe_ddec_charge
 _atom_site_pbe_ddec_spin_density
 _atom_site_pbe_ddec_sum_bond_order
 _atom_site_pbe_magmom
La  La0  1  0.88734281  0.87313442  0.32727890  1  0  1.994366  0  1.899717  0  0  1.84007  0  2.445694  0  0  1.939718  0  2.351889  0  0  1.404333  1.765657  0  2.511272  0
La  La1  1  0.88734504  0.12686423  0.82728223  1  0  1.994381  0  1.89978  0  0  1.840108  0  2.445696  0  0  1.939737  0  2.351919  0  0  1.404379  1.765674  0  2.5113  0
La  La2  1  0.38824409  0.42320003  0.32497743  1  0  2.013066  0  1.845174  0  0  1.855691  0  2.375835  0  0  1.956274  0  2.28135  0  0  1.396812  1.78081  0  2.44176  0
La  La3  1  0.38824104  0.57680090  0.82497287  1  0  2.013071  0  1.845082  0  0  1.855662  0  2.375771  0  0  1.956227  0  2.281319  0  0  1.396715  1.780771  0  2.441717  0
H  H4  1  0.09579450  0.16138605  0.27700076  1  0  0.086584  0  0.919474  0  0  0.09005  0  0.985778  0  0  0.093019  0  0.982574  0  0  0.143555  0.087736  0  0.988405  0
H  H5  1  0.09578026  0.83861565  0.77699489  1  0  0.086537  0  0.919476  0  0  0.090046  0  0.985774  0  0  0.093016  0  0.982571  0  0  0.143555  0.087734  0  0.988398  0
H  H6  1  0.16716303  0.21966978  0.66978464  1  0  0.145634  0  0.94509  0  0  0.150764  0  1.008504  0  0  0.155857  0  1.004584  0  0  0.130034  0.146948  0  1.011715  0
H  H7  1  0.16717126  0.78032642  0.16978348  1  0  0.145653  0  0.945075  0  0  0.15079  0  1.008491  0  0  0.155877  0  1.004568  0  0  0.130045  0.146974  0  1.011705  0
H  H8  1  0.18460422  0.74430806  0.57214554  1  0  0.092605  0  0.917625  0  0  0.096576  0  0.983291  0  0  0.100606  0  0.977719  0  0  0.144607  0.093544  0  0.987437  0
H  H9  1  0.18460911  0.25569119  0.07215183  1  0  0.092643  0  0.917563  0  0  0.096632  0  0.983208  0  0  0.100673  0  0.977625  0  0  0.144598  0.093581  0  0.987354  0
H  H10  1  0.76998807  0.48160292  0.60398329  1  0  0.134114  0  0.960105  0  0  0.138153  0  1.028123  0  0  0.143291  0  1.023739  0  0  0.122546  0.134522  0  1.031256  0
H  H11  1  0.76999407  0.51839747  0.10398534  1  0  0.134076  0  0.960153  0  0  0.138127  0  1.028158  0  0  0.143263  0  1.023777  0  0  0.122551  0.134497  0  1.03129  0
H  H12  1  0.66375191  0.67585651  0.09049962  1  0  0.069354  0  0.94036  0  0  0.074619  0  1.010305  0  0  0.077659  0  1.005599  0  0  0.139038  0.072269  0  1.01391  0
H  H13  1  0.66374883  0.32415272  0.59049787  1  0  0.069334  0  0.940253  0  0  0.074625  0  1.010183  0  0  0.07764  0  1.005511  0  0  0.13902  0.072291  0  1.013767  0
H  H14  1  0.49959556  0.09969313  0.94936425  1  0  0.147145  0  0.926153  0  0  0.152766  0  0.987367  0  0  0.158239  0  0.983417  0  0  0.128178  0.148685  0  0.990586  0
H  H15  1  0.49960210  0.90030913  0.44937678  1  0  0.147205  0  0.926161  0  0  0.152802  0  0.987408  0  0  0.158275  0  0.983456  0  0  0.128153  0.14872  0  0.990626  0
H  H16  1  0.19698664  0.74422028  0.37341646  1  0  0.425048  0  0.863804  0  0  0.398106  0  0.924852  0  0  0.409593  0  0.907994  0  0  0.305172  0.389848  0  0.936991  0
H  H17  1  0.19698721  0.25577543  0.87341366  1  0  0.425021  0  0.86382  0  0  0.398067  0  0.92491  0  0  0.409556  0  0.908051  0  0  0.305137  0.38981  0  0.937048  0
H  H18  1  0.23769412  0.88639081  0.34423724  1  0  0.433108  0  0.861235  0  0  0.403661  0  0.923532  0  0  0.414946  0  0.907156  0  0  0.298228  0.395641  0  0.935149  0
H  H19  1  0.23769419  0.11360617  0.84423469  1  0  0.433085  0  0.861257  0  0  0.403662  0  0.923545  0  0  0.414947  0  0.907168  0  0  0.298197  0.395636  0  0.935174  0
H  H20  1  0.51893730  0.45420664  0.13890591  1  0  0.418817  0  0.883247  0  0  0.389726  0  0.945195  0  0  0.401357  0  0.928182  0  0  0.297936  0.381327  0  0.957437  0
H  H21  1  0.51893996  0.54579446  0.63890439  1  0  0.418806  0  0.88325  0  0  0.389722  0  0.945189  0  0  0.401354  0  0.928174  0  0  0.297923  0.381321  0  0.957437  0
H  H22  1  0.60619085  0.32753300  0.18866961  1  0  0.43742  0  0.867025  0  0  0.405667  0  0.931463  0  0  0.418359  0  0.913208  0  0  0.290565  0.396639  0  0.944371  0
H  H23  1  0.60619517  0.67246651  0.68867611  1  0  0.43738  0  0.867079  0  0  0.405608  0  0.931549  0  0  0.418304  0  0.913291  0  0  0.290557  0.396584  0  0.944453  0
C  C24  1  0.11118061  0.17591950  0.36480921  1  0  0.322361  0  3.655578  0  0  0.277154  0  3.931232  0  0  0.291023  0  3.943837  0  0  0.202031  0.26766  0  3.922955  0
C  C25  1  0.11117089  0.82408019  0.86480599  1  0  0.322593  0  3.655254  0  0  0.27725  0  3.931038  0  0  0.291125  0  3.943632  0  0  0.202114  0.267756  0  3.922759  0
C  C26  1  0.22161848  0.28558375  0.52385580  1  0  0.152527  0  3.701669  0  0  0.153568  0  3.948054  0  0  0.158336  0  3.9644  0  0  0.138155  0.150029  0  3.937223  0
C  C27  1  0.22161359  0.71440935  0.02385160  1  0  0.1524  0  3.701424  0  0  0.153526  0  3.947722  0  0  0.15829  0  3.964066  0  0  0.138128  0.149989  0  3.936892  0
C  C28  1  0.15021076  0.20771088  0.58203284  1  0  -0.122246  0  3.620927  0  0  -0.152751  0  3.863505  0  0  -0.157903  0  3.878776  0  0  -0.050125  -0.149366  0  3.85362  0
C  C29  1  0.15021112  0.79228924  0.08203071  1  0  -0.122295  0  3.620802  0  0  -0.152768  0  3.863444  0  0  -0.157908  0  3.87871  0  0  -0.050134  -0.149387  0  3.853559  0
C  C30  1  0.05801193  0.11248821  0.52290195  1  0  0.159227  0  3.691101  0  0  0.162113  0  3.92999  0  0  0.167907  0  3.944046  0  0  0.149294  0.158112  0  3.920152  0
C  C31  1  0.05801522  0.88751362  0.02290126  1  0  0.159347  0  3.691043  0  0  0.162023  0  3.930192  0  0  0.167806  0  3.944252  0  0  0.149291  0.158025  0  3.920349  0
C  C32  1  0.96846400  0.02661976  0.57625027  1  0  0.657932  0  3.888816  0  0  0.60891  0  4.18556  0  0  0.644673  0  4.175916  0  0  0.238583  0.584571  0  4.191125  0
C  C33  1  0.96846246  0.97338273  0.07624786  1  0  0.657651  0  3.888905  0  0  0.608684  0  4.185662  0  0  0.644456  0  4.176015  0  0  0.23849  0.584347  0  4.191221  0
C  C34  1  0.32726617  0.38864675  0.58317779  1  0  0.642163  0  3.898264  0  0  0.591344  0  4.196389  0  0  0.626344  0  4.18853  0  0  0.234219  0.56748  0  4.200854  0
C  C35  1  0.32726059  0.61134845  0.08317901  1  0  0.642252  0  3.897978  0  0  0.591354  0  4.196218  0  0  0.626356  0  4.188362  0  0  0.234189  0.567486  0  4.200686  0
C  C36  1  0.09229056  0.68279329  0.57700075  1  0  0.327901  0  3.63829  0  0  0.28007  0  3.917433  0  0  0.294672  0  3.92821  0  0  0.20418  0.270163  0  3.910087  0
C  C37  1  0.09229297  0.31720501  0.07700365  1  0  0.327822  0  3.638357  0  0  0.28  0  3.917461  0  0  0.294595  0  3.928245  0  0  0.204151  0.270118  0  3.910087  0
C  C38  1  0.00408483  0.52730588  0.67039122  1  0  0.150903  0  3.698336  0  0  0.15289  0  3.941065  0  0  0.157804  0  3.957679  0  0  0.13808  0.149363  0  3.930226  0
C  C39  1  0.00408545  0.47269043  0.17039329  1  0  0.150822  0  3.698399  0  0  0.152804  0  3.941203  0  0  0.157716  0  3.957822  0  0  0.137964  0.149272  0  3.930367  0
C  C40  1  0.86345061  0.53765588  0.59508774  1  0  -0.130547  0  3.628227  0  0  -0.160149  0  3.870082  0  0  -0.166046  0  3.885727  0  0  -0.05315  -0.156566  0  3.860003  0
C  C41  1  0.86345462  0.46234072  0.09509140  1  0  -0.130424  0  3.628169  0  0  -0.160034  0  3.870048  0  0  -0.165937  0  3.885699  0  0  -0.053115  -0.156452  0  3.859968  0
C  C42  1  0.84677810  0.62307855  0.50807184  1  0  0.165035  0  3.672114  0  0  0.165555  0  3.913241  0  0  0.171827  0  3.927307  0  0  0.150736  0.161081  0  3.90403  0
C  C43  1  0.84678248  0.37691813  0.00807468  1  0  0.165006  0  3.671972  0  0  0.165513  0  3.913109  0  0  0.17179  0  3.927176  0  0  0.15067  0.161034  0  3.9039  0
C  C44  1  0.69780818  0.64060844  0.42078477  1  0  0.677111  0  3.874541  0  0  0.62999  0  4.170661  0  0  0.666743  0  4.159541  0  0  0.248018  0.604542  0  4.177681  0
C  C45  1  0.69781498  0.35939019  0.92078878  1  0  0.676971  0  3.87474  0  0  0.629897  0  4.170806  0  0  0.666643  0  4.159698  0  0  0.247976  0.604451  0  4.177824  0
C  C46  1  0.03715008  0.42569373  0.75970748  1  0  0.643122  0  3.895197  0  0  0.59432  0  4.194215  0  0  0.629963  0  4.184719  0  0  0.231422  0.56979  0  4.199946  0
C  C47  1  0.03715582  0.57430246  0.25971376  1  0  0.642995  0  3.895012  0  0  0.594111  0  4.19419  0  0  0.629755  0  4.184696  0  0  0.231404  0.569584  0  4.199918  0
C  C48  1  0.62683680  0.77040648  0.05809932  1  0  0.325208  0  3.691915  0  0  0.277037  0  3.969801  0  0  0.291861  0  3.98237  0  0  0.199107  0.267066  0  3.960857  0
C  C49  1  0.62683747  0.22959551  0.55810150  1  0  0.325312  0  3.69178  0  0  0.277122  0  3.969673  0  0  0.291956  0  3.982249  0  0  0.199178  0.267145  0  3.960726  0
C  C50  1  0.62401636  0.98640951  0.08808987  1  0  0.176318  0  3.68073  0  0  0.178027  0  3.921931  0  0  0.185338  0  3.935958  0  0  0.148895  0.172955  0  3.912071  0
C  C51  1  0.62402129  0.01359403  0.58809863  1  0  0.176303  0  3.680415  0  0  0.17804  0  3.921649  0  0  0.185346  0  3.93568  0  0  0.148951  0.172968  0  3.911785  0
C  C52  1  0.53469687  0.00445554  0.98052928  1  0  -0.132483  0  3.605489  0  0  -0.162882  0  3.849688  0  0  -0.169668  0  3.865402  0  0  -0.048218  -0.158475  0  3.839234  0
C  C53  1  0.53469633  0.99554824  0.48053244  1  0  -0.132554  0  3.605356  0  0  -0.162956  0  3.849582  0  0  -0.169741  0  3.8653  0  0  -0.048225  -0.158557  0  3.839118  0
C  C54  1  0.49266759  0.89599986  0.91549338  1  0  0.159582  0  3.694125  0  0  0.160194  0  3.94166  0  0  0.1663  0  3.958425  0  0  0.138825  0.156025  0  3.93038  0
C  C55  1  0.49266869  0.10400280  0.41549377  1  0  0.159558  0  3.694288  0  0  0.160167  0  3.941816  0  0  0.166269  0  3.958586  0  0  0.138838  0.156031  0  3.930491  0
C  C56  1  0.38554090  0.90283576  0.79995256  1  0  0.622216  0  3.93642  0  0  0.571646  0  4.245977  0  0  0.604975  0  4.237874  0  0  0.212621  0.548857  0  4.250913  0
C  C57  1  0.38554538  0.09716546  0.29995529  1  0  0.622216  0  3.936433  0  0  0.57171  0  4.245893  0  0  0.605045  0  4.237791  0  0  0.212711  0.54891  0  4.25083  0
C  C58  1  0.67040433  0.09663535  0.16867962  1  0  0.639316  0  3.913384  0  0  0.58764  0  4.220595  0  0  0.62214  0  4.209984  0  0  0.221464  0.564159  0  4.2271  0
C  C59  1  0.67040538  0.90336913  0.66869228  1  0  0.639462  0  3.913474  0  0  0.587733  0  4.22077  0  0  0.622239  0  4.210155  0  0  0.221591  0.564254  0  4.227274  0
N  N60  1  0.04135554  0.09439717  0.41484558  1  0  -0.366821  0  3.118919  0  0  -0.317842  0  3.376252  0  0  -0.336862  0  3.392444  0  0  -0.327855  -0.304611  0  3.364892  0
N  N61  1  0.04135105  0.90560582  0.91484361  1  0  -0.366827  0  3.118843  0  0  -0.317727  0  3.376252  0  0  -0.336741  0  3.392446  0  0  -0.327871  -0.304496  0  3.364887  0
N  N62  1  0.20058494  0.27173614  0.41466694  1  0  -0.40464  0  3.151347  0  0  -0.360479  0  3.41699  0  0  -0.381313  0  3.437057  0  0  -0.32981  -0.345966  0  3.403193  0
N  N63  1  0.20057565  0.72826291  0.91466142  1  0  -0.404812  0  3.151011  0  0  -0.360629  0  3.416699  0  0  -0.381459  0  3.436762  0  0  -0.329889  -0.346115  0  3.402901  0
N  N64  1  0.96267087  0.69331737  0.49779310  1  0  -0.371993  0  3.138209  0  0  -0.32552  0  3.4006  0  0  -0.344738  0  3.417511  0  0  -0.328804  -0.312055  0  3.388938  0
N  N65  1  0.96267567  0.30668210  0.99779632  1  0  -0.371979  0  3.138311  0  0  -0.325526  0  3.400712  0  0  -0.344746  0  3.417628  0  0  -0.328762  -0.312055  0  3.389037  0
N  N66  1  0.11779207  0.60312128  0.66341249  1  0  -0.402236  0  3.151468  0  0  -0.355408  0  3.417714  0  0  -0.376431  0  3.436626  0  0  -0.341069  -0.340859  0  3.404546  0
N  N67  1  0.11779747  0.39687408  0.16341855  1  0  -0.402196  0  3.151383  0  0  -0.355355  0  3.417604  0  0  -0.376382  0  3.436521  0  0  -0.341012  -0.340807  0  3.40443  0
N  N68  1  0.53858964  0.77813638  0.95452778  1  0  -0.414219  0  3.143391  0  0  -0.366995  0  3.408604  0  0  -0.388444  0  3.426374  0  0  -0.342079  -0.351946  0  3.395684  0
N  N69  1  0.53858688  0.22186770  0.45452877  1  0  -0.414246  0  3.143286  0  0  -0.36703  0  3.408512  0  0  -0.388477  0  3.426274  0  0  -0.34211  -0.351994  0  3.395589  0
N  N70  1  0.67100969  0.86900605  0.12670359  1  0  -0.397683  0  3.141341  0  0  -0.347576  0  3.400899  0  0  -0.368166  0  3.417192  0  0  -0.342647  -0.332954  0  3.389115  0
N  N71  1  0.67101078  0.13100179  0.62670665  1  0  -0.397706  0  3.14125  0  0  -0.347595  0  3.400805  0  0  -0.368175  0  3.417088  0  0  -0.342706  -0.332973  0  3.389026  0
O  O72  1  0.88617363  0.94398323  0.51513721  1  0  -0.636014  0  2.040291  0  0  -0.590368  0  2.289895  0  0  -0.623461  0  2.285422  0  0  -0.353394  -0.566528  0  2.29193  0
O  O73  1  0.88617719  0.05602194  0.01513534  1  0  -0.635905  0  2.040468  0  0  -0.590212  0  2.289992  0  0  -0.623307  0  2.285522  0  0  -0.353348  -0.566371  0  2.292025  0
O  O74  1  0.97967922  0.04595700  0.67675144  1  0  -0.668062  0  2.078441  0  0  -0.622  0  2.346559  0  0  -0.655551  0  2.337745  0  0  -0.375549  -0.598366  0  2.35184  0
O  O75  1  0.97968892  0.95403856  0.17675237  1  0  -0.66794  0  2.07835  0  0  -0.62189  0  2.34647  0  0  -0.655446  0  2.337657  0  0  -0.375494  -0.598257  0  2.351746  0
O  O76  1  0.39637468  0.45344792  0.52793232  1  0  -0.656834  0  2.051255  0  0  -0.601938  0  2.292867  0  0  -0.63385  0  2.284037  0  0  -0.338976  -0.579123  0  2.298191  0
O  O77  1  0.39637163  0.54654979  0.02792986  1  0  -0.656911  0  2.051083  0  0  -0.60196  0  2.292705  0  0  -0.633882  0  2.283888  0  0  -0.338982  -0.579146  0  2.298029  0
O  O78  1  0.33887970  0.40194928  0.68415998  1  0  -0.637812  0  2.046417  0  0  -0.589279  0  2.295485  0  0  -0.620955  0  2.287142  0  0  -0.35742  -0.566568  0  2.300324  0
O  O79  1  0.33887195  0.59804090  0.18415927  1  0  -0.637688  0  2.046274  0  0  -0.58916  0  2.295391  0  0  -0.620838  0  2.287052  0  0  -0.357365  -0.566451  0  2.30023  0
O  O80  1  0.68712672  0.73317795  0.35472916  1  0  -0.631041  0  1.967782  0  0  -0.592948  0  2.216701  0  0  -0.624125  0  2.205314  0  0  -0.362004  -0.570502  0  2.223904  0
O  O81  1  0.68713169  0.26681955  0.85473353  1  0  -0.631038  0  1.968002  0  0  -0.592952  0  2.216863  0  0  -0.624124  0  2.205481  0  0  -0.362021  -0.570505  0  2.224067  0
O  O82  1  0.59705867  0.56039472  0.42225294  1  0  -0.65361  0  2.006344  0  0  -0.606067  0  2.260988  0  0  -0.639373  0  2.248713  0  0  -0.376215  -0.581881  0  2.268615  0
O  O83  1  0.59706848  0.43960780  0.92225616  1  0  -0.65352  0  2.006294  0  0  -0.605992  0  2.260924  0  0  -0.639294  0  2.248653  0  0  -0.376137  -0.581805  0  2.268547  0
O  O84  1  0.16243040  0.43069604  0.83341991  1  0  -0.656009  0  2.003527  0  0  -0.606825  0  2.243691  0  0  -0.637707  0  2.234345  0  0  -0.335368  -0.584358  0  2.24944  0
O  O85  1  0.16243505  0.56930112  0.33342442  1  0  -0.655867  0  2.00358  0  0  -0.606655  0  2.24377  0  0  -0.637541  0  2.234428  0  0  -0.335264  -0.58419  0  2.249517  0
O  O86  1  0.93800463  0.34062232  0.75032299  1  0  -0.659841  0  2.020486  0  0  -0.614576  0  2.277678  0  0  -0.647527  0  2.270011  0  0  -0.358044  -0.590901  0  2.282318  0
O  O87  1  0.93800890  0.65937337  0.25032670  1  0  -0.659803  0  2.020436  0  0  -0.614485  0  2.277651  0  0  -0.64744  0  2.269996  0  0  -0.358065  -0.59081  0  2.282288  0
O  O88  1  0.36177145  0.79646461  0.74754644  1  0  -0.685627  0  2.029351  0  0  -0.642927  0  2.2899  0  0  -0.676272  0  2.281625  0  0  -0.385774  -0.618544  0  2.294232  0
O  O89  1  0.36177546  0.20353916  0.24754901  1  0  -0.685646  0  2.029287  0  0  -0.642983  0  2.289828  0  0  -0.676324  0  2.28154  0  0  -0.385825  -0.618599  0  2.294169  0
O  O90  1  0.32500192  0.00823645  0.76713408  1  0  -0.587571  0  1.919328  0  0  -0.546165  0  2.140433  0  0  -0.568809  0  2.131384  0  0  -0.307201  -0.530036  0  2.146088  0
O  O91  1  0.32501256  0.99176329  0.26713806  1  0  -0.587575  0  1.919326  0  0  -0.546189  0  2.14039  0  0  -0.568841  0  2.131342  0  0  -0.307287  -0.530066  0  2.14605  0
O  O92  1  0.72794698  0.06533939  0.26952608  1  0  -0.675939  0  1.979534  0  0  -0.638899  0  2.233245  0  0  -0.670816  0  2.223879  0  0  -0.38917  -0.615646  0  2.238613  0
O  O93  1  0.72794566  0.93467152  0.76953877  1  0  -0.675999  0  1.979461  0  0  -0.638949  0  2.233225  0  0  -0.670874  0  2.223874  0  0  -0.389206  -0.615691  0  2.238588  0
O  O94  1  0.64629369  0.20702382  0.12904097  1  0  -0.57458  0  1.971408  0  0  -0.528071  0  2.190681  0  0  -0.552019  0  2.179799  0  0  -0.292858  -0.511363  0  2.197754  0
O  O95  1  0.64630638  0.79298784  0.62905777  1  0  -0.574613  0  1.971528  0  0  -0.528093  0  2.190851  0  0  -0.55204  0  2.179965  0  0  -0.292976  -0.51139  0  2.197927  0
O  O96  1  0.17826158  0.83587696  0.38350392  1  0  -0.868914  0  1.833744  0  0  -0.822399  0  2.013321  0  0  -0.847002  0  1.979857  0  0  -0.613894  -0.804766  0  2.036703  0
O  O97  1  0.17825809  0.16411864  0.88349784  1  0  -0.868874  0  1.833773  0  0  -0.822399  0  2.013291  0  0  -0.84701  0  1.979834  0  0  -0.613853  -0.804759  0  2.036671  0
O  O98  1  0.56685361  0.41111785  0.20987944  1  0  -0.883488  0  1.82011  0  0  -0.834271  0  2.001365  0  0  -0.861788  0  1.967009  0  0  -0.646931  -0.814116  0  2.025068  0
O  O99  1  0.56685496  0.58887761  0.70987967  1  0  -0.883452  0  1.820172  0  0  -0.834215  0  2.00144  0  0  -0.861734  0  1.967079  0  0  -0.646914  -0.814068  0  2.025134  0
