# generated using pymatgen
data_CuH7C7NO6
_symmetry_space_group_name_H-M   'P 1'
_cell_length_a   7.06902583
_cell_length_b   9.06675237
_cell_length_c   13.62480197
_cell_angle_alpha   89.99998177
_cell_angle_beta   89.99973072
_cell_angle_gamma   106.92040873
_symmetry_Int_Tables_number   1
_chemical_formula_structural   CuH7C7NO6
_chemical_formula_sum   'Cu4 H28 C28 N4 O24'
_cell_volume   835.45261768
_cell_formula_units_Z   4
loop_
 _symmetry_equiv_pos_site_id
 _symmetry_equiv_pos_as_xyz
  1  'x, y, z'
loop_
 _atom_site_type_symbol
 _atom_site_label
 _atom_site_symmetry_multiplicity
 _atom_site_fract_x
 _atom_site_fract_y
 _atom_site_fract_z
 _atom_site_occupancy
 _atom_site_hle17_ddec_charge
 _atom_site_hle17_ddec_spin_density
 _atom_site_hle17_ddec_sum_bond_order
 _atom_site_hle17_magmom
 _atom_site_hse06_10hf_ddec_charge
 _atom_site_hse06_10hf_ddec_spin_density
 _atom_site_hse06_10hf_ddec_sum_bond_order
 _atom_site_hse06_10hf_magmom
 _atom_site_hse06_ddec_charge
 _atom_site_hse06_ddec_spin_density
 _atom_site_hse06_ddec_sum_bond_order
 _atom_site_hse06_magmom
 _atom_site_pbe_cm5_charge
 _atom_site_pbe_ddec_charge
 _atom_site_pbe_ddec_spin_density
 _atom_site_pbe_ddec_sum_bond_order
 _atom_site_pbe_magmom
Cu  Cu0  1  0.85000306  0.15689926  0.93585695  1  0.935076  -0.706263  1.783585  -0.538  0.920005  -0.794341  2.179903  -0.654  1.007358  -0.854166  2.111414  -0.736  0.726733  0.863717  -0.750395  2.228329  -0.598
Cu  Cu1  1  0.64999595  0.34310307  0.43585505  1  0.935095  -0.706259  1.783545  -0.538  0.920065  -0.79435  2.179885  -0.654  1.007378  -0.854169  2.111382  -0.736  0.726734  0.863754  -0.750391  2.22829  -0.598
Cu  Cu2  1  0.14999612  0.84310237  0.06414305  1  0.935128  -0.706271  1.783532  -0.538  0.920066  -0.794348  2.179875  -0.654  1.007412  -0.854172  2.111366  -0.736  0.726756  0.863788  -0.750396  2.228256  -0.598
Cu  Cu3  1  0.35000420  0.65689739  0.56414569  1  0.935117  -0.70626  1.783528  -0.538  0.920062  -0.794352  2.17991  -0.654  1.007402  -0.854168  2.111364  -0.736  0.726748  0.863756  -0.750389  2.2283  -0.598
H  H4  1  0.58864539  0.36783336  0.02190855  1  0.128272  -0.000272  0.94902  0.0  0.132356  -0.000244  1.016668  0.0  0.13548  -0.000154  1.015462  0.0  0.114654  0.12985  -0.000324  1.01805  -0.001
H  H5  1  0.91135100  0.13215976  0.52190884  1  0.12826  -0.000274  0.949043  0.0  0.132351  -0.000244  1.016682  0.0  0.13548  -0.000154  1.015462  0.0  0.114643  0.129846  -0.000324  1.018065  -0.001
H  H6  1  0.41135635  0.63216015  0.97808924  1  0.128199  -0.00027  0.949026  0.0  0.132339  -0.000244  1.016636  0.0  0.13547  -0.000154  1.015408  0.0  0.114612  0.129831  -0.000324  1.018018  -0.001
H  H7  1  0.08864775  0.86784071  0.47809115  1  0.128273  -0.000273  0.949045  0.0  0.132367  -0.000244  1.016678  0.0  0.135496  -0.000154  1.015454  0.0  0.114647  0.12986  -0.000324  1.018061  -0.001
H  H8  1  0.16559024  0.24701870  0.25930923  1  0.128543  -0.001082  0.944989  -0.001  0.134852  -0.000865  1.009541  -0.001  0.139261  -0.000571  1.005883  -0.001  0.11744  0.131522  -0.00114  1.012516  -0.001
H  H9  1  0.33440507  0.25299180  0.75930748  1  0.12841  -0.001086  0.944946  -0.001  0.134719  -0.000865  1.009496  -0.001  0.139126  -0.000571  1.005834  -0.001  0.117408  0.131389  -0.001141  1.012464  -0.001
H  H10  1  0.83441327  0.75297943  0.74069004  1  0.128484  -0.001086  0.944997  -0.001  0.13477  -0.000865  1.009575  -0.001  0.139175  -0.000571  1.005917  -0.001  0.117411  0.131443  -0.001141  1.012542  -0.001
H  H11  1  0.66558848  0.74700985  0.24069398  1  0.128431  -0.001084  0.944918  -0.001  0.134736  -0.000865  1.009464  -0.001  0.139144  -0.000571  1.005803  -0.001  0.117414  0.131407  -0.001141  1.012432  -0.001
H  H12  1  0.30191834  0.27528377  0.90544616  1  0.099356  -0.001155  0.937739  -0.002  0.10737  -0.001007  0.997856  -0.002  0.110173  -0.000699  0.995054  -0.001  0.125147  0.105003  -0.001261  1.000382  -0.002
H  H13  1  0.19807787  0.22470667  0.40544489  1  0.099374  -0.001152  0.937681  -0.002  0.107361  -0.001007  0.99783  -0.002  0.110163  -0.000699  0.995032  -0.001  0.125153  0.104998  -0.001261  1.000354  -0.002
H  H14  1  0.69808155  0.72470860  0.09455458  1  0.09938  -0.001152  0.937749  -0.002  0.107365  -0.001007  0.997885  -0.002  0.110168  -0.000699  0.995085  -0.001  0.125134  0.104998  -0.001261  1.000408  -0.002
H  H15  1  0.80192334  0.77528917  0.59455731  1  0.09935  -0.001156  0.937698  -0.002  0.107331  -0.001007  0.997857  -0.002  0.110133  -0.000699  0.995058  -0.001  0.125135  0.104967  -0.001261  1.000382  -0.002
H  H16  1  0.48525096  0.01238357  0.89390524  1  0.425818  -0.000253  0.880475  0.0  0.398958  -0.000988  0.938375  -0.001  0.412207  -0.000675  0.919761  -0.001  0.292172  0.38956  -0.001236  0.951616  -0.002
H  H17  1  0.01474925  0.48762074  0.39390731  1  0.425909  -0.000252  0.880333  0.0  0.39905  -0.000988  0.938232  -0.001  0.412298  -0.000675  0.919615  -0.001  0.292265  0.389651  -0.001235  0.951476  -0.002
H  H18  1  0.51474867  0.98761920  0.10609402  1  0.425874  -0.000254  0.880404  0.0  0.39902  -0.000987  0.938293  -0.001  0.412269  -0.000675  0.919677  -0.001  0.292213  0.389622  -0.001235  0.951535  -0.002
H  H19  1  0.98524950  0.51237973  0.60609269  1  0.42587  -0.00025  0.880393  0.0  0.399015  -0.000988  0.938286  -0.001  0.412264  -0.000675  0.919669  -0.001  0.292241  0.389616  -0.001236  0.951532  -0.002
H  H20  1  0.63090856  0.06697640  0.79814880  1  0.41523  0.000659  0.888511  0.001  0.3841  -9.6e-05  0.959509  0.0  0.397244  0.000112  0.940829  0.0  0.289976  0.374825  -0.000291  0.972709  0.0
H  H21  1  0.86909467  0.43302629  0.29815002  1  0.415234  0.000662  0.888561  0.001  0.384105  -9.6e-05  0.959516  0.0  0.397251  0.000111  0.940832  0.0  0.290011  0.374829  -0.000291  0.972718  0.0
H  H22  1  0.36909107  0.93302638  0.20185046  1  0.415212  0.00066  0.888564  0.001  0.384081  -9.6e-05  0.959543  0.0  0.397226  0.000111  0.94086  0.0  0.289995  0.374806  -0.000291  0.972743  0.0
H  H23  1  0.13090505  0.56697302  0.70184925  1  0.415236  0.000658  0.88853  0.001  0.384105  -9.6e-05  0.959509  0.0  0.397249  0.000112  0.940828  0.0  0.290011  0.374828  -0.000291  0.972711  0.0
H  H24  1  0.81828747  0.41428995  0.84507399  1  0.43035  7.8e-05  0.867776  0.0  0.40395  5.1e-05  0.92555  0.0  0.414591  5.9e-05  0.910135  0.0  0.292459  0.396328  2.1e-05  0.936554  0.0
H  H25  1  0.68171237  0.08571610  0.34507500  1  0.430382  7.9e-05  0.867738  0.0  0.403995  5.1e-05  0.925491  0.0  0.414635  5.9e-05  0.910076  0.0  0.292472  0.396374  2.1e-05  0.936493  0.0
H  H26  1  0.18171357  0.58571282  0.15492454  1  0.430382  8.2e-05  0.867734  0.0  0.403983  5e-05  0.925506  0.0  0.414623  5.9e-05  0.910092  0.0  0.292458  0.396361  2.1e-05  0.93651  0.0
H  H27  1  0.31828911  0.91428782  0.65492500  1  0.430391  7.8e-05  0.867722  0.0  0.404006  5e-05  0.925473  0.0  0.414645  5.9e-05  0.910061  0.0  0.29249  0.396385  2.1e-05  0.936475  0.0
H  H28  1  0.01948625  0.47314460  0.89885703  1  0.428348  3e-05  0.840023  0.0  0.405502  5.1e-05  0.905672  0.0  0.415019  4.3e-05  0.891808  0.0  0.300497  0.398888  3.3e-05  0.915226  0.0
H  H29  1  0.48051303  0.02685739  0.39885732  1  0.428347  2.9e-05  0.840029  0.0  0.405499  5.1e-05  0.905676  0.0  0.415016  4.4e-05  0.891813  0.0  0.300497  0.398885  3.3e-05  0.915231  0.0
H  H30  1  0.98051479  0.52685817  0.10114224  1  0.42835  2.7e-05  0.840041  0.0  0.4055  5.1e-05  0.90568  0.0  0.415017  4.3e-05  0.891817  0.0  0.300492  0.398888  3.3e-05  0.915233  0.0
H  H31  1  0.51948660  0.97314539  0.60114268  1  0.428329  2.7e-05  0.840053  0.0  0.40548  5.1e-05  0.905706  0.0  0.414997  4.3e-05  0.891842  0.0  0.300486  0.398867  3.3e-05  0.915258  0.0
C  C32  1  0.05598874  0.20372701  0.11314431  1  0.07437  0.008064  3.780388  0.004  0.074454  0.003155  4.042221  0.001  0.076287  0.004483  4.059896  0.002  0.10605  0.07378  0.001991  4.02852  0.0
C  C33  1  0.44401148  0.29627809  0.61314302  1  0.074394  0.008009  3.780627  0.004  0.074445  0.003155  4.042418  0.001  0.076279  0.004483  4.060093  0.002  0.106067  0.073771  0.00199  4.028714  0.0
C  C34  1  0.94401238  0.79627229  0.88685496  1  0.074489  0.007993  3.780356  0.004  0.074524  0.003156  4.042189  0.001  0.076357  0.004484  4.059865  0.002  0.106087  0.073849  0.001991  4.028493  0.0
C  C35  1  0.55598542  0.70372123  0.38685845  1  0.0744  0.008043  3.780623  0.004  0.074461  0.003155  4.042421  0.001  0.076292  0.004484  4.060093  0.002  0.106091  0.073787  0.00199  4.02872  0.0
C  C36  1  0.43822668  0.32370159  0.04971318  1  -0.087337  -0.009147  3.63545  -0.011  -0.112352  -0.004633  3.883788  -0.006  -0.116147  -0.003906  3.902168  -0.005  -0.060414  -0.110231  -0.005274  3.872366  -0.007
C  C37  1  0.06177101  0.17629909  0.54971285  1  -0.0874  -0.009109  3.635622  -0.011  -0.112392  -0.004633  3.883948  -0.006  -0.116184  -0.003906  3.902334  -0.005  -0.060405  -0.110271  -0.005273  3.872531  -0.007
C  C38  1  0.56177401  0.67629655  0.95028462  1  -0.087237  -0.009092  3.635521  -0.011  -0.112309  -0.004633  3.883821  -0.006  -0.116098  -0.003906  3.902199  -0.005  -0.060355  -0.110187  -0.005274  3.872399  -0.007
C  C39  1  0.93822774  0.82370138  0.45028788  1  -0.087423  -0.009131  3.635616  -0.011  -0.112396  -0.004632  3.883953  -0.006  -0.116185  -0.003906  3.902337  -0.005  -0.060409  -0.110275  -0.005273  3.872536  -0.007
C  C40  1  0.84381395  0.13414069  0.14097275  1  0.626071  0.006321  3.892889  0.005  0.575005  0.000939  4.194565  0.001  0.610354  0.000695  4.188439  0.0  0.216472  0.550501  0.001068  4.198023  0.001
C  C41  1  0.65618266  0.36587058  0.64096701  1  0.626014  0.006333  3.892824  0.005  0.574994  0.000941  4.194436  0.001  0.610329  0.000695  4.18834  0.0  0.216439  0.550487  0.001069  4.197893  0.001
C  C42  1  0.15618761  0.86585976  0.85902652  1  0.626029  0.006331  3.892922  0.005  0.57503  0.000938  4.194505  0.001  0.610372  0.000695  4.188393  0.0  0.21649  0.550524  0.001068  4.19797  0.001
C  C43  1  0.34381935  0.63413103  0.35903519  1  0.626067  0.006333  3.892844  0.005  0.575017  0.00094  4.194482  0.001  0.610365  0.000696  4.188362  0.0  0.216485  0.550511  0.00107  4.197939  0.001
C  C44  1  0.39941792  0.31685924  0.15038552  1  0.004403  -0.00014  3.669909  -0.003  0.023892  -0.001541  3.898337  -0.003  0.022378  0.000473  3.913805  -0.001  0.012685  0.024297  -0.002972  3.88897  -0.004
C  C45  1  0.10057963  0.18314347  0.65038436  1  0.004485  -0.000184  3.6699  -0.003  0.023875  -0.001538  3.898421  -0.003  0.022353  0.000474  3.913887  -0.001  0.012707  0.02428  -0.00297  3.889054  -0.004
C  C46  1  0.60058126  0.68314238  0.84961448  1  0.00443  -0.000208  3.669982  -0.003  0.023915  -0.00154  3.898401  -0.003  0.022396  0.000474  3.913868  -0.001  0.012697  0.024319  -0.002971  3.889036  -0.004
C  C47  1  0.89941912  0.81685700  0.34961638  1  0.004563  -0.000149  3.669805  -0.003  0.023887  -0.00154  3.898407  -0.003  0.022364  0.000474  3.913874  -0.001  0.012728  0.024295  -0.002971  3.889037  -0.004
C  C48  1  0.56160266  0.37071777  0.22532218  1  0.659085  0.004807  3.851467  0.005  0.614256  -4.6e-05  4.146142  0.0  0.652118  0.000275  4.137881  0.0  0.221767  0.588266  -0.000566  4.151977  0.0
C  C49  1  0.93839248  0.12928056  0.72532021  1  0.659104  0.004814  3.851394  0.005  0.614242  -4.8e-05  4.146135  0.0  0.652122  0.000274  4.137851  0.0  0.221785  0.588256  -0.000566  4.151973  0.0
C  C50  1  0.43840085  0.62928036  0.77467782  1  0.659043  0.004816  3.851404  0.005  0.614223  -4.6e-05  4.146067  0.0  0.652088  0.000274  4.137804  0.0  0.221719  0.588232  -0.000566  4.151903  0.0
C  C51  1  0.06160441  0.87071877  0.27467906  1  0.659098  0.00481  3.851448  0.005  0.614281  -4.7e-05  4.146169  0.0  0.652157  0.000275  4.137889  0.0  0.221793  0.588287  -0.000566  4.152007  0.0
C  C52  1  0.20430922  0.25484618  0.18205008  1  -0.074426  -0.004833  3.652372  -0.005  -0.109312  -0.002345  3.899265  -0.003  -0.109438  -0.00224  3.913731  -0.003  -0.058533  -0.109403  -0.00259  3.889258  -0.003
C  C53  1  0.29568607  0.24515877  0.68204622  1  -0.07432  -0.004791  3.652285  -0.005  -0.109121  -0.002346  3.899094  -0.003  -0.109241  -0.00224  3.913566  -0.003  -0.05853  -0.10922  -0.00259  3.889115  -0.003
C  C54  1  0.79569287  0.74515196  0.81795066  1  -0.074427  -0.004782  3.65248  -0.005  -0.109277  -0.002346  3.899344  -0.003  -0.109399  -0.00224  3.913817  -0.003  -0.058525  -0.10937  -0.00259  3.889344  -0.003
C  C55  1  0.70431171  0.75484286  0.31795524  1  -0.074312  -0.004822  3.652217  -0.005  -0.109079  -0.002345  3.899044  -0.003  -0.109194  -0.002241  3.913502  -0.003  -0.058506  -0.109175  -0.00259  3.889055  -0.003
C  C56  1  0.28066376  0.27132948  0.98452403  1  0.153985  0.008581  3.632846  0.005  0.124162  0.002104  3.897726  0.001  0.133256  0.004027  3.912916  0.002  0.059822  0.11824  0.000543  3.887539  -0.001
C  C57  1  0.21933289  0.22866766  0.48452345  1  0.154026  0.008524  3.632766  0.005  0.124231  0.002104  3.897628  0.001  0.133321  0.004026  3.91282  0.002  0.059837  0.118308  0.000543  3.887442  -0.001
C  C58  1  0.71933596  0.72866983  0.01547523  1  0.153897  0.008502  3.632913  0.005  0.124103  0.002105  3.897788  0.001  0.133196  0.004027  3.91298  0.002  0.05982  0.118185  0.000544  3.887593  -0.001
C  C59  1  0.78066779  0.77133048  0.51547875  1  0.153994  0.008566  3.632777  0.005  0.12421  0.002105  3.897641  0.001  0.133298  0.004027  3.912837  0.002  0.05981  0.118286  0.000543  3.887458  -0.001
N  N60  1  0.09399962  0.21336642  0.01591936  1  -0.323554  -0.073705  3.37709  -0.097  -0.294587  -0.051535  3.693017  -0.073  -0.322969  -0.040962  3.711833  -0.062  -0.346678  -0.276868  -0.057665  3.679486  -0.077
N  N61  1  0.40599981  0.28663435  0.51591743  1  -0.323589  -0.073672  3.377162  -0.097  -0.294638  -0.051534  3.693098  -0.073  -0.323007  -0.040961  3.711895  -0.062  -0.346666  -0.276909  -0.057663  3.679553  -0.077
N  N62  1  0.90600486  0.78663055  0.98408137  1  -0.323589  -0.073671  3.376984  -0.097  -0.29459  -0.051536  3.69288  -0.073  -0.322971  -0.040961  3.711691  -0.062  -0.346715  -0.276871  -0.057665  3.679343  -0.077
N  N63  1  0.59399849  0.71336497  0.48408330  1  -0.323658  -0.073694  3.377105  -0.097  -0.294717  -0.051536  3.693063  -0.073  -0.323093  -0.040964  3.711859  -0.062  -0.346723  -0.276989  -0.057665  3.679518  -0.077
O  O64  1  0.72118060  0.10571813  0.06679714  1  -0.620443  -0.069641  2.094639  -0.101  -0.578629  -0.047996  2.368719  -0.075  -0.620877  -0.036062  2.359294  -0.061  -0.319599  -0.549878  -0.055901  2.375033  -0.083
O  O65  1  0.77881596  0.39428757  0.56679624  1  -0.620329  -0.069644  2.094577  -0.101  -0.578564  -0.047991  2.368647  -0.075  -0.620796  -0.036059  2.359217  -0.061  -0.319571  -0.549808  -0.055895  2.374953  -0.083
O  O66  1  0.27882000  0.89428348  0.93320359  1  -0.620417  -0.069653  2.094591  -0.101  -0.578653  -0.047998  2.368691  -0.075  -0.6209  -0.036063  2.359265  -0.061  -0.319594  -0.549903  -0.055905  2.374999  -0.083
O  O67  1  0.22118181  0.60571406  0.43320376  1  -0.620354  -0.069642  2.094666  -0.101  -0.578563  -0.047992  2.368752  -0.075  -0.620808  -0.036059  2.359316  -0.061  -0.319579  -0.549808  -0.055897  2.375056  -0.083
O  O68  1  0.79446518  0.10546317  0.22777187  1  -0.552676  -0.019756  1.974257  -0.026  -0.505172  -0.008987  2.192833  -0.013  -0.531714  -0.00398  2.186629  -0.006  -0.286943  -0.485237  -0.015101  2.196139  -0.02
O  O69  1  0.70553593  0.39455822  0.72777335  1  -0.552733  -0.019763  1.974102  -0.026  -0.505214  -0.008989  2.192623  -0.013  -0.531751  -0.003979  2.18643  -0.006  -0.28694  -0.485272  -0.015108  2.195924  -0.02
O  O70  1  0.20553497  0.89453729  0.77222813  1  -0.552673  -0.019755  1.974304  -0.026  -0.505191  -0.008986  2.192845  -0.013  -0.531726  -0.003979  2.186641  -0.006  -0.286961  -0.485258  -0.0151  2.196155  -0.02
O  O71  1  0.29446740  0.60544684  0.27222812  1  -0.55276  -0.019767  1.973991  -0.026  -0.505234  -0.008989  2.192538  -0.013  -0.531783  -0.00398  2.186351  -0.006  -0.286972  -0.485291  -0.015108  2.195837  -0.02
O  O72  1  0.50089316  0.34113620  0.31410080  1  -0.614994  -0.079847  2.123883  -0.113  -0.592543  -0.048862  2.42259  -0.076  -0.63659  -0.035202  2.414614  -0.059  -0.324462  -0.562794  -0.05851  2.4279  -0.085
O  O73  1  0.99910338  0.15886418  0.81410161  1  -0.615032  -0.079848  2.123834  -0.113  -0.592547  -0.04886  2.422518  -0.076  -0.636613  -0.035201  2.41455  -0.059  -0.324488  -0.562787  -0.058506  2.427803  -0.085
O  O74  1  0.49910752  0.65886194  0.68589847  1  -0.614982  -0.079847  2.123839  -0.113  -0.592527  -0.04886  2.422545  -0.076  -0.636583  -0.035201  2.414568  -0.059  -0.32443  -0.562778  -0.058509  2.427851  -0.085
O  O75  1  0.00089202  0.84113863  0.18589913  1  -0.615028  -0.07984  2.123819  -0.113  -0.59257  -0.048856  2.42252  -0.076  -0.636629  -0.035198  2.414543  -0.059  -0.324477  -0.562826  -0.058504  2.427831  -0.085
O  O76  1  0.73643661  0.43644485  0.19814505  1  -0.603622  0.001009  1.955811  0.0  -0.551161  0.0008  2.173381  0.0  -0.576874  0.001359  2.164174  0.001  -0.30011  -0.533926  0.00025  2.179801  -0.001
O  O77  1  0.76356198  0.06355815  0.69814572  1  -0.603636  0.001008  1.955902  0.0  -0.551145  0.000803  2.173482  0.0  -0.576862  0.001361  2.164269  0.001  -0.300104  -0.533916  0.000251  2.179903  -0.001
O  O78  1  0.26356831  0.56355327  0.80185348  1  -0.603623  0.001004  1.95583  0.0  -0.551151  0.0008  2.173369  0.0  -0.576865  0.001359  2.164163  0.001  -0.3001  -0.533917  0.00025  2.17979  -0.001
O  O79  1  0.23643386  0.93644580  0.30185574  1  -0.603648  0.001009  1.955894  0.0  -0.551161  0.000801  2.173439  0.0  -0.576878  0.001359  2.164228  0.001  -0.300128  -0.533929  0.00025  2.179862  -0.001
O  O80  1  0.59855305  0.09649371  0.86613368  1  -0.800291  -0.064389  1.987327  -0.09  -0.766623  -0.04411  2.215369  -0.065  -0.80107  -0.033798  2.176673  -0.054  -0.587045  -0.743225  -0.050831  2.242281  -0.071
O  O81  1  0.90144605  0.40351459  0.36613482  1  -0.800411  -0.06439  1.987312  -0.09  -0.766749  -0.044108  2.21532  -0.065  -0.801182  -0.033797  2.176616  -0.054  -0.587173  -0.743345  -0.050828  2.242231  -0.071
O  O82  1  0.40144605  0.90351138  0.13386632  1  -0.800339  -0.064384  1.987348  -0.09  -0.766665  -0.044108  2.215338  -0.065  -0.801118  -0.033796  2.176655  -0.054  -0.587099  -0.743271  -0.050829  2.242249  -0.071
O  O83  1  0.09855172  0.59648704  0.63386518  1  -0.800364  -0.064386  1.987309  -0.09  -0.766702  -0.044107  2.215329  -0.065  -0.801141  -0.033796  2.176619  -0.054  -0.587149  -0.743298  -0.050827  2.242232  -0.071
O  O84  1  0.87950529  0.42017560  0.91061175  1  -0.831546  0.000962  1.816063  0.0  -0.78851  0.000496  1.997315  -0.001  -0.810069  0.000886  1.966396  0.0  -0.592115  -0.773246  0.000144  2.018281  -0.001
O  O85  1  0.62049310  0.07982450  0.41061291  1  -0.83159  0.000958  1.816073  0.0  -0.788542  0.000496  1.997293  -0.001  -0.810099  0.000887  1.966373  0.0  -0.592116  -0.77327  0.000143  2.018251  -0.001
O  O86  1  0.12049390  0.57982603  0.08938751  1  -0.831603  0.000958  1.81609  0.0  -0.788542  0.000496  1.997304  -0.001  -0.8101  0.000887  1.96638  0.0  -0.592111  -0.773278  0.000143  2.018262  -0.001
O  O87  1  0.37950847  0.92017596  0.58938709  1  -0.831591  0.000964  1.816077  0.0  -0.78854  0.000496  1.997301  -0.001  -0.8101  0.000886  1.966378  0.0  -0.592126  -0.77327  0.000143  2.018258  -0.001
