# generated using pymatgen
data_AgH14C15(NO)2
_symmetry_space_group_name_H-M   'P 1'
_cell_length_a   7.44038527
_cell_length_b   8.58887474
_cell_length_c   11.95898297
_cell_angle_alpha   103.43909159
_cell_angle_beta   90.67773545
_cell_angle_gamma   113.15368686
_symmetry_Int_Tables_number   1
_chemical_formula_structural   AgH14C15(NO)2
_chemical_formula_sum   'Ag2 H28 C30 N4 O4'
_cell_volume   678.86879748
_cell_formula_units_Z   2
loop_
 _symmetry_equiv_pos_site_id
 _symmetry_equiv_pos_as_xyz
  1  'x, y, z'
loop_
 _atom_site_type_symbol
 _atom_site_label
 _atom_site_symmetry_multiplicity
 _atom_site_fract_x
 _atom_site_fract_y
 _atom_site_fract_z
 _atom_site_occupancy
 _atom_site_hle17_bader_spin_density
 _atom_site_hle17_ddec_charge
 _atom_site_hle17_ddec_spin_density
 _atom_site_hle17_ddec_sum_bond_order
 _atom_site_hle17_magmom
 _atom_site_hse06_10hf_bader_spin_density
 _atom_site_hse06_10hf_ddec_charge
 _atom_site_hse06_10hf_ddec_spin_density
 _atom_site_hse06_10hf_ddec_sum_bond_order
 _atom_site_hse06_10hf_magmom
 _atom_site_hse06_bader_spin_density
 _atom_site_hse06_ddec_charge
 _atom_site_hse06_ddec_spin_density
 _atom_site_hse06_ddec_sum_bond_order
 _atom_site_hse06_magmom
 _atom_site_pbe_bader_spin_density
 _atom_site_pbe_cm5_charge
 _atom_site_pbe_ddec_charge
 _atom_site_pbe_ddec_spin_density
 _atom_site_pbe_ddec_sum_bond_order
 _atom_site_pbe_magmom
Ag  Ag0  1  0.70687548  0.44370463  0.52270952  1  0  0.539412  0  1.419841  0  0  0.397503  0  1.858514  0  0  0.430716  0  1.810808  0  0  0.466344  0.374287  0  1.891438  0
Ag  Ag1  1  0.29312329  0.55630155  0.47729312  1  0  0.539446  0  1.419841  0  0  0.397534  0  1.858522  0  0  0.430748  0  1.810815  0  0  0.466377  0.37432  0  1.89144  0
H  H2  1  0.09882297  0.58372131  0.93192153  1  0  0.136054  0  0.975346  0  0  0.14871  0  1.031809  0  0  0.150991  0  1.03301  0  0  0.106229  0.147093  0  1.031115  0
H  H3  1  0.90118553  0.41628247  0.06807663  1  0  0.136037  0  0.975363  0  0  0.148661  0  1.031865  0  0  0.150942  0  1.033068  0  0  0.106224  0.147035  0  1.031177  0
H  H4  1  0.78849836  0.08808607  0.86220847  1  0  0.124714  0  0.952025  0  0  0.141437  0  1.019235  0  0  0.143397  0  1.018411  0  0  0.097982  0.139988  0  1.019861  0
H  H5  1  0.21150648  0.91191245  0.13779296  1  0  0.124688  0  0.952077  0  0  0.141414  0  1.019284  0  0  0.143374  0  1.01846  0  0  0.097972  0.139964  0  1.019909  0
H  H6  1  0.01780999  0.24344330  0.94368513  1  0  0.122994  0  0.95253  0  0  0.145467  0  1.008969  0  0  0.146857  0  1.009362  0  0  0.098494  0.144448  0  1.008713  0
H  H7  1  0.98219349  0.75655519  0.05631545  1  0  0.122987  0  0.952523  0  0  0.145444  0  1.00897  0  0  0.146833  0  1.009362  0  0  0.098506  0.144426  0  1.008714  0
H  H8  1  0.01210401  0.11907524  0.80167934  1  0  0.123058  0  0.945411  0  0  0.146216  0  1.002573  0  0  0.147262  0  1.00357  0  0  0.099477  0.145452  0  1.001891  0
H  H9  1  0.98789848  0.88092713  0.19832103  1  0  0.123025  0  0.945416  0  0  0.146185  0  1.002585  0  0  0.14723  0  1.003581  0  0  0.099471  0.145422  0  1.001901  0
H  H10  1  0.14827395  0.82547803  0.74778642  1  0  0.137398  0  0.956444  0  0  0.155533  0  1.018342  0  0  0.157964  0  1.017065  0  0  0.095729  0.153773  0  1.01928  0
H  H11  1  0.85172334  0.17452163  0.25221345  1  0  0.137374  0  0.956447  0  0  0.155523  0  1.018337  0  0  0.157953  0  1.01706  0  0  0.095719  0.153763  0  1.019267  0
H  H12  1  0.97822669  0.83609255  0.85003906  1  0  0.117215  0  0.939471  0  0  0.140327  0  0.994007  0  0  0.141728  0  0.994239  0  0  0.094358  0.139331  0  0.993826  0
H  H13  1  0.02176967  0.16390189  0.14995994  1  0  0.117214  0  0.93948  0  0  0.140331  0  0.994015  0  0  0.141731  0  0.994249  0  0  0.094346  0.139336  0  0.993833  0
H  H14  1  0.89740802  0.76772802  0.69895804  1  0  0.111709  0  0.960801  0  0  0.129481  0  1.029857  0  0  0.130882  0  1.029825  0  0  0.089037  0.128434  0  1.029959  0
H  H15  1  0.10258812  0.23226902  0.30104223  1  0  0.111713  0  0.960804  0  0  0.129481  0  1.029876  0  0  0.130882  0  1.029844  0  0  0.089033  0.128433  0  1.02998  0
H  H16  1  0.62806566  0.14069232  0.55886899  1  0  0.071785  0  0.955563  0  0  0.088084  0  1.029424  0  0  0.089253  0  1.026608  0  0  0.106564  0.087109  0  1.031548  0
H  H17  1  0.37192868  0.85930987  0.44113211  1  0  0.071735  0  0.955662  0  0  0.088081  0  1.029466  0  0  0.089252  0  1.026646  0  0  0.106565  0.087109  0  1.031596  0
H  H18  1  0.62858620  0.02595746  0.66435384  1  0  0.117781  0  0.96624  0  0  0.13091  0  1.027664  0  0  0.132788  0  1.026511  0  0  0.116797  0.129467  0  1.028608  0
H  H19  1  0.37140394  0.97403815  0.33564697  1  0  0.117713  0  0.966205  0  0  0.130821  0  1.02768  0  0  0.132699  0  1.026529  0  0  0.116765  0.129383  0  1.028625  0
H  H20  1  0.12765345  0.30395723  0.62482768  1  0  0.100288  0  0.998054  0  0  0.103439  0  1.070427  0  0  0.106933  0  1.068853  0  0  0.097638  0.100875  0  1.071727  0
H  H21  1  0.87234230  0.69603591  0.37517612  1  0  0.100203  0  0.998159  0  0  0.103366  0  1.070507  0  0  0.106879  0  1.068911  0  0  0.097627  0.1008  0  1.07181  0
H  H22  1  0.35382721  0.19842446  0.51883461  1  0  0.074774  0  0.994198  0  0  0.080795  0  1.075358  0  0  0.085398  0  1.0696  0  0  0.084898  0.077318  0  1.079815  0
H  H23  1  0.64616504  0.80156990  0.48116936  1  0  0.074801  0  0.994188  0  0  0.080827  0  1.075343  0  0  0.085427  0  1.069589  0  0  0.084914  0.077349  0  1.079801  0
H  H24  1  0.47081968  0.10224492  0.06547395  1  0  0.089479  0  0.975842  0  0  0.099907  0  1.039373  0  0  0.103023  0  1.037371  0  0  0.098777  0.097591  0  1.040951  0
H  H25  1  0.52919367  0.89775766  0.93452573  1  0  0.089514  0  0.975725  0  0  0.099944  0  1.039253  0  0  0.10306  0  1.037247  0  0  0.098795  0.097639  0  1.040823  0
H  H26  1  0.43946771  0.16295288  0.87328366  1  0  0.100511  0  0.941719  0  0  0.114494  0  0.996774  0  0  0.117641  0  0.995324  0  0  0.103669  0.112123  0  0.998043  0
H  H27  1  0.56054907  0.83705757  0.12671652  1  0  0.100514  0  0.941408  0  0  0.114495  0  0.996495  0  0  0.117653  0  0.995033  0  0  0.103703  0.112126  0  0.997757  0
H  H28  1  0.43944600  0.37279215  0.75960505  1  0  0.103675  0  0.94841  0  0  0.113743  0  1.012787  0  0  0.117027  0  1.010658  0  0  0.104444  0.111368  0  1.014356  0
H  H29  1  0.56057205  0.62721182  0.24038571  1  0  0.10359  0  0.94879  0  0  0.113697  0  1.013116  0  0  0.116985  0  1.010984  0  0  0.104407  0.111319  0  1.014692  0
C  C30  1  0.92080898  0.32809975  0.80991327  1  0  0.234961  0  3.723003  0  0  0.22533  0  3.990383  0  0  0.236275  0  4.007829  0  0  0.104845  0.218246  0  3.978326  0
C  C31  1  0.07918944  0.67190253  0.19008788  1  0  0.234962  0  3.723004  0  0  0.225324  0  3.990383  0  0  0.236272  0  4.007827  0  0  0.104849  0.218245  0  3.978317  0
C  C32  1  0.00426467  0.50973639  0.85152717  1  0  -0.33121  0  3.707368  0  0  -0.359399  0  3.964243  0  0  -0.370626  0  3.984058  0  0  -0.121342  -0.352138  0  3.950974  0
C  C33  1  0.99573689  0.49026075  0.14847317  1  0  -0.331204  0  3.707334  0  0  -0.359351  0  3.964237  0  0  -0.37058  0  3.984054  0  0  -0.121327  -0.35208  0  3.950971  0
C  C34  1  0.94796468  0.57687200  0.76693271  1  0  0.284675  0  3.766919  0  0  0.280155  0  4.032656  0  0  0.29162  0  4.051625  0  0  0.099795  0.272619  0  4.019547  0
C  C35  1  0.05203317  0.42312896  0.23306739  1  0  0.284705  0  3.766912  0  0  0.280158  0  4.032698  0  0  0.291622  0  4.05167  0  0  0.099757  0.272614  0  4.019595  0
C  C36  1  0.93482105  0.18726336  0.85736503  1  0  -0.359433  0  3.717469  0  0  -0.438116  0  3.952707  0  0  -0.441347  0  3.959637  0  0  -0.232636  -0.435635  0  3.947774  0
C  C37  1  0.06518010  0.81273897  0.14263366  1  0  -0.359335  0  3.717421  0  0  -0.437993  0  3.952672  0  0  -0.441225  0  3.959602  0  0  -0.232617  -0.435517  0  3.947738  0
C  C38  1  0.99534950  0.76186011  0.76584922  1  0  -0.362682  0  3.710554  0  0  -0.439096  0  3.940988  0  0  -0.443111  0  3.948396  0  0  -0.239068  -0.436093  0  3.935774  0
C  C39  1  0.00464993  0.23813830  0.23415047  1  0  -0.362695  0  3.710551  0  0  -0.439112  0  3.94097  0  0  -0.443127  0  3.948384  0  0  -0.239032  -0.436105  0  3.935746  0
C  C40  1  0.72433995  0.12388888  0.62161190  1  0  -0.07068  0  3.672839  0  0  -0.138417  0  3.917037  0  0  -0.135458  0  3.928832  0  0  -0.050101  -0.140127  0  3.908983  0
C  C41  1  0.27565709  0.87611338  0.37839174  1  0  -0.070592  0  3.672761  0  0  -0.138376  0  3.916992  0  0  -0.135419  0  3.928783  0  0  -0.050144  -0.140109  0  3.90897  0
C  C42  1  0.86906232  0.06143794  0.55990549  1  0  0.070194  0  3.754106  0  0  0.093766  0  3.98286  0  0  0.092777  0  4.008935  0  0  -0.014661  0.094377  0  3.965121  0
C  C43  1  0.13093859  0.93856699  0.44009613  1  0  0.070151  0  3.754162  0  0  0.093765  0  3.98287  0  0  0.092778  0  4.008948  0  0  -0.014615  0.094378  0  3.965145  0
C  C44  1  0.06915915  0.17032274  0.57014473  1  0  -0.137063  0  3.779181  0  0  -0.157465  0  4.028518  0  0  -0.159927  0  4.049674  0  0  -0.102164  -0.15565  0  4.014232  0
C  C45  1  0.93083814  0.82967692  0.42985264  1  0  -0.136958  0  3.779193  0  0  -0.157364  0  4.028491  0  0  -0.159842  0  4.049638  0  0  -0.102153  -0.15555  0  4.014207  0
C  C46  1  0.19838469  0.10956051  0.51061166  1  0  -0.107631  0  3.751605  0  0  -0.120637  0  3.988122  0  0  -0.124325  0  4.010343  0  0  -0.096052  -0.117961  0  3.973097  0
C  C47  1  0.80161179  0.89044043  0.48939009  1  0  -0.107733  0  3.751627  0  0  -0.120734  0  3.988155  0  0  -0.124422  0  4.010389  0  0  -0.096038  -0.118052  0  3.973124  0
C  C48  1  0.51581575  0.36173441  0.16379018  1  0  -0.059117  0  3.768978  0  0  -0.033285  0  3.998742  0  0  -0.041184  0  4.022755  0  0  -0.019866  -0.028132  0  3.982496  0
C  C49  1  0.48419632  0.63825906  0.83620798  1  0  -0.059102  0  3.768607  0  0  -0.033443  0  3.998591  0  0  -0.041344  0  4.022598  0  0  -0.019912  -0.028302  0  3.982365  0
C  C50  1  0.48036413  0.22978219  0.05923289  1  0  -0.089682  0  3.777133  0  0  -0.111862  0  4.024237  0  0  -0.112728  0  4.045596  0  0  -0.092155  -0.111093  0  4.009731  0
C  C51  1  0.51964669  0.77023333  0.94078229  1  0  -0.089748  0  3.777052  0  0  -0.111871  0  4.024209  0  0  -0.112734  0  4.045564  0  0  -0.092155  -0.111111  0  4.009702  0
C  C52  1  0.46448726  0.26427343  0.95357670  1  0  -0.120443  0  3.753704  0  0  -0.138857  0  4.00299  0  0  -0.141913  0  4.024167  0  0  -0.090816  -0.136695  0  3.988599  0
C  C53  1  0.53551252  0.73571329  0.04641103  1  0  -0.120487  0  3.754417  0  0  -0.13896  0  4.003661  0  0  -0.142027  0  4.024837  0  0  -0.090921  -0.136795  0  3.989266  0
C  C54  1  0.48328408  0.43331369  0.94719369  1  0  0.053566  0  3.789031  0  0  0.071367  0  4.015071  0  0  0.070929  0  4.0392  0  0  -0.006148  0.071651  0  3.998691  0
C  C55  1  0.51670868  0.56670015  0.05279929  1  0  0.053583  0  3.789123  0  0  0.071607  0  4.014984  0  0  0.071174  0  4.039117  0  0  -0.006148  0.071878  0  3.998609  0
C  C56  1  0.46800837  0.47361989  0.84028526  1  0  -0.096923  0  3.687485  0  0  -0.13046  0  3.93687  0  0  -0.129704  0  3.955673  0  0  -0.079065  -0.130733  0  3.924077  0
C  C57  1  0.53200659  0.52639571  0.15972078  1  0  -0.096843  0  3.687319  0  0  -0.130526  0  3.936592  0  0  -0.129768  0  3.955375  0  0  -0.079021  -0.130794  0  3.923803  0
C  C58  1  0.55010637  0.32461802  0.27701189  1  0  0.625811  0  3.934836  0  0  0.577949  0  4.215829  0  0  0.611778  0  4.211721  0  0  0.196608  0.555027  0  4.217683  0
C  C59  1  0.44989054  0.67537773  0.72298985  1  0  0.625926  0  3.934688  0  0  0.578099  0  4.215708  0  0  0.611929  0  4.211597  0  0  0.196718  0.555181  0  4.217562  0
N  N60  1  0.81803151  0.29197825  0.70545627  1  0  0.00713  0  3.548939  0  0  0.089359  0  3.760432  0  0  0.07728  0  3.789931  0  0  -0.1561  0.097189  0  3.740444  0
N  N61  1  0.18196463  0.70801879  0.29454316  1  0  0.007017  0  3.54885  0  0  0.089261  0  3.760344  0  0  0.077182  0  3.789841  0  0  -0.156132  0.0971  0  3.740354  0
N  N62  1  0.83621452  0.44236378  0.67769304  1  0  -0.3369  0  3.259945  0  0  -0.27651  0  3.565881  0  0  -0.295496  0  3.581815  0  0  -0.2865  -0.263576  0  3.554827  0
N  N63  1  0.16378162  0.55763326  0.32230555  1  0  -0.336833  0  3.259841  0  0  -0.276448  0  3.565793  0  0  -0.295436  0  3.58173  0  0  -0.286457  -0.263518  0  3.554743  0
O  O64  1  0.54895814  0.17885152  0.27847589  1  0  -0.625987  0  1.958707  0  0  -0.574921  0  2.182933  0  0  -0.598143  0  2.173603  0  0  -0.325754  -0.558589  0  2.188636  0
O  O65  1  0.45102817  0.82114141  0.72151942  1  0  -0.626052  0  1.958702  0  0  -0.574978  0  2.182918  0  0  -0.5982  0  2.173584  0  0  -0.32577  -0.558632  0  2.188592  0
O  O66  1  0.58511264  0.45455570  0.36769231  1  0  -0.649318  0  2.188803  0  0  -0.55486  0  2.473543  0  0  -0.588476  0  2.461572  0  0  -0.349237  -0.531254  0  2.48081  0
O  O67  1  0.41487321  0.54544243  0.63230886  1  0  -0.649431  0  2.18888  0  0  -0.554946  0  2.473598  0  0  -0.588562  0  2.461622  0  0  -0.349329  -0.531342  0  2.480866  0
