# generated using pymatgen
data_LaH19C15(NO2)4
_symmetry_space_group_name_H-M   'P 1'
_cell_length_a   9.31584373
_cell_length_b   10.78507314
_cell_length_c   11.26394330
_cell_angle_alpha   75.02516288
_cell_angle_beta   66.49553553
_cell_angle_gamma   67.41401348
_symmetry_Int_Tables_number   1
_chemical_formula_structural   LaH19C15(NO2)4
_chemical_formula_sum   'La2 H38 C30 N8 O16'
_cell_volume   950.78862530
_cell_formula_units_Z   2
loop_
 _symmetry_equiv_pos_site_id
 _symmetry_equiv_pos_as_xyz
  1  'x, y, z'
loop_
 _atom_site_type_symbol
 _atom_site_label
 _atom_site_symmetry_multiplicity
 _atom_site_fract_x
 _atom_site_fract_y
 _atom_site_fract_z
 _atom_site_occupancy
 _atom_site_hle17_bader_spin_density
 _atom_site_hle17_ddec_charge
 _atom_site_hle17_ddec_spin_density
 _atom_site_hle17_ddec_sum_bond_order
 _atom_site_hle17_magmom
 _atom_site_hse06_10hf_bader_spin_density
 _atom_site_hse06_10hf_ddec_charge
 _atom_site_hse06_10hf_ddec_spin_density
 _atom_site_hse06_10hf_ddec_sum_bond_order
 _atom_site_hse06_10hf_magmom
 _atom_site_hse06_bader_spin_density
 _atom_site_hse06_ddec_charge
 _atom_site_hse06_ddec_spin_density
 _atom_site_hse06_ddec_sum_bond_order
 _atom_site_hse06_magmom
 _atom_site_pbe_bader_spin_density
 _atom_site_pbe_cm5_charge
 _atom_site_pbe_ddec_charge
 _atom_site_pbe_ddec_spin_density
 _atom_site_pbe_ddec_sum_bond_order
 _atom_site_pbe_magmom
La  La0  1  0.69220824  0.32669914  0.31626922  1  0  2.088146  0  1.855219  0  0  1.959295  0  2.406978  0  0  2.066143  0  2.299066  0  0  1.427466  1.876954  0  2.484672  0
La  La1  1  0.30779428  0.67329789  0.68373122  1  0  2.088147  0  1.855281  0  0  1.959299  0  2.40705  0  0  2.066144  0  2.299136  0  0  1.42748  1.876962  0  2.48474  0
H  H2  1  0.75623390  0.02711790  0.51183830  1  0  0.302888  0  0.936146  0  0  0.28494  0  1.00048  0  0  0.292607  0  0.994564  0  0  0.311847  0.27952  0  1.004588  0
H  H3  1  0.24376548  0.97288114  0.48816269  1  0  0.302853  0  0.936219  0  0  0.284916  0  1.000515  0  0  0.292576  0  0.994609  0  0  0.311818  0.279496  0  1.004623  0
H  H4  1  0.60303435  0.94238616  0.78596690  1  0  0.078461  0  0.934236  0  0  0.098637  0  1.000567  0  0  0.099349  0  1.000505  0  0  0.096571  0.097878  0  1.000933  0
H  H5  1  0.39696189  0.05761489  0.21403375  1  0  0.078437  0  0.93427  0  0  0.098625  0  1.000585  0  0  0.099337  0  1.000525  0  0  0.096564  0.097867  0  1.000951  0
H  H6  1  0.79575293  0.85541454  0.67617980  1  0  0.094602  0  0.951663  0  0  0.118668  0  1.009078  0  0  0.118981  0  1.00967  0  0  0.109675  0.118213  0  1.008966  0
H  H7  1  0.20424372  0.14458551  0.32382185  1  0  0.094597  0  0.951671  0  0  0.118664  0  1.009086  0  0  0.118977  0  1.009678  0  0  0.109682  0.11821  0  1.008972  0
H  H8  1  0.61128705  0.83139167  0.68827202  1  0  0.094897  0  0.953148  0  0  0.112951  0  1.018676  0  0  0.114159  0  1.018557  0  0  0.105055  0.111851  0  1.019163  0
H  H9  1  0.38871036  0.16860939  0.31172824  1  0  0.094924  0  0.953148  0  0  0.112973  0  1.018674  0  0  0.114181  0  1.018553  0  0  0.105058  0.111874  0  1.019161  0
H  H10  1  0.35902184  0.01259578  0.72511622  1  0  0.302711  0  0.919332  0  0  0.286489  0  0.980068  0  0  0.294396  0  0.973803  0  0  0.30968  0.28068  0  0.984941  0
H  H11  1  0.64097480  0.98740426  0.27488455  1  0  0.3027  0  0.919341  0  0  0.286492  0  0.980092  0  0  0.294402  0  0.973827  0  0  0.309668  0.280682  0  0.984966  0
H  H12  1  0.22202445  0.30058047  0.62463713  1  0  0.105569  0  0.931654  0  0  0.12757  0  0.987656  0  0  0.129104  0  0.986349  0  0  0.112235  0.126288  0  0.988803  0
H  H13  1  0.77797413  0.69942059  0.37536272  1  0  0.105578  0  0.93163  0  0  0.127585  0  0.987628  0  0  0.12912  0  0.986318  0  0  0.112223  0.126302  0  0.988775  0
H  H14  1  0.11189470  0.19557073  0.74654537  1  0  0.083193  0  0.959092  0  0  0.101188  0  1.02892  0  0  0.100732  0  1.031085  0  0  0.097404  0.101454  0  1.02721  0
H  H15  1  0.88810347  0.80443134  0.25345348  1  0  0.0832  0  0.959077  0  0  0.101194  0  1.028905  0  0  0.100738  0  1.031068  0  0  0.097414  0.101459  0  1.027196  0
H  H16  1  0.17518805  0.17864376  0.57831986  1  0  0.077149  0  0.947492  0  0  0.099623  0  1.010192  0  0  0.099774  0  1.01055  0  0  0.094917  0.099341  0  1.00992  0
H  H17  1  0.82481169  0.82135730  0.42167872  1  0  0.07711  0  0.947485  0  0  0.099605  0  1.01017  0  0  0.099755  0  1.010527  0  0  0.094917  0.099325  0  1.009896  0
H  H18  1  0.91772680  0.73174250  0.99706856  1  0  0.302722  0  0.941744  0  0  0.284469  0  1.005144  0  0  0.292892  0  0.998272  0  0  0.306159  0.278466  0  1.009937  0
H  H19  1  0.08227293  0.26825856  0.00292914  1  0  0.302726  0  0.941731  0  0  0.284483  0  1.005116  0  0  0.292907  0  0.998242  0  0  0.30618  0.278477  0  1.009911  0
H  H20  1  0.64236995  0.64489824  0.06127818  1  0  0.087458  0  0.950504  0  0  0.106639  0  1.017187  0  0  0.106686  0  1.018067  0  0  0.102451  0.106189  0  1.016975  0
H  H21  1  0.35763019  0.35510181  0.93872052  1  0  0.087445  0  0.950501  0  0  0.106626  0  1.017183  0  0  0.106671  0  1.018063  0  0  0.102446  0.106176  0  1.01697  0
H  H22  1  0.64983751  0.81395838  0.00825983  1  0  0.084052  0  0.937136  0  0  0.108137  0  0.997343  0  0  0.108609  0  0.997434  0  0  0.102307  0.107477  0  0.997803  0
H  H23  1  0.35016303  0.18604066  0.99173988  1  0  0.084023  0  0.937143  0  0  0.108105  0  0.997349  0  0  0.108577  0  0.99744  0  0  0.102304  0.107446  0  0.997809  0
H  H24  1  0.58775793  0.75362322  0.17787060  1  0  0.085088  0  0.948514  0  0  0.103343  0  1.015033  0  0  0.103455  0  1.016187  0  0  0.098464  0.103177  0  1.014105  0
H  H25  1  0.41224222  0.24637683  0.82212987  1  0  0.0851  0  0.948487  0  0  0.103338  0  1.015025  0  0  0.103449  0  1.016181  0  0  0.098471  0.103172  0  1.014097  0
H  H26  1  0.14521443  0.57963674  0.05881474  1  0  0.293493  0  0.944558  0  0  0.275335  0  1.008547  0  0  0.283127  0  1.003207  0  0  0.303016  0.269936  0  1.012017  0
H  H27  1  0.85478689  0.42036332  0.94118445  1  0  0.293491  0  0.944589  0  0  0.275324  0  1.008586  0  0  0.283116  0  1.003243  0  0  0.303008  0.269925  0  1.012056  0
H  H28  1  0.06324151  0.42723834  0.32047120  1  0  0.094574  0  0.921302  0  0  0.117252  0  0.977789  0  0  0.118209  0  0.977456  0  0  0.109029  0.116176  0  0.978415  0
H  H29  1  0.93675902  0.57276375  0.67952863  1  0  0.094568  0  0.921324  0  0  0.117242  0  0.97781  0  0  0.118199  0  0.977478  0  0  0.109036  0.116166  0  0.978437  0
H  H30  1  0.26146995  0.41636003  0.20099677  1  0  0.094409  0  0.937641  0  0  0.118097  0  0.996249  0  0  0.118584  0  0.996293  0  0  0.109368  0.117398  0  0.996649  0
H  H31  1  0.73853019  0.58364002  0.79900282  1  0  0.094414  0  0.937629  0  0  0.118101  0  0.996236  0  0  0.118588  0  0.996281  0  0  0.109373  0.117402  0  0.996637  0
H  H32  1  0.14089319  0.32572789  0.19276609  1  0  0.077477  0  0.974642  0  0  0.094585  0  1.046504  0  0  0.094951  0  1.047442  0  0  0.098171  0.09418  0  1.046022  0
H  H33  1  0.85910581  0.67427216  0.80723565  1  0  0.07746  0  0.974662  0  0  0.094573  0  1.046517  0  0  0.09494  0  1.047455  0  0  0.098165  0.09417  0  1.046035  0
H  H34  1  0.11593488  0.87035147  0.40844291  1  0  0.117116  0  0.953301  0  0  0.120857  0  1.025578  0  0  0.125917  0  1.020154  0  0  0.114091  0.117456  0  1.028572  0
H  H35  1  0.88406604  0.12964960  0.59155616  1  0  0.117106  0  0.953277  0  0  0.120847  0  1.025546  0  0  0.125907  0  1.020123  0  0  0.114081  0.117446  0  1.028541  0
H  H36  1  0.13335748  0.00227198  0.00848644  1  0  0.108259  0  0.940923  0  0  0.115704  0  1.007624  0  0  0.119981  0  1.003611  0  0  0.108493  0.112558  0  1.010629  0
H  H37  1  0.86664736  0.99772810  0.99151332  1  0  0.108263  0  0.940922  0  0  0.115701  0  1.007633  0  0  0.119978  0  1.003619  0  0  0.108488  0.112554  0  1.010636  0
H  H38  1  0.38668634  0.58836886  0.12575849  1  0  0.111174  0  0.948452  0  0  0.115655  0  1.02001  0  0  0.120329  0  1.015139  0  0  0.113971  0.112248  0  1.023335  0
H  H39  1  0.61331305  0.41163018  0.87424249  1  0  0.111194  0  0.948425  0  0  0.115675  0  1.019995  0  0  0.120348  0  1.015122  0  0  0.113971  0.112269  0  1.023319  0
C  C40  1  0.26282426  0.71962998  0.27624881  1  0  -0.082037  0  3.736923  0  0  -0.054683  0  3.967099  0  0  -0.06528  0  3.988399  0  0  -0.013103  -0.047845  0  3.952614  0
C  C41  1  0.73718290  0.28037011  0.72374840  1  0  -0.081998  0  3.736812  0  0  -0.054681  0  3.967012  0  0  -0.065276  0  3.988311  0  0  -0.013063  -0.047844  0  3.952528  0
C  C42  1  0.15954114  0.84901908  0.30828801  1  0  -0.045112  0  3.664424  0  0  -0.084262  0  3.915041  0  0  -0.078288  0  3.929916  0  0  -0.062397  -0.087316  0  3.903541  0
C  C43  1  0.84046020  0.15097794  0.69171282  1  0  -0.045064  0  3.66432  0  0  -0.084188  0  3.914909  0  0  -0.078214  0  3.929784  0  0  -0.062386  -0.087241  0  3.903408  0
C  C44  1  0.11349157  0.95095389  0.21200840  1  0  -0.074861  0  3.764278  0  0  -0.04976  0  4.003011  0  0  -0.05974  0  4.025106  0  0  -0.017503  -0.0431  0  3.987661  0
C  C45  1  0.88650431  0.04904208  0.78799277  1  0  -0.074901  0  3.764238  0  0  -0.049782  0  4.002948  0  0  -0.059764  0  4.025042  0  0  -0.017502  -0.043126  0  3.9876  0
C  C46  1  0.16963704  0.92305015  0.08333936  1  0  -0.05589  0  3.668651  0  0  -0.093569  0  3.916729  0  0  -0.087969  0  3.931657  0  0  -0.070406  -0.096945  0  3.906559  0
C  C47  1  0.83036235  0.07694889  0.91666251  1  0  -0.055875  0  3.668647  0  0  -0.093557  0  3.916719  0  0  -0.087953  0  3.931645  0  0  -0.070417  -0.096928  0  3.906543  0
C  C48  1  0.26303206  0.79122206  0.05305130  1  0  -0.076126  0  3.76186  0  0  -0.05001  0  3.998217  0  0  -0.059476  0  4.019265  0  0  -0.018551  -0.043732  0  3.983305  0
C  C49  1  0.73696847  0.20877697  0.94694752  1  0  -0.076167  0  3.76183  0  0  -0.050045  0  3.998212  0  0  -0.059512  0  4.01926  0  0  -0.018562  -0.043767  0  3.983296  0
C  C50  1  0.30997557  0.69030977  0.14963363  1  0  -0.045682  0  3.679746  0  0  -0.083055  0  3.929195  0  0  -0.077212  0  3.94445  0  0  -0.060999  -0.086429  0  3.918326  0
C  C51  1  0.69002649  0.30969130  0.85036327  1  0  -0.04573  0  3.679651  0  0  -0.08311  0  3.929127  0  0  -0.077265  0  3.94438  0  0  -0.061021  -0.086489  0  3.918267  0
C  C52  1  0.32689489  0.61359653  0.37562158  1  0  0.715521  0  3.873477  0  0  0.671189  0  4.159825  0  0  0.70915  0  4.150074  0  0  0.244206  0.645129  0  4.165438  0
C  C53  1  0.67311112  0.38640356  0.62437779  1  0  0.715484  0  3.873499  0  0  0.67119  0  4.159793  0  0  0.709153  0  4.150044  0  0  0.244199  0.645132  0  4.165406  0
C  C54  1  0.99649938  0.08646228  0.24929654  1  0  0.640846  0  3.933787  0  0  0.593307  0  4.228741  0  0  0.626861  0  4.225449  0  0  0.202704  0.570449  0  4.230154  0
C  C55  1  0.00350001  0.91353676  0.75070445  1  0  0.640742  0  3.93383  0  0  0.593175  0  4.228822  0  0  0.626731  0  4.225529  0  0  0.202656  0.570317  0  4.230238  0
C  C56  1  0.30381488  0.75325769  0.92195991  1  0  0.641917  0  3.92667  0  0  0.596564  0  4.217349  0  0  0.630393  0  4.21348  0  0  0.20233  0.573658  0  4.218441  0
C  C57  1  0.69618371  0.24674338  0.07804083  1  0  0.641988  0  3.926743  0  0  0.596586  0  4.217482  0  0  0.630416  0  4.21361  0  0  0.202306  0.573681  0  4.218572  0
C  C58  1  0.50955237  0.10899399  0.57371108  1  0  0.719539  0  3.900068  0  0  0.649415  0  4.202119  0  0  0.684956  0  4.198879  0  0  0.339128  0.625376  0  4.203361  0
C  C59  1  0.49044700  0.89100809  0.42629003  1  0  0.719571  0  3.900047  0  0  0.649459  0  4.202112  0  0  0.685005  0  4.19887  0  0  0.339158  0.62542  0  4.203357  0
C  C60  1  0.66458690  0.90573132  0.68959541  1  0  -0.106526  0  3.708098  0  0  -0.208478  0  3.972917  0  0  -0.204276  0  3.982042  0  0  -0.137532  -0.210882  0  3.967039  0
C  C61  1  0.33541053  0.09426973  0.31040573  1  0  -0.106539  0  3.708157  0  0  -0.208511  0  3.972963  0  0  -0.204306  0  3.982085  0  0  -0.137544  -0.210917  0  3.967085  0
C  C62  1  0.20999333  0.19897566  0.65219492  1  0  -0.090962  0  3.679516  0  0  -0.191362  0  3.937704  0  0  -0.18649  0  3.946253  0  0  -0.137717  -0.194437  0  3.932038  0
C  C63  1  0.79000525  0.80102540  0.34780493  1  0  -0.090932  0  3.679434  0  0  -0.191312  0  3.937674  0  0  -0.186432  0  3.946221  0  0  -0.137698  -0.194389  0  3.932012  0
C  C64  1  0.90527471  0.57308006  0.14735218  1  0  0.733713  0  3.890569  0  0  0.663139  0  4.191389  0  0  0.699067  0  4.187278  0  0  0.344752  0.638693  0  4.193949  0
C  C65  1  0.09472503  0.42692101  0.85264640  1  0  0.733738  0  3.890508  0  0  0.66316  0  4.191319  0  0  0.699087  0  4.187208  0  0  0.344773  0.63871  0  4.193883  0
C  C66  1  0.67175240  0.72544389  0.08083079  1  0  -0.095594  0  3.711034  0  0  -0.196435  0  3.975307  0  0  -0.191852  0  3.985279  0  0  -0.136784  -0.199418  0  3.969333  0
C  C67  1  0.32824659  0.27455617  0.91917007  1  0  -0.095564  0  3.710972  0  0  -0.196377  0  3.975228  0  0  -0.191793  0  3.985202  0  0  -0.136776  -0.199362  0  3.969253  0
C  C68  1  0.13610682  0.42009812  0.21665124  1  0  -0.099029  0  3.709402  0  0  -0.199809  0  3.972281  0  0  -0.195393  0  3.981483  0  0  -0.133789  -0.2022  0  3.966406  0
C  C69  1  0.86389294  0.57990295  0.78334910  1  0  -0.098971  0  3.709419  0  0  -0.199754  0  3.972283  0  0  -0.195341  0  3.981486  0  0  -0.133774  -0.202145  0  3.966409  0
N  N70  1  0.65146483  0.01627511  0.58554923  1  0  -0.457956  0  3.349391  0  0  -0.393771  0  3.612024  0  0  -0.415574  0  3.620424  0  0  -0.439592  -0.379186  0  3.605791  0
N  N71  1  0.34853258  0.98372594  0.41445103  1  0  -0.457956  0  3.349437  0  0  -0.393719  0  3.611993  0  0  -0.415518  0  3.620402  0  0  -0.439576  -0.379135  0  3.605762  0
N  N72  1  0.36395380  0.10043499  0.66369627  1  0  -0.437918  0  3.284728  0  0  -0.36763  0  3.53574  0  0  -0.388316  0  3.541234  0  0  -0.432495  -0.354325  0  3.532484  0
N  N73  1  0.63604517  0.89956505  0.33630283  1  0  -0.43792  0  3.284742  0  0  -0.367752  0  3.535866  0  0  -0.388455  0  3.541379  0  0  -0.432516  -0.354445  0  3.532611  0
N  N74  1  0.84263704  0.68395528  0.07227319  1  0  -0.455054  0  3.314215  0  0  -0.390036  0  3.5746  0  0  -0.41108  0  3.579937  0  0  -0.441656  -0.376482  0  3.571264  0
N  N75  1  0.15736310  0.31604477  0.92772551  1  0  -0.45504  0  3.314134  0  0  -0.390038  0  3.574519  0  0  -0.411084  0  3.579856  0  0  -0.441682  -0.37648  0  3.571187  0
N  N76  1  0.06562735  0.53693686  0.13572020  1  0  -0.459124  0  3.327687  0  0  -0.395329  0  3.589923  0  0  -0.417165  0  3.597536  0  0  -0.440677  -0.381349  0  3.584682  0
N  N77  1  0.93437279  0.46306319  0.86427850  1  0  -0.459199  0  3.32774  0  0  -0.395388  0  3.589973  0  0  -0.41722  0  3.597581  0  0  -0.4407  -0.381406  0  3.584732  0
O  O78  1  0.42937798  0.50113268  0.33780652  1  0  -0.703968  0  2.010834  0  0  -0.657072  0  2.272014  0  0  -0.691581  0  2.25852  0  0  -0.395986  -0.631345  0  2.280174  0
O  O79  1  0.57062644  0.49886840  0.66219136  1  0  -0.703956  0  2.010891  0  0  -0.657074  0  2.272064  0  0  -0.691584  0  2.258573  0  0  -0.395974  -0.631348  0  2.280224  0
O  O80  1  0.27807261  0.64292198  0.49031442  1  0  -0.703398  0  2.02458  0  0  -0.656958  0  2.285107  0  0  -0.691253  0  2.271578  0  0  -0.392762  -0.631635  0  2.293455  0
O  O81  1  0.72193109  0.35707506  0.50968738  1  0  -0.703387  0  2.024572  0  0  -0.656964  0  2.285091  0  0  -0.691262  0  2.271564  0  0  -0.392771  -0.631644  0  2.293442  0
O  O82  1  0.90513182  0.09639047  0.36876493  1  0  -0.672382  0  1.988021  0  0  -0.623208  0  2.233732  0  0  -0.65312  0  2.225486  0  0  -0.355721  -0.601601  0  2.238159  0
O  O83  1  0.09486641  0.90360552  0.63123633  1  0  -0.672343  0  1.988051  0  0  -0.623155  0  2.233754  0  0  -0.653069  0  2.22551  0  0  -0.35569  -0.601548  0  2.238181  0
O  O84  1  0.98521205  0.18959501  0.16268211  1  0  -0.681085  0  2.023301  0  0  -0.632393  0  2.2677  0  0  -0.662945  0  2.262196  0  0  -0.351446  -0.609738  0  2.270765  0
O  O85  1  0.01479050  0.81040507  0.83732198  1  0  -0.681039  0  2.023294  0  0  -0.632316  0  2.267663  0  0  -0.662868  0  2.262159  0  0  -0.351447  -0.609661  0  2.27073  0
O  O86  1  0.31365768  0.63185070  0.91863194  1  0  -0.679419  0  1.970937  0  0  -0.630841  0  2.212203  0  0  -0.661554  0  2.204184  0  0  -0.365499  -0.608162  0  2.216083  0
O  O87  1  0.68634515  0.36814833  0.08136256  1  0  -0.679462  0  1.971037  0  0  -0.630829  0  2.212266  0  0  -0.661556  0  2.204282  0  0  -0.365488  -0.608156  0  2.216157  0
O  O88  1  0.32182375  0.83850737  0.81966104  1  0  -0.667601  0  1.977613  0  0  -0.620666  0  2.213988  0  0  -0.650572  0  2.207981  0  0  -0.343312  -0.598704  0  2.217493  0
O  O89  1  0.67817598  0.16149064  0.18033565  1  0  -0.667599  0  1.977627  0  0  -0.620631  0  2.213987  0  0  -0.650536  0  2.207981  0  0  -0.343271  -0.598674  0  2.217501  0
O  O90  1  0.51340631  0.20510135  0.47967537  1  0  -0.719389  0  1.997319  0  0  -0.6739  0  2.267755  0  0  -0.706378  0  2.257065  0  0  -0.406612  -0.650015  0  2.27413  0
O  O91  1  0.48659189  0.79490073  0.52032613  1  0  -0.719369  0  1.997266  0  0  -0.673886  0  2.267712  0  0  -0.706364  0  2.257019  0  0  -0.406609  -0.650001  0  2.274089  0
O  O92  1  0.81310860  0.50613746  0.23101363  1  0  -0.725851  0  1.998522  0  0  -0.669849  0  2.26902  0  0  -0.702914  0  2.257613  0  0  -0.408953  -0.645913  0  2.276082  0
O  O93  1  0.18689116  0.49386361  0.76898672  1  0  -0.725854  0  1.998515  0  0  -0.669847  0  2.269008  0  0  -0.702911  0  2.257602  0  0  -0.408966  -0.645919  0  2.276094  0
