# generated using pymatgen
data_CdFeH26C29N4O5
_symmetry_space_group_name_H-M   'P 1'
_cell_length_a   13.88585500
_cell_length_b   14.31832229
_cell_length_c   16.31751214
_cell_angle_alpha   98.86456268
_cell_angle_beta   89.99991218
_cell_angle_gamma   89.99964514
_symmetry_Int_Tables_number   1
_chemical_formula_structural   CdFeH26C29N4O5
_chemical_formula_sum   'Cd4 Fe4 H104 C116 N16 O20'
_cell_volume   3205.53102463
_cell_formula_units_Z   4
loop_
 _symmetry_equiv_pos_site_id
 _symmetry_equiv_pos_as_xyz
  1  'x, y, z'
loop_
 _atom_site_type_symbol
 _atom_site_label
 _atom_site_symmetry_multiplicity
 _atom_site_fract_x
 _atom_site_fract_y
 _atom_site_fract_z
 _atom_site_occupancy
 _atom_site_pbe_bader_charge
 _atom_site_pbe_bader_spin_density
 _atom_site_pbe_cm5_charge
 _atom_site_pbe_ddec_charge
 _atom_site_pbe_ddec_spin_density
 _atom_site_pbe_ddec_sum_bond_order
 _atom_site_pbe_magmom
Cd  Cd0  1  0.34293631  0.47138023  0.41321791  1  1.275326  0  0.762374  0.895712  0  2.175614  0
Cd  Cd1  1  0.84293532  0.02861892  0.08677846  1  1.275464  0  0.762377  0.895695  0  2.17556  0
Cd  Cd2  1  0.65706354  0.52861825  0.58678188  1  1.275383  0  0.762361  0.895722  0  2.175596  0
Cd  Cd3  1  0.15706381  0.97138238  0.91322169  1  1.275393  0  0.762389  0.895716  0  2.175583  0
Fe  Fe4  1  0.60920007  0.72548738  0.31101345  1  0.72989  0  0.544011  0.238858  0  3.985589  0
Fe  Fe5  1  0.10919985  0.77451426  0.18899040  1  0.73  0  0.544003  0.23889  0  3.985523  0
Fe  Fe6  1  0.39080193  0.27451321  0.68898538  1  0.729889  0  0.54399  0.238833  0  3.985567  0
Fe  Fe7  1  0.89080000  0.22548703  0.81100853  1  0.730032  0  0.544002  0.238873  0  3.985612  0
H  H8  1  0.44576261  0.73066838  0.21196050  1  0.116279  0  0.108851  0.131692  0  1.005999  0
H  H9  1  0.94576115  0.76933534  0.28804073  1  0.116223  0  0.108876  0.131732  0  1.005997  0
H  H10  1  0.55423580  0.26933151  0.78803886  1  0.116312  0  0.108848  0.131694  0  1.006031  0
H  H11  1  0.05424086  0.23066032  0.71195992  1  0.116211  0  0.108858  0.131715  0  1.006015  0
H  H12  1  0.56317438  0.88394224  0.23756454  1  0.071796  0  0.104552  0.121908  0  1.020083  0
H  H13  1  0.06317215  0.61606112  0.26244082  1  0.071604  0  0.104538  0.121876  0  1.020151  0
H  H14  1  0.43682547  0.11605765  0.76243482  1  0.071819  0  0.104562  0.121924  0  1.020059  0
H  H15  1  0.93683130  0.38393733  0.73755529  1  0.071632  0  0.104567  0.121938  0  1.020029  0
H  H16  1  0.61995135  0.90896476  0.39846667  1  0.089984  0  0.108023  0.125377  0  1.005146  0
H  H17  1  0.11995534  0.59103260  0.10154030  1  0.089918  0  0.108019  0.125379  0  1.005115  0
H  H18  1  0.38004561  0.09103443  0.60153321  1  0.08997  0  0.108033  0.12541  0  1.005036  0
H  H19  1  0.88004522  0.40897222  0.89845848  1  0.089769  0  0.108056  0.125411  0  1.005043  0
H  H20  1  0.53925594  0.77102550  0.47148967  1  0.098378  0  0.110536  0.133396  0  0.996242  0
H  H21  1  0.03925918  0.72897093  0.02851422  1  0.098456  0  0.110516  0.133374  0  0.996213  0
H  H22  1  0.46074031  0.22897438  0.52850907  1  0.098378  0  0.110541  0.133384  0  0.996226  0
H  H23  1  0.96074066  0.27103320  0.97148692  1  0.098507  0  0.110565  0.133441  0  0.996156  0
H  H24  1  0.39584525  0.47088771  0.72858624  1  0.070571  0  0.114541  0.140248  0  0.978176  0
H  H25  1  0.89584248  0.02910893  0.77140229  1  0.070465  0  0.114589  0.140273  0  0.978259  0
H  H26  1  0.60415963  0.52911146  0.27141057  1  0.070616  0  0.114558  0.140288  0  0.978182  0
H  H27  1  0.10415592  0.97089023  0.22859513  1  0.070593  0  0.114585  0.140253  0  0.978205  0
H  H28  1  0.35124613  0.36781299  0.84977576  1  0.086729  0  0.104341  0.121595  0  1.012938  0
H  H29  1  0.85124436  0.13219031  0.65021492  1  0.086438  0  0.104315  0.121596  0  1.012863  0
H  H30  1  0.64875444  0.63218900  0.15022142  1  0.086671  0  0.104344  0.121609  0  1.012873  0
H  H31  1  0.14875260  0.86780957  0.34978260  1  0.086572  0  0.104312  0.12157  0  1.012891  0
H  H32  1  0.23514721  0.22333838  0.78265620  1  0.126107  0  0.107301  0.134366  0  1.012339  0
H  H33  1  0.73514440  0.27666429  0.71734068  1  0.126444  0  0.107322  0.134423  0  1.012333  0
H  H34  1  0.76485408  0.77666291  0.21734211  1  0.126544  0  0.107303  0.13437  0  1.012278  0
H  H35  1  0.26485112  0.72333489  0.28265859  1  0.126496  0  0.107314  0.134416  0  1.012328  0
H  H36  1  0.20866569  0.23747765  0.62088698  1  0.089047  0  0.111154  0.132413  0  0.993067  0
H  H37  1  0.70866267  0.26251953  0.87910861  1  0.089152  0  0.111117  0.132379  0  0.992883  0
H  H38  1  0.79133776  0.76252081  0.37911036  1  0.089065  0  0.111148  0.132417  0  0.993046  0
H  H39  1  0.29133429  0.73747612  0.12089081  1  0.089114  0  0.11112  0.132344  0  0.992898  0
H  H40  1  0.38627328  0.24059220  0.35955217  1  0.141449  0  0.142715  0.11336  0  0.973709  0
H  H41  1  0.88627648  0.25940741  0.14044849  1  0.14144  0  0.142692  0.113348  0  0.973711  0
H  H42  1  0.61372153  0.75940631  0.64045068  1  0.141618  0  0.142697  0.113392  0  0.973697  0
H  H43  1  0.11372337  0.74059671  0.85955142  1  0.141576  0  0.142703  0.113367  0  0.973693  0
H  H44  1  0.23337384  0.49358917  0.22451665  1  0.134008  0  0.108958  0.134134  0  1.000067  0
H  H45  1  0.73337768  0.00640926  0.27547977  1  0.133955  0  0.108936  0.134084  0  1.000078  0
H  H46  1  0.76662241  0.50640788  0.77548173  1  0.133919  0  0.108938  0.134112  0  1.000015  0
H  H47  1  0.26662144  0.99359555  0.72451778  1  0.133816  0  0.108925  0.134092  0  0.999925  0
H  H48  1  0.12634288  0.44656494  0.10000780  1  0.054267  0  0.092565  0.089691  0  1.035578  0
H  H49  1  0.62634476  0.05343418  0.39999007  1  0.054288  0  0.092545  0.089683  0  1.035492  0
H  H50  1  0.87365552  0.55343142  0.89999171  1  0.054256  0  0.0926  0.089777  0  1.035533  0
H  H51  1  0.37365509  0.94656853  0.60000965  1  0.054244  0  0.092548  0.089665  0  1.035599  0
H  H52  1  0.10400923  0.27873239  0.04036809  1  0.097853  0  0.096373  0.097252  0  1.040841  0
H  H53  1  0.60400849  0.22126758  0.45963054  1  0.097864  0  0.096334  0.097156  0  1.040834  0
H  H54  1  0.89599421  0.72126466  0.95963090  1  0.09784  0  0.096334  0.097156  0  1.040825  0
H  H55  1  0.39599352  0.77873585  0.54037112  1  0.097881  0  0.096342  0.097155  0  1.040915  0
H  H56  1  0.18239799  0.15045887  0.10204248  1  0.095653  0  0.106032  0.124038  0  1.042982  0
H  H57  1  0.68239726  0.34953992  0.39795835  1  0.095689  0  0.106048  0.124085  0  1.04301  0
H  H58  1  0.81760618  0.84953677  0.89795572  1  0.095721  0  0.106018  0.124002  0  1.042979  0
H  H59  1  0.31760547  0.65046425  0.60204708  1  0.095763  0  0.106032  0.123967  0  1.042967  0
H  H60  1  0.24897887  0.06771409  0.19717939  1  0.108751  0  0.117492  0.105346  0  1.004055  0
H  H61  1  0.74897995  0.43228567  0.30281902  1  0.108802  0  0.117518  0.105406  0  1.004046  0
H  H62  1  0.75101954  0.93228508  0.80281865  1  0.108789  0  0.117517  0.105391  0  1.004059  0
H  H63  1  0.25102062  0.56771774  0.69717957  1  0.108805  0  0.117507  0.105369  0  1.004058  0
H  H64  1  0.28322654  0.07663755  0.30240844  1  0.049255  0  0.116433  0.099397  0  0.949509  0
H  H65  1  0.78322932  0.42336058  0.19758972  1  0.049219  0  0.116416  0.099397  0  0.949524  0
H  H66  1  0.71677114  0.92335951  0.69758994  1  0.049245  0  0.116423  0.099372  0  0.949539  0
H  H67  1  0.21677269  0.57664212  0.80240817  1  0.049318  0  0.116445  0.099379  0  0.949589  0
H  H68  1  0.39858863  0.97694691  0.22165842  1  0.075428  0  0.105016  0.117704  0  0.971711  0
H  H69  1  0.89859020  0.52305143  0.27833973  1  0.075509  0  0.104999  0.117655  0  0.971758  0
H  H70  1  0.60140834  0.02305227  0.77834085  1  0.07545  0  0.105015  0.117669  0  0.971688  0
H  H71  1  0.10141252  0.47694988  0.72166104  1  0.075542  0  0.104984  0.117635  0  0.971749  0
H  H72  1  0.45875410  0.08369002  0.25962191  1  0.026941  0  0.09704  0.094049  0  0.988934  0
H  H73  1  0.95875540  0.41630630  0.24037823  1  0.026893  0  0.097076  0.094108  0  0.988839  0
H  H74  1  0.54124358  0.91630706  0.74037954  1  0.026903  0  0.097056  0.09406  0  0.988894  0
H  H75  1  0.04124589  0.58369430  0.75962244  1  0.026903  0  0.097051  0.094049  0  0.988893  0
H  H76  1  0.37357782  0.03388847  0.08391823  1  0.096375  0  0.115515  0.102199  0  0.977556  0
H  H77  1  0.87357703  0.46611122  0.41608246  1  0.09638  0  0.115513  0.102181  0  0.977584  0
H  H78  1  0.62642347  0.96611002  0.91608279  1  0.096373  0  0.115522  0.1022  0  0.977521  0
H  H79  1  0.12642281  0.53388868  0.58391874  1  0.096387  0  0.115518  0.102183  0  0.977558  0
H  H80  1  0.43814027  0.13834606  0.12060558  1  0.088375  0  0.114889  0.0954  0  0.976862  0
H  H81  1  0.93814166  0.36165321  0.37939436  1  0.08835  0  0.114914  0.095482  0  0.97684  0
H  H82  1  0.56185885  0.86165313  0.87939492  1  0.088355  0  0.114909  0.095472  0  0.976833  0
H  H83  1  0.06185962  0.63834737  0.62060448  1  0.088336  0  0.114905  0.095458  0  0.976819  0
H  H84  1  0.62125973  0.13071678  0.12627522  1  0.177787  0  0.144828  0.114689  0  0.966976  0
H  H85  1  0.12126000  0.36928239  0.37372512  1  0.177886  0  0.144834  0.11467  0  0.966957  0
H  H86  1  0.37874083  0.86928241  0.87372527  1  0.177894  0  0.144839  0.114694  0  0.966906  0
H  H87  1  0.87874056  0.63071821  0.62627617  1  0.177742  0  0.144832  0.114662  0  0.967026  0
H  H88  1  0.38897002  0.85571398  0.06271168  1  0.124326  0  0.104135  0.119908  0  1.040584  0
H  H89  1  0.88896909  0.64429012  0.43729274  1  0.124289  0  0.10413  0.119901  0  1.040555  0
H  H90  1  0.61102983  0.14428735  0.93729216  1  0.124333  0  0.104141  0.119936  0  1.040551  0
H  H91  1  0.11103220  0.35571472  0.56270787  1  0.124281  0  0.104177  0.119965  0  1.040512  0
H  H92  1  0.45699087  0.69593585  0.01688641  1  0.057837  0  0.102088  0.100115  0  0.992541  0
H  H93  1  0.95699099  0.80406498  0.48311689  1  0.057794  0  0.102128  0.100209  0  0.992533  0
H  H94  1  0.54300610  0.30406477  0.98311672  1  0.057808  0  0.102114  0.100203  0  0.992537  0
H  H95  1  0.04301317  0.19593773  0.51688345  1  0.058145  0  0.102095  0.100135  0  0.992502  0
H  H96  1  0.63330492  0.66990925  0.00464132  1  0.044827  0  0.101884  0.100368  0  0.997687  0
H  H97  1  0.13330449  0.83008869  0.49535958  1  0.044814  0  0.101894  0.100397  0  0.997711  0
H  H98  1  0.36669277  0.33008994  0.99535918  1  0.044875  0  0.101887  0.100343  0  0.997692  0
H  H99  1  0.86669967  0.16991191  0.50464049  1  0.044734  0  0.101926  0.100425  0  0.997707  0
H  H100  1  0.74864413  0.80413833  0.04025299  1  0.128404  0  0.107882  0.12273  0  1.022038  0
H  H101  1  0.24864319  0.69585815  0.45974573  1  0.128432  0  0.107865  0.12269  0  1.021973  0
H  H102  1  0.25135427  0.19586015  0.95974803  1  0.128352  0  0.107897  0.122776  0  1.022081  0
H  H103  1  0.75135882  0.30413964  0.54025520  1  0.128469  0  0.107884  0.122708  0  1.021996  0
H  H104  1  0.51404085  0.38764314  0.47609574  1  0.648823  0  0.289148  0.38704  0  0.951112  0
H  H105  1  0.01403981  0.11235461  0.02390578  1  0.648842  0  0.289146  0.387054  0  0.951112  0
H  H106  1  0.48596116  0.61235251  0.52390368  1  0.648588  0  0.289128  0.387054  0  0.951087  0
H  H107  1  0.98595860  0.88764388  0.97609585  1  0.648823  0  0.289128  0.38703  0  0.95114  0
H  H108  1  0.54874437  0.45022706  0.41341235  1  0.635977  0  0.290304  0.387385  0  0.946999  0
H  H109  1  0.04874361  0.04977259  0.08658998  1  0.635966  0  0.290327  0.387397  0  0.946982  0
H  H110  1  0.45125620  0.54976859  0.58658707  1  0.635951  0  0.290287  0.387339  0  0.947062  0
H  H111  1  0.95125552  0.95022731  0.91341122  1  0.635964  0  0.290317  0.387388  0  0.947001  0
C  C112  1  0.41700472  0.63789766  0.36037427  1  1.559463  0  0.193085  0.579234  0  4.238467  0
C  C113  1  0.91700727  0.86210126  0.13962209  1  1.559419  0  0.193111  0.579309  0  4.238322  0
C  C114  1  0.58299368  0.36210292  0.63962335  1  1.559314  0  0.193087  0.579263  0  4.238274  0
C  C115  1  0.08299474  0.13789650  0.86037638  1  1.559432  0  0.193052  0.579177  0  4.238605  0
C  C116  1  0.46934477  0.72455371  0.34729986  1  -0.125861  0  -0.082666  -0.083708  0  3.992789  0
C  C117  1  0.96934425  0.77544562  0.15270077  1  -0.125734  0  -0.082658  -0.08374  0  3.992828  0
C  C118  1  0.53065579  0.27544334  0.65269668  1  -0.125754  0  -0.08273  -0.083769  0  3.99279  0
C  C119  1  0.03065272  0.22455357  0.84729972  1  -0.125663  0  -0.082705  -0.083768  0  3.992938  0
C  C120  1  0.47826747  0.76137319  0.27031377  1  -0.129785  0  -0.149942  -0.153431  0  3.959927  0
C  C121  1  0.97826632  0.73862751  0.22968887  1  -0.129723  0  -0.149988  -0.15353  0  3.959939  0
C  C122  1  0.52173381  0.23862599  0.72968489  1  -0.129825  0  -0.14992  -0.153464  0  3.959929  0
C  C123  1  0.02173496  0.26137026  0.77031083  1  -0.129765  0  -0.150036  -0.153601  0  3.960049  0
C  C124  1  0.53963109  0.84256348  0.28428954  1  -0.102573  0  -0.155093  -0.138141  0  3.990331  0
C  C125  1  0.03963228  0.65743792  0.21571744  1  -0.102818  0  -0.155099  -0.13805  0  3.99016  0
C  C126  1  0.46036876  0.15743640  0.71570921  1  -0.102559  0  -0.155094  -0.138099  0  3.990284  0
C  C127  1  0.96036829  0.34256055  0.78428235  1  -0.102835  0  -0.155118  -0.138068  0  3.990163  0
C  C128  1  0.56959023  0.85598212  0.36951629  1  -0.189782  0  -0.153641  -0.135948  0  3.999756  0
C  C129  1  0.06959671  0.64401837  0.13048870  1  -0.189723  0  -0.153607  -0.135967  0  3.999495  0
C  C130  1  0.43040746  0.14401989  0.63048458  1  -0.1898  0  -0.153646  -0.136028  0  3.999712  0
C  C131  1  0.93040530  0.35597867  0.86950784  1  -0.189175  0  -0.153595  -0.135947  0  3.999693  0
C  C132  1  0.52680660  0.78337549  0.40837515  1  -0.163173  0  -0.153143  -0.157126  0  3.965235  0
C  C133  1  0.02680908  0.71662315  0.09162966  1  -0.163111  0  -0.153125  -0.157121  0  3.965119  0
C  C134  1  0.47319325  0.21662370  0.59162535  1  -0.163142  0  -0.153116  -0.157039  0  3.965331  0
C  C135  1  0.97318716  0.28337884  0.90836814  1  -0.163568  0  -0.153136  -0.157146  0  3.965278  0
C  C136  1  0.34751713  0.41058551  0.72301607  1  -0.124638  0  -0.153372  -0.170779  0  3.989992  0
C  C137  1  0.84752045  0.08941500  0.77697610  1  -0.124228  0  -0.153446  -0.170797  0  3.990201  0
C  C138  1  0.65248343  0.58941578  0.27698164  1  -0.124375  0  -0.153339  -0.170762  0  3.990139  0
C  C139  1  0.15248156  0.91058276  0.22302115  1  -0.124429  0  -0.153446  -0.170798  0  3.99031  0
C  C140  1  0.32405236  0.35609853  0.78668264  1  -0.124368  0  -0.152289  -0.131473  0  3.989489  0
C  C141  1  0.82405329  0.14390284  0.71331089  1  -0.124177  0  -0.152253  -0.131526  0  3.989361  0
C  C142  1  0.67594892  0.64390135  0.21331488  1  -0.12434  0  -0.152299  -0.131542  0  3.989413  0
C  C143  1  0.17594656  0.85609845  0.28668742  1  -0.124374  0  -0.152274  -0.131558  0  3.989439  0
C  C144  1  0.26309060  0.27939730  0.75146397  1  -0.179082  0  -0.148516  -0.122936  0  3.95959  0
C  C145  1  0.76308881  0.22060728  0.74853006  1  -0.179778  0  -0.148577  -0.123005  0  3.959334  0
C  C146  1  0.73691140  0.72060399  0.24853435  1  -0.179608  0  -0.148514  -0.122847  0  3.959414  0
C  C147  1  0.23691103  0.77939401  0.25146826  1  -0.179573  0  -0.148523  -0.122894  0  3.959417  0
C  C148  1  0.24886035  0.28627779  0.66572622  1  -0.12695  0  -0.15367  -0.168055  0  3.979257  0
C  C149  1  0.74885989  0.21371982  0.83426692  1  -0.126661  0  -0.153645  -0.168002  0  3.979072  0
C  C150  1  0.75114309  0.71372280  0.33427200  1  -0.126927  0  -0.153696  -0.168118  0  3.979313  0
C  C151  1  0.25113996  0.78627795  0.16573278  1  -0.127229  0  -0.153673  -0.168021  0  3.979112  0
C  C152  1  0.30045290  0.36819789  0.64756406  1  -0.115691  0  -0.090075  -0.098723  0  4.015948  0
C  C153  1  0.80045436  0.13180291  0.85242821  1  -0.116119  0  -0.090023  -0.098665  0  4.016112  0
C  C154  1  0.69954839  0.63180198  0.35243346  1  -0.115999  0  -0.090074  -0.098745  0  4.016251  0
C  C155  1  0.19954620  0.86819910  0.14757204  1  -0.115585  0  -0.090003  -0.098624  0  4.016089  0
C  C156  1  0.30869003  0.40007976  0.56552417  1  1.543249  0  0.188917  0.582122  0  4.239647  0
C  C157  1  0.80868795  0.09992028  0.93446676  1  1.54301  0  0.188807  0.581881  0  4.239832  0
C  C158  1  0.69131197  0.59992081  0.43447160  1  1.543099  0  0.18888  0.582135  0  4.239463  0
C  C159  1  0.19131262  0.90007889  0.06553067  1  1.543151  0  0.188795  0.581928  0  4.239898  0
C  C160  1  0.34302277  0.26196707  0.31023677  1  1.011797  0  0.161749  0.13764  0  3.918517  0
C  C161  1  0.84302530  0.23803070  0.18976494  1  1.011753  0  0.161805  0.137623  0  3.918761  0
C  C162  1  0.65697420  0.73803143  0.68976671  1  1.012213  0  0.161755  0.137593  0  3.918646  0
C  C163  1  0.15697383  0.76197202  0.81023540  1  1.012289  0  0.161789  0.137614  0  3.918608  0
C  C164  1  0.26442028  0.34722985  0.23363654  1  0.368827  0  0.083008  0.138231  0  4.07322  0
C  C165  1  0.76442393  0.15276771  0.26636340  1  0.368949  0  0.082991  0.138225  0  4.073036  0
C  C166  1  0.73557669  0.65276722  0.76636368  1  0.368981  0  0.083024  0.1383  0  4.072971  0
C  C167  1  0.23557664  0.84723572  0.73363703  1  0.368888  0  0.083017  0.138244  0  4.07318  0
C  C168  1  0.22079727  0.41985713  0.19840175  1  -0.054292  0  -0.097508  -0.166306  0  3.988987  0
C  C169  1  0.72080060  0.08014212  0.30159847  1  -0.054405  0  -0.097501  -0.166204  0  3.98908  0
C  C170  1  0.77919970  0.58013923  0.80159899  1  -0.054399  0  -0.09753  -0.166263  0  3.988719  0
C  C171  1  0.27919925  0.91986272  0.69840153  1  -0.054387  0  -0.097511  -0.166229  0  3.988831  0
C  C172  1  0.16269873  0.39272389  0.12912807  1  -0.069824  0  -0.108666  -0.112131  0  4.069295  0
C  C173  1  0.66270464  0.10727431  0.37087148  1  -0.069758  0  -0.108701  -0.112272  0  4.069347  0
C  C174  1  0.83729824  0.60727248  0.87087268  1  -0.069841  0  -0.10873  -0.11232  0  4.069256  0
C  C175  1  0.33729809  0.89272912  0.62912895  1  -0.069828  0  -0.108699  -0.112179  0  4.069333  0
C  C176  1  0.14905928  0.29701610  0.09512811  1  -0.04267  0  -0.103046  -0.090199  0  4.032825  0
C  C177  1  0.64906452  0.20298290  0.40487278  1  -0.042667  0  -0.102959  -0.089939  0  4.032695  0
C  C178  1  0.85093912  0.70297884  0.90487122  1  -0.042519  0  -0.102985  -0.090041  0  4.032735  0
C  C179  1  0.35094037  0.79702124  0.59512958  1  -0.042497  0  -0.103003  -0.090111  0  4.032813  0
C  C180  1  0.19286882  0.22419776  0.12894823  1  0.010476  0  -0.097668  -0.16571  0  4.009059  0
C  C181  1  0.69287293  0.27580098  0.37105502  1  0.009884  0  -0.097756  -0.165874  0  4.009115  0
C  C182  1  0.80713031  0.77579931  0.87105260  1  0.009829  0  -0.097616  -0.165597  0  4.009032  0
C  C183  1  0.30713052  0.72420107  0.62895013  1  0.009832  0  -0.097644  -0.165535  0  4.009  0
C  C184  1  0.25013053  0.25123206  0.19875578  1  0.293672  0  0.086157  0.078739  0  4.01798  0
C  C185  1  0.75013639  0.24876771  0.30124447  1  0.294282  0  0.086259  0.07876  0  4.01786  0
C  C186  1  0.74986715  0.74876571  0.80124392  1  0.294212  0  0.086125  0.078634  0  4.01807  0
C  C187  1  0.24986706  0.75123714  0.69875676  1  0.294975  0  0.086171  0.078598  0  4.018207  0
C  C188  1  0.30435163  0.09591823  0.24232144  1  0.339024  0  -0.048007  -0.053254  0  3.879575  0
C  C189  1  0.80435370  0.40408048  0.25767799  1  0.33861  0  -0.048082  -0.053465  0  3.879802  0
C  C190  1  0.69564677  0.90408097  0.75767967  1  0.338589  0  -0.047995  -0.053245  0  3.879611  0
C  C191  1  0.19564759  0.59592223  0.74232112  1  0.338885  0  -0.048011  -0.053284  0  3.879772  0
C  C192  1  0.40219093  0.05259719  0.21648706  1  -0.02238  0  -0.157401  -0.1933  0  3.925388  0
C  C193  1  0.90219267  0.44740160  0.28351225  1  -0.022159  0  -0.157378  -0.193232  0  3.925337  0
C  C194  1  0.59780676  0.94740129  0.78351273  1  -0.022071  0  -0.157389  -0.193252  0  3.925317  0
C  C195  1  0.09780862  0.55259970  0.71648791  1  -0.022484  0  -0.157357  -0.193205  0  3.925386  0
C  C196  1  0.42978164  0.06373817  0.12773430  1  0.281064  0  -0.049823  -0.055546  0  3.880525  0
C  C197  1  0.92978257  0.43626045  0.37226556  1  0.281085  0  -0.049874  -0.055641  0  3.880634  0
C  C198  1  0.57021749  0.93626032  0.87226610  1  0.281064  0  -0.049866  -0.055606  0  3.880627  0
C  C199  1  0.07021800  0.56374015  0.62773512  1  0.281075  0  -0.049886  -0.055625  0  3.880629  0
C  C200  1  0.60989951  0.05519339  0.10935362  1  0.944035  0  0.162878  0.130205  0  3.940834  0
C  C201  1  0.10989927  0.44480657  0.39064684  1  0.943922  0  0.162878  0.130288  0  3.940976  0
C  C202  1  0.39010034  0.94480792  0.89064715  1  0.943966  0  0.162866  0.130228  0  3.940829  0
C  C203  1  0.89009986  0.55519475  0.60935455  1  0.944013  0  0.162913  0.130275  0  3.940976  0
C  C204  1  0.53234376  0.91900653  0.07876541  1  0.311414  0  0.088046  0.075722  0  4.020325  0
C  C205  1  0.03234218  0.58099135  0.42123560  1  0.311474  0  0.088083  0.07577  0  4.02023  0
C  C206  1  0.46765465  0.08099408  0.92123649  1  0.311077  0  0.088113  0.075761  0  4.020395  0
C  C207  1  0.96765766  0.41900855  0.57876437  1  0.31138  0  0.088099  0.075795  0  4.020308  0
C  C208  1  0.46663614  0.84504983  0.05943334  1  -0.089011  0  -0.098697  -0.17138  0  4.007616  0
C  C209  1  0.96663225  0.65495165  0.44056942  1  -0.089113  0  -0.09873  -0.171341  0  4.007322  0
C  C210  1  0.53336371  0.15495008  0.94056970  1  -0.088702  0  -0.098842  -0.1715  0  4.007449  0
C  C211  1  0.03336615  0.34505036  0.55943022  1  -0.08915  0  -0.0988  -0.17148  0  4.007632  0
C  C212  1  0.50565673  0.75571260  0.03308165  1  -0.039271  0  -0.095517  -0.090527  0  4.036838  0
C  C213  1  0.00565547  0.74428687  0.46692145  1  -0.039005  0  -0.095552  -0.090699  0  4.036786  0
C  C214  1  0.49434239  0.24428873  0.96692157  1  -0.038956  0  -0.095581  -0.090762  0  4.036716  0
C  C215  1  0.99434726  0.25571656  0.53308021  1  -0.039382  0  -0.095528  -0.090565  0  4.036953  0
C  C216  1  0.60602439  0.74078356  0.02655191  1  -0.051707  0  -0.096569  -0.095999  0  4.038616  0
C  C217  1  0.10602374  0.75921527  0.47345159  1  -0.051897  0  -0.096585  -0.096053  0  4.038538  0
C  C218  1  0.39397329  0.25921706  0.97345184  1  -0.051335  0  -0.096461  -0.095744  0  4.038496  0
C  C219  1  0.89397899  0.24078463  0.52654961  1  -0.051761  0  -0.096607  -0.096068  0  4.03861  0
C  C220  1  0.67120197  0.81473621  0.04599868  1  0.04771  0  -0.0865  -0.14447  0  3.959962  0
C  C221  1  0.17120039  0.68526079  0.45400388  1  0.047815  0  -0.086412  -0.144254  0  3.959833  0
C  C222  1  0.32879571  0.18526300  0.95400366  1  0.047089  0  -0.086474  -0.144492  0  3.959916  0
C  C223  1  0.82880089  0.31473769  0.54599713  1  0.047746  0  -0.08644  -0.144319  0  3.959772  0
C  C224  1  0.63324649  0.90497833  0.07166766  1  0.362583  0  0.086267  0.136216  0  4.072853  0
C  C225  1  0.13324553  0.59502174  0.42833412  1  0.362439  0  0.086206  0.136064  0  4.072901  0
C  C226  1  0.36675479  0.09501945  0.92833265  1  0.362597  0  0.086257  0.136151  0  4.0729  0
C  C227  1  0.86675647  0.40498099  0.57166744  1  0.362174  0  0.086258  0.136108  0  4.072793  0
N  N228  1  0.32276014  0.35078502  0.30328382  1  -1.190911  0  -0.351994  -0.341698  0  3.467021  0
N  N229  1  0.82276467  0.14921498  0.19671576  1  -1.190989  0  -0.351984  -0.341668  0  3.467135  0
N  N230  1  0.67723466  0.64921276  0.69671772  1  -1.19101  0  -0.351966  -0.341742  0  3.46696  0
N  N231  1  0.17723446  0.85078986  0.80328486  1  -1.191115  0  -0.351983  -0.341756  0  3.467027  0
N  N232  1  0.30178538  0.19888996  0.24904668  1  -1.261953  0  -0.244949  -0.030398  0  3.716707  0
N  N233  1  0.80178811  0.30110949  0.25095469  1  -1.261773  0  -0.244941  -0.030274  0  3.716916  0
N  N234  1  0.69821231  0.80110712  0.75095416  1  -1.262362  0  -0.244968  -0.030417  0  3.716987  0
N  N235  1  0.19821174  0.69889606  0.74904601  1  -1.263027  0  -0.244979  -0.030242  0  3.716865  0
N  N236  1  0.52021845  0.01571759  0.10340566  1  -1.23176  0  -0.244295  -0.031118  0  3.738964  0
N  N237  1  0.02021794  0.48428294  0.39659499  1  -1.231725  0  -0.244292  -0.031113  0  3.739133  0
N  N238  1  0.47978284  0.98428231  0.89659554  1  -1.231762  0  -0.244313  -0.031153  0  3.739044  0
N  N239  1  0.97978190  0.51571907  0.60340465  1  -1.231673  0  -0.244309  -0.031118  0  3.739142  0
N  N240  1  0.67913750  0.99182402  0.09082748  1  -1.183151  0  -0.349438  -0.353106  0  3.473843  0
N  N241  1  0.17913569  0.50817433  0.40917341  1  -1.18299  0  -0.349426  -0.353149  0  3.474082  0
N  N242  1  0.32086234  0.00817517  0.90917301  1  -1.183198  0  -0.349444  -0.35309  0  3.473858  0
N  N243  1  0.82086271  0.49182557  0.59082841  1  -1.182677  0  -0.349474  -0.353149  0  3.474003  0
O  O244  1  0.37280600  0.58846220  0.30173842  1  -1.173191  0  -0.334793  -0.558058  0  2.091493  0
O  O245  1  0.87280956  0.91154550  0.19826158  1  -1.173113  0  -0.334798  -0.558109  0  2.091308  0
O  O246  1  0.62718304  0.41154335  0.69826351  1  -1.173073  0  -0.334774  -0.558069  0  2.091346  0
O  O247  1  0.12719100  0.08845725  0.80174244  1  -1.173135  0  -0.334744  -0.557983  0  2.091597  0
O  O248  1  0.41833485  0.61701085  0.43514700  1  -1.175003  0  -0.338713  -0.584616  0  2.274281  0
O  O249  1  0.91833308  0.88298454  0.06485074  1  -1.174999  0  -0.338737  -0.584606  0  2.274393  0
O  O250  1  0.58167076  0.38298550  0.56485129  1  -1.175036  0  -0.338724  -0.584577  0  2.274339  0
O  O251  1  0.08166676  0.11701537  0.93515107  1  -1.174972  0  -0.338712  -0.584576  0  2.274335  0
O  O252  1  0.34239313  0.48405196  0.56446011  1  -1.198457  0  -0.34039  -0.5987  0  2.236866  0
O  O253  1  0.84239086  0.01594292  0.93553133  1  -1.198324  0  -0.340405  -0.598678  0  2.236773  0
O  O254  1  0.65760744  0.51594580  0.43553775  1  -1.198294  0  -0.34038  -0.598759  0  2.236734  0
O  O255  1  0.15760971  0.98405555  0.06446723  1  -1.198303  0  -0.340409  -0.598698  0  2.236802  0
O  O256  1  0.28159146  0.34637464  0.50065540  1  -1.18939  0  -0.346691  -0.580643  0  2.11785  0
O  O257  1  0.78158820  0.15362419  0.99933970  1  -1.189172  0  -0.346618  -0.580511  0  2.11785  0
O  O258  1  0.71840982  0.65362737  0.49934424  1  -1.189324  0  -0.346692  -0.580651  0  2.117619  0
O  O259  1  0.21840877  0.84637429  0.00066009  1  -1.189351  0  -0.346616  -0.580545  0  2.117956  0
O  O260  1  0.49753196  0.40394737  0.42070301  1  -1.258975  0  -0.595984  -0.760982  0  2.063184  0
O  O261  1  0.99752984  0.09605081  0.07929610  1  -1.258973  0  -0.595999  -0.76099  0  2.063206  0
O  O262  1  0.50246860  0.59604898  0.57929651  1  -1.258719  0  -0.595953  -0.760948  0  2.063264  0
O  O263  1  0.00246929  0.90394909  0.92070449  1  -1.258962  0  -0.595972  -0.760962  0  2.06318  0
