# generated using pymatgen
data_AgH8C11(NO)2
_symmetry_space_group_name_H-M   'P 1'
_cell_length_a   7.10615530
_cell_length_b   14.70753873
_cell_length_c   21.94509959
_cell_angle_alpha   90.00002624
_cell_angle_beta   89.99816447
_cell_angle_gamma   90.00230870
_symmetry_Int_Tables_number   1
_chemical_formula_structural   AgH8C11(NO)2
_chemical_formula_sum   'Ag8 H64 C88 N16 O16'
_cell_volume   2293.57132534
_cell_formula_units_Z   8
loop_
 _symmetry_equiv_pos_site_id
 _symmetry_equiv_pos_as_xyz
  1  'x, y, z'
loop_
 _atom_site_type_symbol
 _atom_site_label
 _atom_site_symmetry_multiplicity
 _atom_site_fract_x
 _atom_site_fract_y
 _atom_site_fract_z
 _atom_site_occupancy
 _atom_site_pbe_bader_charge
 _atom_site_pbe_bader_spin_density
 _atom_site_pbe_cm5_charge
 _atom_site_pbe_ddec_charge
 _atom_site_pbe_ddec_spin_density
 _atom_site_pbe_ddec_sum_bond_order
 _atom_site_pbe_magmom
Ag  Ag0  1  0.65915550  0.00024172  0.53961784  1  0.617292  0  0.454016  0.36456  0  2.094703  0
Ag  Ag1  1  0.34082222  0.49975118  0.53964186  1  0.618577  0  0.453816  0.364665  0  2.093489  0
Ag  Ag2  1  0.84079391  0.00021438  0.96034520  1  0.61841  0  0.453827  0.364753  0  2.09309  0
Ag  Ag3  1  0.15923890  0.49976842  0.96038026  1  0.618414  0  0.454093  0.364651  0  2.094537  0
Ag  Ag4  1  0.34084388  0.99975080  0.46035884  1  0.618348  0  0.453989  0.364584  0  2.09453  0
Ag  Ag5  1  0.65921939  0.50024066  0.46037902  1  0.617101  0  0.45386  0.364588  0  2.093721  0
Ag  Ag6  1  0.15918719  0.99979650  0.03962829  1  0.617128  0  0.453878  0.364708  0  2.09344  0
Ag  Ag7  1  0.84086603  0.50023634  0.03963469  1  0.617149  0  0.454005  0.36465  0  2.094493  0
H  H8  1  0.60967079  0.13993096  0.64509033  1  0.129548  0  0.115621  0.099091  0  0.999015  0
H  H9  1  0.39029579  0.36005243  0.64515360  1  0.130825  0  0.115608  0.099135  0  0.998641  0
H  H10  1  0.89038094  0.13993831  0.85485593  1  0.130917  0  0.115573  0.098962  0  0.998854  0
H  H11  1  0.10953636  0.36007508  0.85491812  1  0.129861  0  0.115632  0.098967  0  0.998934  0
H  H12  1  0.39040599  0.86006632  0.35488635  1  0.129421  0  0.115659  0.09897  0  0.998811  0
H  H13  1  0.60960791  0.63994689  0.35487457  1  0.130103  0  0.115567  0.099034  0  0.998953  0
H  H14  1  0.10967333  0.86007121  0.14512668  1  0.12956  0  0.115657  0.09919  0  0.998771  0
H  H15  1  0.89048555  0.63991336  0.14511415  1  0.129717  0  0.11555  0.098724  0  0.99899  0
H  H16  1  0.51679702  0.14778778  0.75426807  1  0.038846  0  0.100932  0.100772  0  1.020171  0
H  H17  1  0.48302131  0.35224707  0.75434444  1  0.039132  0  0.100993  0.10056  0  1.02022  0
H  H18  1  0.98314532  0.14777208  0.74566701  1  0.038902  0  0.10103  0.100832  0  1.020193  0
H  H19  1  0.01664161  0.35223267  0.74574577  1  0.03921  0  0.101002  0.100796  0  1.020147  0
H  H20  1  0.48315874  0.85223806  0.24569403  1  0.038792  0  0.100977  0.100921  0  1.020002  0
H  H21  1  0.51690350  0.64774612  0.24568237  1  0.039726  0  0.101003  0.100743  0  1.020169  0
H  H22  1  0.01692865  0.85224288  0.25431788  1  0.039481  0  0.101016  0.100728  0  1.020052  0
H  H23  1  0.98323254  0.64773537  0.25430109  1  0.039309  0  0.101002  0.100945  0  1.019939  0
H  H24  1  0.47693403  0.85422092  0.75199128  1  0.066571  0  0.101821  0.102212  0  1.016764  0
H  H25  1  0.52279778  0.64581007  0.75203308  1  0.064746  0  0.101745  0.102027  0  1.017101  0
H  H26  1  0.02275551  0.85419975  0.74794187  1  0.065723  0  0.101778  0.102115  0  1.016916  0
H  H27  1  0.97711475  0.64581379  0.74801006  1  0.065247  0  0.101835  0.102286  0  1.016552  0
H  H28  1  0.52292041  0.14581511  0.24798860  1  0.065931  0  0.101753  0.10201  0  1.016841  0
H  H29  1  0.47726916  0.35417021  0.24798598  1  0.064867  0  0.101756  0.102156  0  1.016837  0
H  H30  1  0.97714396  0.14581112  0.25202296  1  0.065771  0  0.101733  0.102013  0  1.017019  0
H  H31  1  0.02289309  0.35416241  0.25200490  1  0.06544  0  0.101701  0.102053  0  1.016741  0
H  H32  1  0.57859635  0.85996471  0.64337630  1  0.133473  0  0.115613  0.100632  0  1.007137  0
H  H33  1  0.42116704  0.64004061  0.64341596  1  0.134058  0  0.11553  0.100616  0  1.007107  0
H  H34  1  0.92112369  0.85995243  0.85656182  1  0.13426  0  0.115583  0.100721  0  1.006944  0
H  H35  1  0.07879802  0.64005618  0.85662221  1  0.133402  0  0.115507  0.100458  0  1.006999  0
H  H36  1  0.42134816  0.14004140  0.35661406  1  0.133283  0  0.115576  0.100696  0  1.007059  0
H  H37  1  0.57889286  0.35996415  0.35660219  1  0.133618  0  0.115525  0.100487  0  1.007345  0
H  H38  1  0.07876171  0.14004825  0.14340348  1  0.133708  0  0.11554  0.100707  0  1.007005  0
H  H39  1  0.92133084  0.35993770  0.14338044  1  0.133309  0  0.115477  0.10046  0  1.006964  0
H  H40  1  0.39069267  0.14816779  0.83668510  1  0.080397  0  0.103007  0.104499  0  1.011253  0
H  H41  1  0.60908564  0.35186772  0.83675190  1  0.080781  0  0.103113  0.104808  0  1.011381  0
H  H42  1  0.10926029  0.14814782  0.66325703  1  0.081339  0  0.103131  0.104595  0  1.011375  0
H  H43  1  0.89069050  0.35185083  0.66331666  1  0.080708  0  0.103033  0.104513  0  1.011239  0
H  H44  1  0.60929406  0.85186417  0.16328930  1  0.081157  0  0.103143  0.104625  0  1.011197  0
H  H45  1  0.39097848  0.64812071  0.16326579  1  0.081428  0  0.103102  0.104859  0  1.011227  0
H  H46  1  0.89084183  0.85185898  0.33672603  1  0.080744  0  0.103159  0.104766  0  1.011296  0
H  H47  1  0.10926809  0.64810429  0.33671060  1  0.081374  0  0.103171  0.104614  0  1.011304  0
H  H48  1  0.30361350  0.14320067  0.94525786  1  0.092707  0  0.119503  0.099401  0  0.996299  0
H  H49  1  0.69635556  0.35686187  0.94529915  1  0.09234  0  0.119532  0.099535  0  0.996297  0
H  H50  1  0.19646868  0.14316698  0.55470054  1  0.09113  0  0.119506  0.099336  0  0.996151  0
H  H51  1  0.80360797  0.35682301  0.55475087  1  0.092996  0  0.119647  0.099533  0  0.996223  0
H  H52  1  0.69642951  0.85685100  0.05472475  1  0.092911  0  0.119542  0.099374  0  0.996384  0
H  H53  1  0.30377611  0.64313405  0.05471490  1  0.093123  0  0.119575  0.099638  0  0.99632  0
H  H54  1  0.80364891  0.85683710  0.44528388  1  0.0929  0  0.119489  0.099398  0  0.996378  0
H  H55  1  0.19637875  0.64313279  0.44527229  1  0.092773  0  0.119538  0.099351  0  0.996161  0
H  H56  1  0.36737894  0.86350677  0.95263446  1  0.102151  0  0.121651  0.103609  0  0.973643  0
H  H57  1  0.63261685  0.63655883  0.95267446  1  0.101299  0  0.121669  0.103462  0  0.973918  0
H  H58  1  0.13251510  0.86348261  0.54730030  1  0.101932  0  0.121618  0.103422  0  0.973887  0
H  H59  1  0.86741626  0.63651469  0.54737207  1  0.101814  0  0.121685  0.103689  0  0.973587  0
H  H60  1  0.63256134  0.13652858  0.04733949  1  0.101882  0  0.121682  0.103631  0  0.973808  0
H  H61  1  0.36743180  0.36343641  0.04734141  1  0.101277  0  0.12162  0.1035  0  0.973773  0
H  H62  1  0.86740549  0.13652963  0.45267046  1  0.101813  0  0.121568  0.103423  0  0.973968  0
H  H63  1  0.13255358  0.36344587  0.45266066  1  0.101332  0  0.12165  0.103608  0  0.97374  0
H  H64  1  0.46855558  0.85611917  0.84521184  1  0.038148  0  0.105174  0.108356  0  1.006953  0
H  H65  1  0.53130881  0.64392750  0.84526553  1  0.036887  0  0.105264  0.108507  0  1.007004  0
H  H66  1  0.03121568  0.85610024  0.65471225  1  0.037189  0  0.105177  0.108485  0  1.006662  0
H  H67  1  0.96854170  0.64390239  0.65479578  1  0.037661  0  0.105214  0.108412  0  1.006923  0
H  H68  1  0.53138752  0.14391415  0.15476120  1  0.037755  0  0.105315  0.108451  0  1.006953  0
H  H69  1  0.46868917  0.35605414  0.15475581  1  0.036755  0  0.105351  0.108563  0  1.00702  0
H  H70  1  0.96866972  0.14391676  0.34525487  1  0.036921  0  0.105279  0.108511  0  1.007111  0
H  H71  1  0.03140281  0.35605137  0.34523786  1  0.037161  0  0.105247  0.10843  0  1.006869  0
C  C72  1  0.58091399  0.07841984  0.67138348  1  0.442001  0  0.039076  0.077885  0  3.964525  0
C  C73  1  0.41894285  0.42158173  0.67144350  1  0.440007  0  0.039449  0.078105  0  3.96436  0
C  C74  1  0.91901943  0.07842068  0.82856024  1  0.44076  0  0.039284  0.078246  0  3.964234  0
C  C75  1  0.08085142  0.42159015  0.82862029  1  0.442551  0  0.038755  0.077703  0  3.96455  0
C  C76  1  0.41909947  0.92158763  0.32859184  1  0.441249  0  0.038902  0.078138  0  3.964448  0
C  C77  1  0.58098900  0.57841826  0.32858468  1  0.440924  0  0.039139  0.077903  0  3.964525  0
C  C78  1  0.08099403  0.92159496  0.17141690  1  0.441725  0  0.039072  0.077652  0  3.96478  0
C  C79  1  0.91914375  0.57839421  0.17140651  1  0.44167  0  0.039072  0.078495  0  3.9644  0
C  C80  1  0.52614693  0.08171767  0.73207662  1  0.011777  0  -0.089253  -0.178672  0  3.980208  0
C  C81  1  0.47362723  0.41831167  0.73213965  1  -3.5e-05  0  -0.089555  -0.178743  0  3.980951  0
C  C82  1  0.97372050  0.08170315  0.76786628  1  -0.000626  0  -0.089315  -0.178928  0  3.981184  0
C  C83  1  0.02606134  0.41829964  0.76793272  1  0.011522  0  -0.089085  -0.178456  0  3.980361  0
C  C84  1  0.47380461  0.91830204  0.26790189  1  0.001025  0  -0.089329  -0.179159  0  3.980836  0
C  C85  1  0.52631165  0.58168629  0.26788716  1  0.010398  0  -0.089437  -0.178855  0  3.981172  0
C  C86  1  0.02632673  0.91830841  0.23211268  1  9.8e-05  0  -0.089348  -0.178601  0  3.981064  0
C  C87  1  0.97385643  0.58167248  0.23209455  1  0.001054  0  -0.089187  -0.179063  0  3.980548  0
C  C88  1  0.48880340  0.00107730  0.76439063  1  0.028169  0  0.005613  0.096025  0  3.979143  0
C  C89  1  0.51096503  0.49895629  0.76445374  1  0.038639  0  0.005709  0.096082  0  3.9788  0
C  C90  1  0.01099903  0.00105312  0.73554486  1  0.038002  0  0.005652  0.096128  0  3.978688  0
C  C91  1  0.98880824  0.49894814  0.73561282  1  0.027789  0  0.005489  0.095751  0  3.97908  0
C  C92  1  0.51112563  0.99895398  0.23558150  1  0.038255  0  0.005432  0.095639  0  3.978947  0
C  C93  1  0.48902310  0.50103759  0.23557170  1  0.028576  0  0.00548  0.095685  0  3.978771  0
C  C94  1  0.98896377  0.99895300  0.26443137  1  0.038374  0  0.005366  0.095515  0  3.979248  0
C  C95  1  0.01114049  0.50102262  0.26441489  1  0.037566  0  0.005446  0.095935  0  3.978653  0
C  C96  1  0.50710437  0.91980464  0.73107475  1  -0.089959  0  -0.088905  -0.177537  0  3.971529  0
C  C97  1  0.49265391  0.58022348  0.73112477  1  -0.087701  0  -0.088817  -0.177224  0  3.971178  0
C  C98  1  0.99264665  0.91978379  0.76886632  1  -0.088509  0  -0.08882  -0.177306  0  3.971241  0
C  C99  1  0.00721121  0.58021563  0.76892639  1  -0.088458  0  -0.088942  -0.177522  0  3.971702  0
C  C100  1  0.49279229  0.08022052  0.26890147  1  -0.088825  0  -0.088567  -0.17669  0  3.970934  0
C  C101  1  0.50737503  0.41976836  0.26889110  1  -0.088806  0  -0.088782  -0.177199  0  3.970721  0
C  C102  1  0.00730348  0.08022641  0.23111037  1  -0.089207  0  -0.088622  -0.176914  0  3.971222  0
C  C103  1  0.99278677  0.41976057  0.23109677  1  -0.089068  0  -0.08873  -0.177126  0  3.971076  0
C  C104  1  0.56364608  0.92182383  0.67049694  1  0.466044  0  0.039605  0.079901  0  3.950657  0
C  C105  1  0.43612172  0.57818196  0.67054479  1  0.461758  0  0.039613  0.07965  0  3.950678  0
C  C106  1  0.93611630  0.92181626  0.82944647  1  0.461784  0  0.039672  0.079577  0  3.950797  0
C  C107  1  0.06375456  0.57819733  0.82950085  1  0.467434  0  0.039791  0.080157  0  3.950745  0
C  C108  1  0.43629983  0.07818976  0.32948977  1  0.466604  0  0.03959  0.079491  0  3.950645  0
C  C109  1  0.56389315  0.42181260  0.32947746  1  0.468305  0  0.039579  0.079741  0  3.950352  0
C  C110  1  0.06380710  0.07819530  0.17052657  1  0.46725  0  0.039543  0.079487  0  3.950671  0
C  C111  1  0.93629408  0.42178907  0.17051092  1  0.467463  0  0.039795  0.080018  0  3.950643  0
C  C112  1  0.43536516  0.00175120  0.82930423  1  -0.011399  0  0.004109  0.087648  0  3.991836  0
C  C113  1  0.56443830  0.49828747  0.82935681  1  -0.008698  0  0.00359  0.087198  0  3.992043  0
C  C114  1  0.06446685  0.00173295  0.67063400  1  -0.008552  0  0.003691  0.08731  0  3.991925  0
C  C115  1  0.93536449  0.49826663  0.67070062  1  -0.01163  0  0.004093  0.087861  0  3.991603  0
C  C116  1  0.56457794  0.99827328  0.17067382  1  -0.010147  0  0.003944  0.087783  0  3.991537  0
C  C117  1  0.43559064  0.50170029  0.17065860  1  -0.009412  0  0.003625  0.087721  0  3.991393  0
C  C118  1  0.93553816  0.99827317  0.32934496  1  -0.010426  0  0.00368  0.087689  0  3.991505  0
C  C119  1  0.06457861  0.50169529  0.32932619  1  -0.009144  0  0.003709  0.087387  0  3.991653  0
C  C120  1  0.38972684  0.08276255  0.85991723  1  -0.028738  0  -0.084979  -0.167739  0  3.957883  0
C  C121  1  0.61008742  0.41727502  0.85997616  1  -0.029259  0  -0.084693  -0.167921  0  3.958264  0
C  C122  1  0.11018642  0.08274531  0.64002589  1  -0.029859  0  -0.084775  -0.167788  0  3.957827  0
C  C123  1  0.88971997  0.41725537  0.64008686  1  -0.028831  0  -0.084881  -0.16773  0  3.957537  0
C  C124  1  0.61023737  0.91727077  0.14005808  1  -0.029728  0  -0.085005  -0.168117  0  3.958032  0
C  C125  1  0.38997249  0.58272022  0.14004426  1  -0.036107  0  -0.084667  -0.167986  0  3.957722  0
C  C126  1  0.88986644  0.91725877  0.35995535  1  -0.028456  0  -0.08472  -0.168063  0  3.957792  0
C  C127  1  0.11021468  0.58270383  0.35993858  1  -0.029729  0  -0.084765  -0.167771  0  3.958203  0
C  C128  1  0.33958668  0.08090117  0.92100892  1  0.47303  0  0.046188  0.09233  0  3.946301  0
C  C129  1  0.66032652  0.41915802  0.92105434  1  0.473366  0  0.045966  0.092209  0  3.947293  0
C  C130  1  0.16040811  0.08086915  0.57894463  1  0.474401  0  0.045922  0.092389  0  3.946732  0
C  C131  1  0.83957384  0.41912895  0.57899278  1  0.473896  0  0.045883  0.092025  0  3.946727  0
C  C132  1  0.66042678  0.91914710  0.07896867  1  0.473526  0  0.046006  0.092493  0  3.947011  0
C  C133  1  0.33978967  0.58083790  0.07895970  1  0.479165  0  0.045831  0.091773  0  3.94736  0
C  C134  1  0.83966727  0.91913425  0.42104344  1  0.472529  0  0.04592  0.092249  0  3.946557  0
C  C135  1  0.16039319  0.58082617  0.42102947  1  0.473787  0  0.046024  0.092446  0  3.947056  0
C  C136  1  0.37553517  0.92510943  0.92509046  1  0.504955  0  0.046635  0.091171  0  3.951396  0
C  C137  1  0.62440124  0.57494621  0.92513601  1  0.504516  0  0.046459  0.090838  0  3.951341  0
C  C138  1  0.12434350  0.92508820  0.57484685  1  0.503869  0  0.046382  0.090828  0  3.952011  0
C  C139  1  0.87554873  0.57491158  0.57491663  1  0.504953  0  0.046785  0.091167  0  3.951324  0
C  C140  1  0.62440652  0.07492661  0.07488349  1  0.504618  0  0.046539  0.091006  0  3.951582  0
C  C141  1  0.37567836  0.42504835  0.07488259  1  0.504469  0  0.046646  0.091091  0  3.95127  0
C  C142  1  0.87562070  0.07492200  0.42512755  1  0.504308  0  0.046581  0.090892  0  3.951612  0
C  C143  1  0.12439578  0.42504830  0.42510972  1  0.504675  0  0.046569  0.090997  0  3.951137  0
C  C144  1  0.42888653  0.92167424  0.86431806  1  -0.0045  0  -0.08406  -0.169805  0  3.95946  0
C  C145  1  0.57095944  0.57836860  0.86437011  1  -0.004404  0  -0.083721  -0.169378  0  3.95861  0
C  C146  1  0.07091317  0.92165956  0.63561552  1  -0.004559  0  -0.083478  -0.169195  0  3.95859  0
C  C147  1  0.92888656  0.57834894  0.63569036  1  -0.004792  0  -0.084315  -0.170205  0  3.959501  0
C  C148  1  0.57104531  0.07835908  0.13565543  1  -0.004958  0  -0.08396  -0.169716  0  3.958983  0
C  C149  1  0.42907654  0.42162052  0.13564986  1  -0.004606  0  -0.083839  -0.169906  0  3.959717  0
C  C150  1  0.92902571  0.07835880  0.36435752  1  -0.003779  0  -0.083792  -0.169577  0  3.958866  0
C  C151  1  0.07104669  0.42161162  0.36434282  1  -0.004804  0  -0.083895  -0.169621  0  3.958924  0
C  C152  1  0.49998312  0.80193490  0.50164809  1  1.651401  0  0.184505  0.480814  0  4.293283  0
C  C153  1  0.50006931  0.69806368  0.50165445  1  1.537639  0  0.184326  0.480706  0  4.293171  0
C  C154  1  0.00015568  0.80192171  0.99835429  1  1.537781  0  0.184539  0.481139  0  4.292295  0
C  C155  1  0.00021513  0.69805729  0.99833468  1  1.651665  0  0.184166  0.480171  0  4.293473  0
C  C156  1  0.50004020  0.19806374  0.49835320  1  1.650958  0  0.184406  0.480669  0  4.293294  0
C  C157  1  0.49996808  0.30193291  0.49835778  1  1.537718  0  0.18423  0.480466  0  4.293509  0
C  C158  1  0.99989437  0.19808849  0.00164107  1  1.537747  0  0.184505  0.481305  0  4.292342  0
C  C159  1  0.99986307  0.30195223  0.00166205  1  1.650734  0  0.184211  0.480266  0  4.293863  0
N  N160  1  0.60309224  0.99974991  0.64081851  1  -1.184009  0  -0.336517  -0.194236  0  3.544728  0
N  N161  1  0.39677052  0.50024469  0.64086964  1  -1.178397  0  -0.336613  -0.194283  0  3.543979  0
N  N162  1  0.89678501  0.99974971  0.85912833  1  -1.178575  0  -0.336765  -0.194407  0  3.543843  0
N  N163  1  0.10311895  0.50026351  0.85918122  1  -1.185768  0  -0.336395  -0.1942  0  3.544503  0
N  N164  1  0.39692544  0.00025621  0.35916227  1  -1.182546  0  -0.336378  -0.194005  0  3.544231  0
N  N165  1  0.60320777  0.49975463  0.35915353  1  -1.184653  0  -0.336292  -0.194002  0  3.54348  0
N  N166  1  0.10318483  0.00025913  0.14084972  1  -1.183841  0  -0.3364  -0.194015  0  3.543859  0
N  N167  1  0.89696065  0.49971609  0.14083602  1  -1.183633  0  -0.336591  -0.194468  0  3.544203  0
N  N168  1  0.32986436  0.00333783  0.95350328  1  -1.175256  0  -0.338808  -0.216627  0  3.593895  0
N  N169  1  0.67011069  0.49672355  0.95353667  1  -1.176376  0  -0.338832  -0.216391  0  3.594501  0
N  N170  1  0.17011268  0.00330932  0.54645094  1  -1.176076  0  -0.338728  -0.216374  0  3.595162  0
N  N171  1  0.82988059  0.49668862  0.54650567  1  -1.175685  0  -0.338683  -0.216299  0  3.594332  0
N  N172  1  0.67011814  0.99670296  0.04647841  1  -1.176165  0  -0.338677  -0.216527  0  3.594382  0
N  N173  1  0.32999143  0.50326828  0.04647281  1  -1.17559  0  -0.338749  -0.216072  0  3.593862  0
N  N174  1  0.82990501  0.99670020  0.45353121  1  -1.175932  0  -0.338686  -0.216079  0  3.594106  0
N  N175  1  0.17009347  0.50327874  0.45352068  1  -1.176495  0  -0.338647  -0.216441  0  3.593882  0
O  O176  1  0.39402940  0.83935483  0.46242389  1  -1.161734  0  -0.341013  -0.544552  0  2.29048  0
O  O177  1  0.60605261  0.66063039  0.46244108  1  -1.16162  0  -0.341172  -0.544764  0  2.290532  0
O  O178  1  0.10609256  0.83938557  0.03756579  1  -1.16254  0  -0.341084  -0.544782  0  2.2901  0
O  O179  1  0.89427121  0.66059368  0.03755594  1  -1.162701  0  -0.341091  -0.544419  0  2.290039  0
O  O180  1  0.60600658  0.16063293  0.53756919  1  -1.16165  0  -0.341045  -0.544591  0  2.290574  0
O  O181  1  0.39400870  0.33935873  0.53757889  1  -1.161692  0  -0.341009  -0.54453  0  2.290439  0
O  O182  1  0.89398704  0.16063143  0.96241955  1  -1.162121  0  -0.341001  -0.544906  0  2.290221  0
O  O183  1  0.10585765  0.33940904  0.96245355  1  -1.161861  0  -0.341075  -0.544401  0  2.290277  0
O  O184  1  0.60659436  0.83921138  0.54067595  1  -1.164445  0  -0.33938  -0.539787  0  2.289579  0
O  O185  1  0.39342985  0.66078359  0.54067180  1  -1.164288  0  -0.339257  -0.539525  0  2.28932  0
O  O186  1  0.89347088  0.83916041  0.95933132  1  -1.163243  0  -0.339524  -0.539877  0  2.288278  0
O  O187  1  0.10691474  0.66081234  0.95932681  1  -1.163908  0  -0.339068  -0.539393  0  2.289786  0
O  O188  1  0.39344584  0.16079066  0.45931942  1  -1.164326  0  -0.339295  -0.539608  0  2.289447  0
O  O189  1  0.60657939  0.33921641  0.45932949  1  -1.164159  0  -0.339223  -0.539477  0  2.289377  0
O  O190  1  0.10654821  0.16083007  0.04066860  1  -1.163402  0  -0.339546  -0.539963  0  2.288293  0
O  O191  1  0.89318457  0.33919446  0.04067903  1  -1.164047  0  -0.339145  -0.539519  0  2.289933  0
