# generated using pymatgen
data_YH21(C9O2)3
_symmetry_space_group_name_H-M   'P 1'
_cell_length_a   7.89057040
_cell_length_b   11.33083156
_cell_length_c   13.06250000
_cell_angle_alpha   94.21660687
_cell_angle_beta   90.00000000
_cell_angle_gamma   90.00000000
_symmetry_Int_Tables_number   1
_chemical_formula_structural   YH21(C9O2)3
_chemical_formula_sum   'Y2 H42 C54 O12'
_cell_volume   1164.71413650
_cell_formula_units_Z   2
loop_
 _symmetry_equiv_pos_site_id
 _symmetry_equiv_pos_as_xyz
  1  'x, y, z'
loop_
 _atom_site_type_symbol
 _atom_site_label
 _atom_site_symmetry_multiplicity
 _atom_site_fract_x
 _atom_site_fract_y
 _atom_site_fract_z
 _atom_site_occupancy
 _atom_site_hle17_bader_spin_density
 _atom_site_hle17_ddec_charge
 _atom_site_hle17_ddec_spin_density
 _atom_site_hle17_ddec_sum_bond_order
 _atom_site_hle17_magmom
 _atom_site_hse06_10hf_bader_spin_density
 _atom_site_hse06_10hf_ddec_charge
 _atom_site_hse06_10hf_ddec_spin_density
 _atom_site_hse06_10hf_ddec_sum_bond_order
 _atom_site_hse06_10hf_magmom
 _atom_site_hse06_bader_spin_density
 _atom_site_hse06_ddec_charge
 _atom_site_hse06_ddec_spin_density
 _atom_site_hse06_ddec_sum_bond_order
 _atom_site_hse06_magmom
 _atom_site_pbe_bader_charge
 _atom_site_pbe_bader_spin_density
 _atom_site_pbe_cm5_charge
 _atom_site_pbe_ddec_charge
 _atom_site_pbe_ddec_spin_density
 _atom_site_pbe_ddec_sum_bond_order
 _atom_site_pbe_magmom
Y  Y0  1  0.46375481  0.54174536  0.47462902  1  0  2.022809  0  1.966581  0  0  1.826492  0  2.478228  0  0  1.899087  0  2.410176  0  2.27905  0  1.32718  1.773905  0  2.525547  0
Y  Y1  1  0.96375542  0.45825540  0.52536988  1  0  2.022776  0  1.966639  0  0  1.8264  0  2.478398  0  0  1.899044  0  2.410255  0  2.279053  0  1.32718  1.773813  0  2.525716  0
H  H2  1  0.63765099  0.12614776  0.60875153  1  0  0.113979  0  0.956698  0  0  0.124743  0  1.014866  0  0  0.128634  0  1.013923  0  0.078751  0  0.103624  0.122009  0  1.015663  0
H  H3  1  0.13765545  0.87385301  0.39124890  1  0  0.113989  0  0.956685  0  0  0.124746  0  1.01486  0  0  0.128642  0  1.013907  0  0.078857  0  0.103657  0.122011  0  1.015662  0
H  H4  1  0.30222403  0.26580240  0.60435343  1  0  0.100856  0  0.963388  0  0  0.106863  0  1.032454  0  0  0.109943  0  1.029621  0  0.112039  0  0.111787  0.104596  0  1.034514  0
H  H5  1  0.80222591  0.73420014  0.39564329  1  0  0.10086  0  0.963388  0  0  0.106866  0  1.032451  0  0  0.109946  0  1.029618  0  0.112394  0  0.111815  0.104599  0  1.03451  0
H  H6  1  0.50423985  0.95899250  0.59752579  1  0  0.089607  0  0.957718  0  0  0.101887  0  1.017171  0  0  0.10462  0  1.016197  0  0.050989  0  0.100992  0.099947  0  1.017893  0
H  H7  1  0.00424050  0.04101269  0.40247646  1  0  0.089643  0  0.957666  0  0  0.101871  0  1.017167  0  0  0.104603  0  1.016195  0  0.050955  0  0.100997  0.099932  0  1.017889  0
H  H8  1  0.34256332  0.77907118  0.62771014  1  0  0.091015  0  0.990064  0  0  0.096048  0  1.061767  0  0  0.099852  0  1.059006  0  0.101779  0  0.101247  0.093287  0  1.063861  0
H  H9  1  0.84256266  0.22093401  0.37229364  1  0  0.091004  0  0.990075  0  0  0.096036  0  1.061785  0  0  0.099841  0  1.059028  0  0.102394  0  0.101233  0.093274  0  1.063882  0
H  H10  1  0.03470598  0.79069402  0.66632627  1  0  0.0891  0  0.980169  0  0  0.097657  0  1.044312  0  0  0.0997  0  1.044666  0  0.048462  0  0.097775  0.096162  0  1.044119  0
H  H11  1  0.53470532  0.20930940  0.33367509  1  0  0.089077  0  0.980195  0  0  0.097628  0  1.044349  0  0  0.099671  0  1.044702  0  0.048436  0  0.097747  0.096134  0  1.044154  0
H  H12  1  0.88605888  0.98546027  0.67120242  1  0  0.080627  0  0.952562  0  0  0.093584  0  1.0096  0  0  0.096244  0  1.008905  0  0.065481  0  0.096348  0.091681  0  1.010169  0
H  H13  1  0.38606081  0.01454050  0.32879648  1  0  0.080669  0  0.952484  0  0  0.093585  0  1.009565  0  0  0.096241  0  1.008877  0  0.065508  0  0.096367  0.091684  0  1.010132  0
H  H14  1  0.04839321  0.16786751  0.63903729  1  0  0.105863  0  0.954806  0  0  0.114276  0  1.019785  0  0  0.117873  0  1.017167  0  0.098186  0  0.108692  0.111698  0  1.021681  0
H  H15  1  0.54839762  0.83213502  0.36096096  1  0  0.105874  0  0.954756  0  0  0.11428  0  1.01973  0  0  0.117878  0  1.017111  0  0.098258  0  0.108674  0.111702  0  1.021631  0
H  H16  1  0.37090728  0.62639814  0.75959793  1  0  0.116071  0  0.958638  0  0  0.125067  0  1.021399  0  0  0.128616  0  1.021223  0  0.060365  0  0.10692  0.122611  0  1.02158  0
H  H17  1  0.87090535  0.37360086  0.24040086  1  0  0.116023  0  0.958661  0  0  0.125032  0  1.021412  0  0  0.128581  0  1.021237  0  0.060341  0  0.106917  0.122576  0  1.021592  0
H  H18  1  0.13978711  0.45171656  0.86455168  1  0  0.098007  0  0.95095  0  0  0.108106  0  1.013503  0  0  0.110634  0  1.012026  0  0.109203  0  0.108066  0.106291  0  1.01454  0
H  H19  1  0.63978518  0.54828244  0.13544787  1  0  0.098026  0  0.950876  0  0  0.108084  0  1.013475  0  0  0.110613  0  1.011997  0  0.109188  0  0.108054  0.106268  0  1.014517  0
H  H20  1  0.41241125  0.73091788  0.90440773  1  0  0.08753  0  0.958229  0  0  0.099483  0  1.018652  0  0  0.10169  0  1.018412  0  0.079349  0  0.099389  0.097914  0  1.018871  0
H  H21  1  0.91240932  0.26908023  0.09559253  1  0  0.087526  0  0.958201  0  0  0.099483  0  1.018621  0  0  0.10169  0  1.018381  0  0.079302  0  0.099392  0.097915  0  1.018839  0
H  H22  1  0.47563862  0.82655368  0.07583637  1  0  0.087506  0  0.978151  0  0  0.097612  0  1.039515  0  0  0.099396  0  1.041298  0  0.102523  0  0.096598  0.096331  0  1.038369  0
H  H23  1  0.97563669  0.17344708  0.92416407  1  0  0.087518  0  0.978192  0  0  0.09762  0  1.039555  0  0  0.099404  0  1.041337  0  0.102533  0  0.0966  0.096339  0  1.038409  0
H  H24  1  0.37273351  0.73634435  0.23339077  1  0  0.098448  0  0.959738  0  0  0.106641  0  1.023146  0  0  0.109714  0  1.021111  0  0.100909  0  0.104688  0.104427  0  1.024674  0
H  H25  1  0.87273158  0.26365553  0.76661037  1  0  0.098479  0  0.959705  0  0  0.106662  0  1.023128  0  0  0.109735  0  1.021093  0  0.100925  0  0.104674  0.104446  0  1.024659  0
H  H26  1  0.20478241  0.55109390  0.21754719  1  0  0.099477  0  0.951856  0  0  0.108552  0  1.01214  0  0  0.111026  0  1.012143  0  0.077269  0  0.105326  0.106814  0  1.012195  0
H  H27  1  0.70478175  0.44890598  0.78245319  1  0  0.099448  0  0.95188  0  0  0.108498  0  1.012185  0  0  0.110971  0  1.012188  0  0.077279  0  0.105309  0.10676  0  1.012239  0
H  H28  1  0.14055765  0.45403688  0.04461623  1  0  0.086943  0  0.977997  0  0  0.096314  0  1.044244  0  0  0.098059  0  1.045655  0  0.061439  0  0.096439  0.095022  0  1.043366  0
H  H29  1  0.64055699  0.54596389  0.95538497  1  0  0.087008  0  0.977966  0  0  0.096381  0  1.044194  0  0  0.09813  0  1.045602  0  0.061452  0  0.096469  0.09509  0  1.043316  0
H  H30  1  0.10632945  0.18210979  0.26142317  1  0  0.112674  0  0.967394  0  0  0.121552  0  1.031765  0  0  0.125364  0  1.030937  0  0.068239  0  0.102722  0.118853  0  1.032514  0
H  H31  1  0.60633259  0.81789009  0.73857873  1  0  0.112716  0  0.967389  0  0  0.121589  0  1.031762  0  0  0.125397  0  1.03094  0  0.068149  0  0.102753  0.11889  0  1.032512  0
H  H32  1  0.40216991  0.33074572  0.18571273  1  0  0.095846  0  0.940696  0  0  0.106189  0  1.003644  0  0  0.108558  0  1.001987  0  0.090555  0  0.10866  0.104372  0  1.004984  0
H  H33  1  0.90217306  0.66925062  0.81428742  1  0  0.095941  0  0.940806  0  0  0.106336  0  1.003669  0  0  0.108706  0  1.002004  0  0.090594  0  0.108744  0.104491  0  1.005037  0
H  H34  1  0.15788719  0.04199055  0.13829078  1  0  0.087692  0  0.957368  0  0  0.099981  0  1.016682  0  0  0.102597  0  1.015772  0  0.065279  0  0.099877  0.098104  0  1.017384  0
H  H35  1  0.65789160  0.95800756  0.86170871  1  0  0.087701  0  0.957324  0  0  0.099993  0  1.016627  0  0  0.102609  0  1.015717  0  0.065262  0  0.0999  0.098116  0  1.017328  0
H  H36  1  0.14779793  0.92766817  0.97048601  1  0  0.087739  0  0.971596  0  0  0.096971  0  1.033676  0  0  0.098806  0  1.034921  0  0.094233  0  0.097066  0.095652  0  1.032885  0
H  H37  1  0.64780361  0.07232906  0.02951266  1  0  0.087747  0  0.971608  0  0  0.096968  0  1.033702  0  0  0.098803  0  1.034948  0  0.094309  0  0.097076  0.095648  0  1.032911  0
H  H38  1  0.28756476  0.00467250  0.81793629  1  0  0.078901  0  0.998123  0  0  0.086825  0  1.064419  0  0  0.08806  0  1.066354  0  0.090609  0  0.093337  0.085907  0  1.063134  0
H  H39  1  0.78756917  0.99532561  0.18206244  1  0  0.078907  0  0.998158  0  0  0.08685  0  1.06443  0  0  0.088085  0  1.066367  0  0.090654  0  0.093358  0.085933  0  1.063145  0
H  H40  1  0.44070705  0.19788744  0.83524861  1  0  0.088979  0  0.957118  0  0  0.098588  0  1.017296  0  0  0.100429  0  1.018483  0  0.09274  0  0.097957  0.097271  0  1.016536  0
H  H41  1  0.94071146  0.80211067  0.16475012  1  0  0.088963  0  0.957135  0  0  0.098566  0  1.017314  0  0  0.100408  0  1.018502  0  0.092748  0  0.097972  0.09725  0  1.016553  0
H  H42  1  0.45230063  0.31281500  0.00423150  1  0  0.087947  0  0.973434  0  0  0.096721  0  1.039563  0  0  0.098347  0  1.040922  0  0.080622  0  0.097115  0.095534  0  1.038661  0
H  H43  1  0.95230505  0.68718222  0.99576870  1  0  0.0879  0  0.973488  0  0  0.096737  0  1.039561  0  0  0.098365  0  1.040922  0  0.080717  0  0.097111  0.09555  0  1.038657  0
C  C44  1  0.62843366  0.31504152  0.59104605  1  0  0.746915  0  3.868251  0  0  0.700645  0  4.154131  0  0  0.738902  0  4.142649  0  1.491151  0  0.229823  0.674601  0  4.161163  0
C  C45  1  0.12843431  0.68495748  0.40895351  1  0  0.747067  0  3.8681  0  0  0.700751  0  4.154047  0  0  0.739007  0  4.142565  0  1.49098  0  0.229856  0.674708  0  4.161078  0
C  C46  1  0.54982590  0.19985909  0.60451274  1  0  -0.270955  0  3.695064  0  0  -0.283713  0  3.94977  0  0  -0.298469  0  3.967189  0  0.009062  0  -0.104768  -0.274042  0  3.938053  0
C  C47  1  0.04983290  0.80014344  0.39548628  1  0  -0.270973  0  3.694612  0  0  -0.283729  0  3.949366  0  0  -0.298483  0  3.966784  0  0.009133  0  -0.104832  -0.27406  0  3.93765  0
C  C48  1  0.37988128  0.18649026  0.60816534  1  0  -0.009484  0  3.703671  0  0  -0.0349  0  3.950892  0  0  -0.028043  0  3.967241  0  -0.089057  0  -0.061365  -0.039201  0  3.939655  0
C  C49  1  0.87987936  0.81350962  0.39183274  1  0  -0.009451  0  3.703308  0  0  -0.034861  0  3.950525  0  0  -0.028006  0  3.966874  0  -0.089346  0  -0.061329  -0.039162  0  3.939288  0
C  C50  1  0.28841388  0.07699448  0.61955950  1  0  0.061805  0  3.827894  0  0  0.084587  0  4.055362  0  0  0.081734  0  4.08074  0  -0.061667  0  -0.014416  0.086411  0  4.038041  0
C  C51  1  0.78841702  0.92300983  0.38044115  1  0  0.061791  0  3.828194  0  0  0.084568  0  4.055626  0  0  0.081715  0  4.081004  0  -0.061742  0  -0.014473  0.086392  0  4.038303  0
C  C52  1  0.36950434  0.96588444  0.61564344  1  0  -0.108507  0  3.726648  0  0  -0.126606  0  3.967012  0  0  -0.128411  0  3.988251  0  -0.086787  0  -0.086465  -0.125197  0  3.952502  0
C  C53  1  0.86950622  0.03411810  0.38435863  1  0  -0.108526  0  3.726632  0  0  -0.12657  0  3.966992  0  0  -0.128373  0  3.98823  0  -0.086995  0  -0.086444  -0.125162  0  3.952481  0
C  C54  1  0.27841967  0.86426642  0.63274044  1  0  -0.077982  0  3.785638  0  0  -0.092073  0  4.03821  0  0  -0.094851  0  4.058819  0  0.000752  0  -0.0935  -0.090175  0  4.024187  0
C  C55  1  0.77842155  0.13573700  0.36726246  1  0  -0.077979  0  3.785508  0  0  -0.092082  0  4.038093  0  0  -0.094862  0  4.058699  0  0.000255  0  -0.093497  -0.090184  0  4.024071  0
C  C56  1  0.10465530  0.87110792  0.65363459  1  0  -0.062307  0  3.749402  0  0  -0.07505  0  3.993219  0  0  -0.076746  0  4.016509  0  -0.060676  0  -0.088286  -0.073666  0  3.977205  0
C  C57  1  0.60465591  0.12889373  0.34636667  1  0  -0.062313  0  3.749293  0  0  -0.075048  0  3.993112  0  0  -0.076741  0  4.016395  0  -0.06061  0  -0.088266  -0.073663  0  3.977097  0
C  C58  1  0.02184379  0.98020990  0.65577549  1  0  -0.072574  0  3.789078  0  0  -0.083528  0  4.035895  0  0  -0.086871  0  4.059324  0  -0.10499  0  -0.092176  -0.081251  0  4.019839  0
C  C59  1  0.52184821  0.01978998  0.34422488  1  0  -0.072564  0  3.788984  0  0  -0.083485  0  4.03579  0  0  -0.086826  0  4.059216  0  -0.104969  0  -0.092172  -0.08121  0  4.019734  0
C  C60  1  0.11243294  0.08238466  0.63812798  1  0  -0.103288  0  3.699892  0  0  -0.122102  0  3.942032  0  0  -0.123916  0  3.962868  0  0.004317  0  -0.07923  -0.120654  0  3.927766  0
C  C61  1  0.61244115  0.91761699  0.36187098  1  0  -0.103353  0  3.70004  0  0  -0.122141  0  3.942136  0  0  -0.123954  0  3.96297  0  0.004294  0  -0.079229  -0.120694  0  3.927871  0
C  C62  1  0.20721823  0.49817076  0.67636123  1  0  0.709342  0  3.880668  0  0  0.663374  0  4.165271  0  0  0.700829  0  4.155467  0  1.470255  0  0.20968  0.63788  0  4.171242  0
C  C63  1  0.70721757  0.50182912  0.32363915  1  0  0.709294  0  3.880728  0  0  0.663332  0  4.165323  0  0  0.700787  0  4.155517  0  1.47025  0  0.209647  0.63784  0  4.17129  0
C  C64  1  0.28150563  0.55488500  0.76982573  1  0  -0.247502  0  3.661586  0  0  -0.261222  0  3.914718  0  0  -0.276061  0  3.931478  0  -0.0753  0  -0.098411  -0.251533  0  3.903549  0
C  C65  1  0.78150624  0.44511400  0.23017612  1  0  -0.24745  0  3.661426  0  0  -0.261175  0  3.914561  0  0  -0.276017  0  3.931323  0  -0.075236  0  -0.098391  -0.251483  0  3.903388  0
C  C66  1  0.22901133  0.52557745  0.86325831  1  0  -0.006105  0  3.696388  0  0  -0.029035  0  3.939017  0  0  -0.020821  0  3.954499  0  -0.021207  0  -0.057018  -0.034296  0  3.928462  0
C  C67  1  0.72900813  0.47442243  0.13673977  1  0  -0.006068  0  3.696072  0  0  -0.028965  0  3.938712  0  0  -0.020753  0  3.954193  0  -0.021154  0  -0.056994  -0.03423  0  3.928161  0
C  C68  1  0.27355564  0.58417838  0.96234286  1  0  0.047751  0  3.841108  0  0  0.069198  0  4.07096  0  0  0.065695  0  4.095739  0  0.049212  0  -0.018894  0.071428  0  4.054142  0
C  C69  1  0.77355371  0.41582150  0.03765751  1  0  0.047778  0  3.841032  0  0  0.069234  0  4.070877  0  0  0.065735  0  4.095648  0  0.049091  0  -0.018896  0.071463  0  4.05406  0
C  C70  1  0.36783019  0.69022466  0.97261959  1  0  -0.105777  0  3.728259  0  0  -0.122229  0  3.967764  0  0  -0.123583  0  3.988885  0  -0.103723  0  -0.08539  -0.121125  0  3.953356  0
C  C71  1  0.86782826  0.30977522  0.02738078  1  0  -0.105759  0  3.728233  0  0  -0.122217  0  3.96774  0  0  -0.12357  0  3.988858  0  -0.103672  0  -0.085382  -0.121113  0  3.953331  0
C  C72  1  0.40277950  0.74465662  0.06923652  1  0  -0.076821  0  3.780165  0  0  -0.08757  0  4.025734  0  0  -0.090799  0  4.048417  0  -0.059032  0  -0.090145  -0.085371  0  4.010245  0
C  C73  1  0.90277757  0.25534237  0.93076380  1  0  -0.076864  0  3.780163  0  0  -0.087606  0  4.025726  0  0  -0.090836  0  4.048408  0  -0.059035  0  -0.090154  -0.085408  0  4.010237  0
C  C74  1  0.34398654  0.69491220  0.15757617  1  0  -0.043885  0  3.719605  0  0  -0.060765  0  3.969993  0  0  -0.060882  0  3.989134  0  -0.055761  0  -0.079173  -0.060511  0  3.956907  0
C  C75  1  0.84398461  0.30508768  0.84242420  1  0  -0.043884  0  3.719587  0  0  -0.06076  0  3.96996  0  0  -0.060877  0  3.9891  0  -0.055769  0  -0.079167  -0.060506  0  3.956874  0
C  C76  1  0.24994898  0.59012697  0.14880685  1  0  -0.066376  0  3.749105  0  0  -0.079476  0  4.00043  0  0  -0.082605  0  4.022671  0  -0.048082  0  -0.087198  -0.077372  0  3.985318  0
C  C77  1  0.74994959  0.40987291  0.85119352  1  0  -0.066334  0  3.749177  0  0  -0.079409  0  4.000497  0  0  -0.082539  0  4.022741  0  -0.048097  0  -0.08719  -0.077306  0  3.985385  0
C  C78  1  0.21476774  0.53548793  0.05211777  1  0  -0.109531  0  3.725554  0  0  -0.127486  0  3.968026  0  0  -0.129842  0  3.991026  0  -0.081373  0  -0.085384  -0.125693  0  3.95241  0
C  C79  1  0.71476582  0.46451107  0.94788178  1  0  -0.109695  0  3.725589  0  0  -0.127651  0  3.968054  0  0  -0.130011  0  3.991052  0  -0.081342  0  -0.08543  -0.125857  0  3.952439  0
C  C80  1  0.22186356  0.32655551  0.35638443  1  0  0.748139  0  3.877931  0  0  0.702907  0  4.16266  0  0  0.741317  0  4.150424  0  1.505037  0  0.23372  0.676736  0  4.170284  0
C  C81  1  0.72186670  0.67344348  0.64361589  1  0  0.748129  0  3.877972  0  0  0.702889  0  4.162734  0  0  0.741298  0  4.150499  0  1.505032  0  0.233715  0.676719  0  4.170356  0
C  C82  1  0.20760983  0.24768761  0.26212783  1  0  -0.279735  0  3.686236  0  0  -0.294523  0  3.942565  0  0  -0.309218  0  3.957977  0  -0.035671  0  -0.106612  -0.284906  0  3.932248  0
C  C83  1  0.70761298  0.75231138  0.73787249  1  0  -0.279744  0  3.686309  0  0  -0.294538  0  3.942667  0  0  -0.309229  0  3.958082  0  -0.03556  0  -0.106674  -0.28492  0  3.932341  0
C  C84  1  0.30902329  0.25895736  0.17996355  1  0  -0.007724  0  3.715328  0  0  -0.031857  0  3.962552  0  0  -0.023413  0  3.977877  0  -0.042549  0  -0.059719  -0.037232  0  3.952024  0
C  C85  1  0.80902770  0.74103986  0.82003589  1  0  -0.007913  0  3.715581  0  0  -0.032093  0  3.96278  0  0  -0.023646  0  3.978094  0  -0.042661  0  -0.059797  -0.037443  0  3.952259  0
C  C86  1  0.30386903  0.18692653  0.08306091  1  0  0.054937  0  3.832244  0  0  0.076706  0  4.061436  0  0  0.073067  0  4.086948  0  -0.003857  0  -0.015312  0.079056  0  4.044028  0
C  C87  1  0.80387471  0.81307158  0.91693935  1  0  0.055008  0  3.832072  0  0  0.076816  0  4.061206  0  0  0.073178  0  4.086717  0  -0.003674  0  -0.015249  0.079166  0  4.043792  0
C  C88  1  0.21910330  0.07715288  0.07210855  1  0  -0.102961  0  3.721822  0  0  -0.120977  0  3.960573  0  0  -0.122724  0  3.982024  0  -0.082793  0  -0.084142  -0.119612  0  3.945913  0
C  C89  1  0.71910898  0.92284523  0.92789018  1  0  -0.102897  0  3.721757  0  0  -0.120927  0  3.960474  0  0  -0.122676  0  3.981924  0  -0.082718  0  -0.084133  -0.119562  0  3.945817  0
C  C90  1  0.21395031  0.01231398  0.97753639  1  0  -0.071296  0  3.77634  0  0  -0.08139  0  4.021975  0  0  -0.08385  0  4.043348  0  -0.053819  0  -0.089492  -0.079743  0  4.007407  0
C  C91  1  0.71395599  0.98768324  0.02246229  1  0  -0.071326  0  3.77636  0  0  -0.081415  0  4.022011  0  0  -0.083874  0  4.043382  0  -0.053616  0  -0.089542  -0.079768  0  4.007444  0
C  C92  1  0.29320567  0.05547885  0.89197097  1  0  -0.061535  0  3.747326  0  0  -0.075052  0  3.99225  0  0  -0.075834  0  4.013169  0  -0.067403  0  -0.086164  -0.074347  0  3.977923  0
C  C93  1  0.79321135  0.94452014  0.10802858  1  0  -0.061584  0  3.74738  0  0  -0.075126  0  3.992313  0  0  -0.075908  0  4.013229  0  -0.067587  0  -0.086167  -0.07442  0  3.977986  0
C  C94  1  0.37887629  0.16370828  0.90163364  1  0  -0.067228  0  3.760743  0  0  -0.077413  0  4.00471  0  0  -0.080172  0  4.026233  0  -0.036012  0  -0.088643  -0.07557  0  3.990066  0
C  C95  1  0.87887816  0.83629071  0.09836744  1  0  -0.067155  0  3.760634  0  0  -0.077334  0  4.004631  0  0  -0.080093  0  4.026156  0  -0.036057  0  -0.08865  -0.075492  0  3.989989  0
C  C96  1  0.38526999  0.22840559  0.99654893  1  0  -0.103487  0  3.715149  0  0  -0.121743  0  3.956733  0  0  -0.123498  0  3.978716  0  -0.095019  0  -0.083577  -0.120387  0  3.941774  0
C  C97  1  0.88527694  0.77159164  0.00345204  1  0  -0.103569  0  3.715053  0  0  -0.121888  0  3.956591  0  0  -0.123648  0  3.978576  0  -0.095417  0  -0.083646  -0.12053  0  3.941633  0
O  O98  1  0.53464956  0.40671897  0.58524844  1  0  -0.744732  0  2.041431  0  0  -0.678845  0  2.297933  0  0  -0.709871  0  2.286276  0  -1.236319  0  -0.395087  -0.656917  0  2.305129  0
O  O99  1  0.03465149  0.59328179  0.41475199  1  0  -0.74478  0  2.041489  0  0  -0.678866  0  2.298005  0  0  -0.709901  0  2.28635  0  -1.236314  0  -0.395078  -0.656939  0  2.305202  0
O  O100  1  0.79034591  0.31880518  0.58595250  1  0  -0.69923  0  1.972034  0  0  -0.631245  0  2.220546  0  0  -0.6606  0  2.207079  0  -1.172898  0  -0.377887  -0.610623  0  2.229192  0
O  O101  1  0.29034783  0.68119381  0.41404705  1  0  -0.69937  0  1.972023  0  0  -0.631349  0  2.220535  0  0  -0.660697  0  2.20707  0  -1.172929  0  -0.377925  -0.610726  0  2.229182  0
O  O102  1  0.23560908  0.54429665  0.58888399  1  0  -0.785983  0  2.05193  0  0  -0.708765  0  2.311112  0  0  -0.741242  0  2.298136  0  -1.233404  0  -0.410788  -0.68566  0  2.319186  0
O  O103  1  0.73560842  0.45570411  0.41111567  1  0  -0.785969  0  2.051931  0  0  -0.708747  0  2.311118  0  0  -0.741225  0  2.298141  0  -1.233443  0  -0.410779  -0.68564  0  2.319189  0
O  O104  1  0.10434480  0.41199677  0.67746333  1  0  -0.654323  0  1.948246  0  0  -0.593794  0  2.183221  0  0  -0.621198  0  2.173475  0  -1.182518  0  -0.347234  -0.574766  0  2.189442  0
O  O105  1  0.60434668  0.58800399  0.32253633  1  0  -0.654284  0  1.948267  0  0  -0.593772  0  2.183248  0  0  -0.621169  0  2.173502  0  -1.182509  0  -0.347206  -0.574748  0  2.189471  0
O  O106  1  0.10275936  0.32204053  0.42297723  1  0  -0.718187  0  1.976941  0  0  -0.650558  0  2.228157  0  0  -0.680081  0  2.212954  0  -1.212293  0  -0.38842  -0.629714  0  2.237961  0
O  O107  1  0.60275744  0.67796023  0.57702550  1  0  -0.718202  0  1.976923  0  0  -0.650594  0  2.228157  0  0  -0.680109  0  2.212955  0  -1.21226  0  -0.388424  -0.62975  0  2.237962  0
O  O108  1  0.34873525  0.39589966  0.36846039  1  0  -0.718942  0  2.021126  0  0  -0.65558  0  2.278821  0  0  -0.685149  0  2.265453  0  -1.235623  0  -0.380129  -0.634862  0  2.28744  0
O  O109  1  0.84873585  0.60410022  0.63153845  1  0  -0.718903  0  2.021156  0  0  -0.655527  0  2.278865  0  0  -0.685103  0  2.265497  0  -1.235662  0  -0.380112  -0.634806  0  2.287475  0
