# generated using pymatgen
data_Tb2H19C33N5O13
_symmetry_space_group_name_H-M   'P 1'
_cell_length_a   7.50247127
_cell_length_b   12.42697293
_cell_length_c   18.17697935
_cell_angle_alpha   70.88948181
_cell_angle_beta   78.48696765
_cell_angle_gamma   74.77230521
_symmetry_Int_Tables_number   1
_chemical_formula_structural   Tb2H19C33N5O13
_chemical_formula_sum   'Tb4 H38 C66 N10 O26'
_cell_volume   1533.03499861
_cell_formula_units_Z   2
loop_
 _symmetry_equiv_pos_site_id
 _symmetry_equiv_pos_as_xyz
  1  'x, y, z'
loop_
 _atom_site_type_symbol
 _atom_site_label
 _atom_site_symmetry_multiplicity
 _atom_site_fract_x
 _atom_site_fract_y
 _atom_site_fract_z
 _atom_site_occupancy
 _atom_site_hle17_bader_spin_density
 _atom_site_hle17_ddec_charge
 _atom_site_hle17_ddec_spin_density
 _atom_site_hle17_ddec_sum_bond_order
 _atom_site_hle17_magmom
 _atom_site_hse06_10hf_bader_spin_density
 _atom_site_hse06_10hf_ddec_charge
 _atom_site_hse06_10hf_ddec_spin_density
 _atom_site_hse06_10hf_ddec_sum_bond_order
 _atom_site_hse06_10hf_magmom
 _atom_site_hse06_bader_spin_density
 _atom_site_hse06_ddec_charge
 _atom_site_hse06_ddec_spin_density
 _atom_site_hse06_ddec_sum_bond_order
 _atom_site_hse06_magmom
 _atom_site_pbe_bader_spin_density
 _atom_site_pbe_cm5_charge
 _atom_site_pbe_ddec_charge
 _atom_site_pbe_ddec_spin_density
 _atom_site_pbe_ddec_sum_bond_order
 _atom_site_pbe_magmom
Tb  Tb0  1  0.31054886  0.54174393  0.91308107  1  0  2.287115  0  1.651749  0  0  2.140699  0  2.12035  0  0  2.264926  0  1.935434  0  0  1.523179  2.104493  0  2.151604  0
Tb  Tb1  1  0.68945471  0.45825493  0.08691918  1  0  2.287071  0  1.651814  0  0  2.140662  0  2.120402  0  0  2.264876  0  1.935512  0  0  1.523142  2.104441  0  2.151671  0
Tb  Tb2  1  0.37776773  0.26373456  0.26323488  1  0  2.159857  0  1.651229  0  0  1.980402  0  2.145852  0  0  2.036687  0  2.100313  0  0  1.506995  1.938271  0  2.1819  0
Tb  Tb3  1  0.62223834  0.73626080  0.73676486  1  0  2.15987  0  1.65124  0  0  1.9804  0  2.145891  0  0  2.036665  0  2.100374  0  0  1.507009  1.938247  0  2.181954  0
H  H4  1  0.53390650  0.34077590  0.99948072  1  0  0.447462  0  0.818141  0  0  0.424561  0  0.878078  0  0  0.434181  0  0.86772  0  0  0.326494  0.417576  0  0.886505  0
H  H5  1  0.46609407  0.65922386  0.00051902  1  0  0.447436  0  0.818145  0  0  0.42452  0  0.878095  0  0  0.434138  0  0.867764  0  0  0.3265  0.417542  0  0.886524  0
H  H6  1  0.38235759  0.34658932  0.07442221  1  0  0.45582  0  0.837099  0  0  0.425688  0  0.898659  0  0  0.43668  0  0.883021  0  0  0.315845  0.418085  0  0.909667  0
H  H7  1  0.61764462  0.65340955  0.92557760  1  0  0.455835  0  0.837082  0  0  0.425695  0  0.898653  0  0  0.436687  0  0.883014  0  0  0.315875  0.418113  0  0.909634  0
H  H8  1  0.68759899  0.72224099  0.13822671  1  0  0.127919  0  0.938436  0  0  0.136578  0  0.997233  0  0  0.140773  0  0.994594  0  0  0.117742  0.133569  0  0.999343  0
H  H9  1  0.31240704  0.27775872  0.86177205  1  0  0.12794  0  0.938422  0  0  0.136603  0  0.997219  0  0  0.140781  0  0.994602  0  0  0.117667  0.133536  0  0.999305  0
H  H10  1  0.66714270  0.78926413  0.25649984  1  0  0.062554  0  0.945466  0  0  0.071286  0  1.008769  0  0  0.073831  0  1.007699  0  0  0.104459  0.069429  0  1.009651  0
H  H11  1  0.33285758  0.21073650  0.74350027  1  0  0.062553  0  0.945475  0  0  0.071288  0  1.008771  0  0  0.073833  0  1.007702  0  0  0.104514  0.06949  0  1.009658  0
H  H12  1  0.22951505  0.65565789  0.27261974  1  0  0.06733  0  0.941603  0  0  0.077135  0  1.006812  0  0  0.079795  0  1.004315  0  0  0.110892  0.075199  0  1.008739  0
H  H13  1  0.77048279  0.34434189  0.72738021  1  0  0.067321  0  0.941519  0  0  0.077126  0  1.006735  0  0  0.079786  0  1.004238  0  0  0.1109  0.075244  0  1.00862  0
H  H14  1  0.21022006  0.02788623  0.84664563  1  0  0.105222  0  0.954167  0  0  0.114725  0  1.015212  0  0  0.118088  0  1.01423  0  0  0.107844  0.112327  0  1.01609  0
H  H15  1  0.78977490  0.97211438  0.15334666  1  0  0.105184  0  0.954139  0  0  0.11466  0  1.015229  0  0  0.11802  0  1.014253  0  0  0.107814  0.112265  0  1.016089  0
H  H16  1  0.94001168  0.12032003  0.92628676  1  0  0.072643  0  0.939542  0  0  0.079737  0  1.002324  0  0  0.0816  0  1.002324  0  0  0.109263  0.078427  0  1.00233  0
H  H17  1  0.05999000  0.87968490  0.07370676  1  0  0.072559  0  0.939687  0  0  0.079728  0  1.00238  0  0  0.081594  0  1.002363  0  0  0.109249  0.07841  0  1.002391  0
H  H18  1  0.65458130  0.86372415  0.95404139  1  0  0.087732  0  0.912626  0  0  0.096699  0  0.971056  0  0  0.100579  0  0.967346  0  0  0.117862  0.093849  0  0.973789  0
H  H19  1  0.34541292  0.13628261  0.04595782  1  0  0.087699  0  0.912638  0  0  0.096675  0  0.971077  0  0  0.100558  0  0.967363  0  0  0.11787  0.093858  0  0.973783  0
H  H20  1  0.58964447  0.46373642  0.63597068  1  0  0.116472  0  0.946245  0  0  0.126418  0  1.007092  0  0  0.130614  0  1.004623  0  0  0.110783  0.123408  0  1.00909  0
H  H21  1  0.41036159  0.53626327  0.36402588  1  0  0.116509  0  0.946193  0  0  0.126451  0  1.007043  0  0  0.130646  0  1.004575  0  0  0.110763  0.123374  0  1.009078  0
H  H22  1  0.53546311  0.36488398  0.54507381  1  0  0.063844  0  0.94593  0  0  0.073583  0  1.008956  0  0  0.075694  0  1.008117  0  0  0.107436  0.072031  0  1.009683  0
H  H23  1  0.46454181  0.63511921  0.45492316  1  0  0.063821  0  0.945909  0  0  0.07356  0  1.008934  0  0  0.075691  0  1.008075  0  0  0.107432  0.071994  0  1.009679  0
H  H24  1  0.97012116  0.51020787  0.56503322  1  0  0.084322  0  0.944481  0  0  0.087847  0  1.016593  0  0  0.091511  0  1.012568  0  0  0.113072  0.085162  0  1.019469  0
H  H25  1  0.02988217  0.48979185  0.43496410  1  0  0.084377  0  0.94446  0  0  0.087887  0  1.016596  0  0  0.091552  0  1.012573  0  0  0.113161  0.08526  0  1.019511  0
H  H26  1  0.36848340  0.04366422  0.19280624  1  0  0.070429  0  0.973666  0  0  0.077345  0  1.040555  0  0  0.07963  0  1.038452  0  0  0.117051  0.075652  0  1.042055  0
H  H27  1  0.63152183  0.95632943  0.80719671  1  0  0.070593  0  0.973423  0  0  0.077381  0  1.040438  0  0  0.079674  0  1.038336  0  0  0.117058  0.075673  0  1.04193  0
H  H28  1  0.27325076  0.85338078  0.22809408  1  0  0.105016  0  0.957052  0  0  0.114818  0  1.016407  0  0  0.116981  0  1.017489  0  0  0.107866  0.11328  0  1.015784  0
H  H29  1  0.72675003  0.14661380  0.77191287  1  0  0.105106  0  0.957002  0  0  0.114892  0  1.016378  0  0  0.117055  0  1.01746  0  0  0.107882  0.113361  0  1.015759  0
H  H30  1  0.16865003  0.75774813  0.36975676  1  0  0.102458  0  0.934603  0  0  0.115095  0  0.99329  0  0  0.117727  0  0.991225  0  0  0.112505  0.113156  0  0.994794  0
H  H31  1  0.83134445  0.24225344  0.63024746  1  0  0.102467  0  0.934549  0  0  0.115094  0  0.993258  0  0  0.117726  0  0.991198  0  0  0.112472  0.113144  0  0.994753  0
H  H32  1  0.14150422  0.75418120  0.51077498  1  0  0.093416  0  0.955475  0  0  0.104631  0  1.017277  0  0  0.106139  0  1.018918  0  0  0.101324  0.103514  0  1.016298  0
H  H33  1  0.85848257  0.24582305  0.48923090  1  0  0.093457  0  0.955429  0  0  0.104625  0  1.017278  0  0  0.106132  0  1.01892  0  0  0.101321  0.103487  0  1.016299  0
H  H34  1  0.16545263  0.84815399  0.60793249  1  0  0.12522  0  0.930587  0  0  0.134321  0  0.990789  0  0  0.137905  0  0.988702  0  0  0.114225  0.131673  0  0.992427  0
H  H35  1  0.83453826  0.15185022  0.39207252  1  0  0.12518  0  0.930621  0  0  0.134268  0  0.990857  0  0  0.137852  0  0.988767  0  0  0.114254  0.131642  0  0.992516  0
H  H36  1  0.22876056  0.01807817  0.63688043  1  0  0.122634  0  0.948405  0  0  0.134156  0  1.005349  0  0  0.13788  0  1.002159  0  0  0.11317  0.131409  0  1.007728  0
H  H37  1  0.77122867  0.98193559  0.36311816  1  0  0.122599  0  0.948411  0  0  0.134142  0  1.005343  0  0  0.137867  0  1.002148  0  0  0.113148  0.131406  0  1.007688  0
H  H38  1  0.30840742  0.21570788  0.58471956  1  0  0.107557  0  0.967703  0  0  0.1149  0  1.032642  0  0  0.117911  0  1.031908  0  0  0.105673  0.112666  0  1.033427  0
H  H39  1  0.69157864  0.78430326  0.41527547  1  0  0.107639  0  0.967576  0  0  0.114918  0  1.032574  0  0  0.117916  0  1.031854  0  0  0.105674  0.112702  0  1.033324  0
H  H40  1  0.38317488  0.29944764  0.44026540  1  0  0.086978  0  0.947981  0  0  0.090451  0  1.02002  0  0  0.093615  0  1.016123  0  0  0.12012  0.088032  0  1.022969  0
H  H41  1  0.61682734  0.70055556  0.55973068  1  0  0.086978  0  0.948004  0  0  0.090457  0  1.02004  0  0  0.093624  0  1.01614  0  0  0.120127  0.088047  0  1.022969  0
C  C42  1  0.00235174  0.61578198  0.06313371  1  0  0.735657  0  3.834784  0  0  0.686065  0  4.131628  0  0  0.721897  0  4.123935  0  0  0.246971  0.661781  0  4.139946  0
C  C43  1  0.99765342  0.38422036  0.93686672  1  0  0.735579  0  3.83482  0  0  0.686036  0  4.131576  0  0  0.721868  0  4.123886  0  0  0.24702  0.661771  0  4.139858  0
C  C44  1  0.98344281  0.65163386  0.13621047  1  0  -0.032218  0  3.683269  0  0  -0.023851  0  3.916424  0  0  -0.025697  0  3.932471  0  0  0.010843  -0.02247  0  3.904967  0
C  C45  1  0.01656103  0.34836414  0.86379050  1  0  -0.03222  0  3.683334  0  0  -0.023878  0  3.916432  0  0  -0.025723  0  3.932476  0  0  0.010855  -0.022493  0  3.904929  0
C  C46  1  0.81076911  0.70798534  0.16626834  1  0  -0.10956  0  3.694808  0  0  -0.134304  0  3.9469  0  0  -0.137247  0  3.964892  0  0  -0.070996  -0.132362  0  3.93474  0
C  C47  1  0.18923337  0.29201267  0.83373219  1  0  -0.109635  0  3.694929  0  0  -0.134396  0  3.947024  0  0  -0.137321  0  3.965017  0  0  -0.071083  -0.132484  0  3.934846  0
C  C48  1  0.80002522  0.74427540  0.23218310  1  0  0.106111  0  3.750864  0  0  0.082926  0  4.016249  0  0  0.086878  0  4.03358  0  0  0.038847  0.080323  0  4.004332  0
C  C49  1  0.19997671  0.25572435  0.76781709  1  0  0.106172  0  3.750918  0  0  0.082987  0  4.0163  0  0  0.086941  0  4.033622  0  0  0.038938  0.08038  0  4.004415  0
C  C50  1  0.11095079  0.67127900  0.24126191  1  0  0.100811  0  3.725705  0  0  0.065917  0  3.992112  0  0  0.070963  0  4.007827  0  0  0.047015  0.062608  0  3.98124  0
C  C51  1  0.88905597  0.32872681  0.75873706  1  0  0.100857  0  3.725624  0  0  0.065952  0  3.992014  0  0  0.071  0  4.007731  0  0  0.047108  0.062677  0  3.981187  0
C  C52  1  0.13744549  0.63144233  0.17538493  1  0  -0.085277  0  3.681121  0  0  -0.068942  0  3.91252  0  0  -0.074353  0  3.92928  0  0  0.005383  -0.065176  0  3.900581  0
C  C53  1  0.86255504  0.36855744  0.82461700  1  0  -0.085312  0  3.681211  0  0  -0.068907  0  3.912529  0  0  -0.07432  0  3.929291  0  0  0.005457  -0.065053  0  3.90056  0
C  C54  1  0.32753818  0.56990187  0.14947269  1  0  0.720324  0  3.858668  0  0  0.667714  0  4.153651  0  0  0.703392  0  4.147126  0  0  0.224022  0.642947  0  4.161613  0
C  C55  1  0.67246755  0.43009872  0.85052700  1  0  0.720275  0  3.858876  0  0  0.667616  0  4.153912  0  0  0.703296  0  4.147392  0  0  0.223849  0.642758  0  4.161789  0
C  C56  1  0.25774443  0.83268330  0.81081657  1  0  0.7029  0  3.848222  0  0  0.657612  0  4.134373  0  0  0.692644  0  4.123609  0  0  0.228496  0.634003  0  4.142009  0
C  C57  1  0.74225015  0.16731389  0.18918533  1  0  0.702853  0  3.848236  0  0  0.657599  0  4.134356  0  0  0.692623  0  4.123609  0  0  0.228432  0.633966  0  4.142017  0
C  C58  1  0.08557472  0.88517411  0.85589511  1  0  -0.00522  0  3.673077  0  0  0.004275  0  3.903847  0  0  0.00431  0  3.921668  0  0  0.014289  0.004334  0  3.891907  0
C  C59  1  0.91441878  0.11482655  0.14410279  1  0  -0.005148  0  3.672821  0  0  0.0043  0  3.903645  0  0  0.004336  0  3.921471  0  0  0.014268  0.004367  0  3.891701  0
C  C60  1  0.08943482  0.98846739  0.87016953  1  0  -0.12632  0  3.709324  0  0  -0.149017  0  3.957771  0  0  -0.154837  0  3.978155  0  0  -0.078663  -0.145293  0  3.94415  0
C  C61  1  0.91055983  0.01153410  0.12982479  1  0  -0.126213  0  3.709079  0  0  -0.148899  0  3.957587  0  0  -0.154719  0  3.977973  0  0  -0.078595  -0.145173  0  3.943936  0
C  C62  1  0.93855070  0.03974176  0.91472605  1  0  0.123438  0  3.749759  0  0  0.097273  0  4.018506  0  0  0.103245  0  4.03518  0  0  0.043588  0.093439  0  4.007118  0
C  C63  1  0.06144882  0.96026145  0.08526859  1  0  0.123358  0  3.749818  0  0  0.09716  0  4.018555  0  0  0.103137  0  4.035233  0  0  0.04352  0.093325  0  4.007148  0
C  C64  1  0.78079657  0.89805600  0.92975039  1  0  0.107497  0  3.715973  0  0  0.074992  0  3.980899  0  0  0.081023  0  3.995672  0  0  0.048836  0.071234  0  3.970594  0
C  C65  1  0.21920235  0.10194464  0.07024929  1  0  0.107617  0  3.715975  0  0  0.075073  0  3.98093  0  0  0.081104  0  3.995703  0  0  0.048837  0.071296  0  3.970644  0
C  C66  1  0.92451720  0.83906982  0.88519146  1  0  -0.131115  0  3.69145  0  0  -0.118244  0  3.929608  0  0  -0.12723  0  3.950355  0  0  -0.003629  -0.112622  0  3.915793  0
C  C67  1  0.07547930  0.16092562  0.11481123  1  0  -0.131215  0  3.69153  0  0  -0.11834  0  3.929709  0  0  -0.127329  0  3.950454  0  0  -0.003586  -0.112735  0  3.915939  0
C  C68  1  0.89261812  0.73505051  0.86864985  1  0  0.737474  0  3.814519  0  0  0.686582  0  4.109564  0  0  0.723136  0  4.097632  0  0  0.247129  0.662084  0  4.117704  0
C  C69  1  0.10738002  0.26494406  0.13135291  1  0  0.737384  0  3.814718  0  0  0.686546  0  4.10968  0  0  0.723104  0  4.097743  0  0  0.247102  0.662069  0  4.117839  0
C  C70  1  0.33035603  0.59030163  0.71755142  1  0  0.738688  0  3.844702  0  0  0.692547  0  4.13456  0  0  0.729219  0  4.121684  0  0  0.242391  0.667619  0  4.143991  0
C  C71  1  0.66965195  0.40969632  0.28244649  1  0  0.738765  0  3.84458  0  0  0.692579  0  4.134564  0  0  0.729242  0  4.121702  0  0  0.242495  0.667701  0  4.144063  0
C  C72  1  0.29731614  0.54079200  0.65733020  1  0  0.015869  0  3.659896  0  0  0.022462  0  3.890794  0  0  0.02534  0  3.906307  0  0  0.020602  0.020789  0  3.880177  0
C  C73  1  0.70268987  0.45920772  0.34266966  1  0  0.015944  0  3.659848  0  0  0.022443  0  3.890853  0  0  0.025295  0  3.906342  0  0  0.020544  0.020753  0  3.880154  0
C  C74  1  0.44953030  0.47308975  0.62307248  1  0  -0.151291  0  3.714496  0  0  -0.173772  0  3.968131  0  0  -0.18125  0  3.987534  0  0  -0.084066  -0.168954  0  3.955146  0
C  C75  1  0.55047242  0.52691173  0.37692725  1  0  -0.151331  0  3.714458  0  0  -0.17378  0  3.968112  0  0  -0.181261  0  3.987528  0  0  -0.084174  -0.169006  0  3.955113  0
C  C76  1  0.41912904  0.42011469  0.57134084  1  0  0.119057  0  3.774774  0  0  0.093469  0  4.039305  0  0  0.100568  0  4.056211  0  0  0.04101  0.089037  0  4.027677  0
C  C77  1  0.58087562  0.57988937  0.42865540  1  0  0.119059  0  3.774695  0  0  0.093485  0  4.03922  0  0  0.100568  0  4.056125  0  0  0.041027  0.089013  0  4.027639  0
C  C78  1  0.10670160  0.49853886  0.58257479  1  0  0.117475  0  3.703383  0  0  0.082882  0  3.964743  0  0  0.091069  0  3.978719  0  0  0.050894  0.077675  0  3.955248  0
C  C79  1  0.89330284  0.50145738  0.41742433  1  0  0.117429  0  3.703274  0  0  0.082822  0  3.964622  0  0  0.090972  0  3.978577  0  0  0.050953  0.077689  0  3.955154  0
C  C80  1  0.12077080  0.55247166  0.63732480  1  0  -0.118993  0  3.719011  0  0  -0.100277  0  3.947209  0  0  -0.110614  0  3.967652  0  0  -0.010501  -0.093924  0  3.933758  0
C  C81  1  0.87923775  0.44752454  0.36267290  1  0  -0.119228  0  3.719334  0  0  -0.100398  0  3.947426  0  0  -0.110626  0  3.96773  0  0  -0.010531  -0.094083  0  3.934038  0
C  C82  1  0.94821645  0.61892004  0.67214278  1  0  0.638216  0  3.938376  0  0  0.59271  0  4.228154  0  0  0.627298  0  4.220839  0  0  0.187541  0.569389  0  4.231964  0
C  C83  1  0.05178876  0.38107795  0.32785808  1  0  0.638199  0  3.938298  0  0  0.592704  0  4.228011  0  0  0.627263  0  4.220681  0  0  0.18755  0.569433  0  4.231885  0
C  C84  1  0.32482200  0.99952211  0.25364045  1  0  0.148296  0  3.726906  0  0  0.118101  0  3.983238  0  0  0.12551  0  4.000295  0  0  0.055034  0.11337  0  3.971409  0
C  C85  1  0.67517012  0.00047424  0.74636239  1  0  0.148223  0  3.726709  0  0  0.118149  0  3.982991  0  0  0.125544  0  4.000056  0  0  0.055005  0.1134  0  3.971173  0
C  C86  1  0.27289836  0.89178315  0.27405333  1  0  -0.122697  0  3.741292  0  0  -0.134896  0  3.995057  0  0  -0.142184  0  4.017828  0  0  -0.084771  -0.13019  0  3.979758  0
C  C87  1  0.72709782  0.10821318  0.72595083  1  0  -0.122908  0  3.741353  0  0  -0.135096  0  3.99508  0  0  -0.142384  0  4.017852  0  0  -0.084743  -0.130372  0  3.979805  0
C  C88  1  0.21771403  0.83888817  0.35199004  1  0  -0.047523  0  3.695093  0  0  -0.073269  0  3.946755  0  0  -0.070922  0  3.964953  0  0  -0.061765  -0.074594  0  3.934361  0
C  C89  1  0.78227722  0.16111081  0.64801393  1  0  -0.047496  0  3.695191  0  0  -0.073207  0  3.946882  0  0  -0.070861  0  3.965081  0  0  -0.061804  -0.074559  0  3.93451  0
C  C90  1  0.22412406  0.89126061  0.40934641  1  0  0.02095  0  3.799021  0  0  0.037371  0  4.028712  0  0  0.034942  0  4.053853  0  0  -0.001501  0.038873  0  4.011775  0
C  C91  1  0.77586664  0.10874010  0.59065666  1  0  0.020856  0  3.798941  0  0  0.037161  0  4.028782  0  0  0.03473  0  4.053919  0  0  -0.001556  0.038652  0  4.011838  0
C  C92  1  0.18291319  0.83796161  0.49161988  1  0  -0.110466  0  3.747636  0  0  -0.132794  0  4.006643  0  0  -0.137819  0  4.031472  0  0  -0.088997  -0.12939  0  3.98997  0
C  C93  1  0.81709307  0.16203725  0.50838235  1  0  -0.110378  0  3.747325  0  0  -0.132622  0  4.006365  0  0  -0.137641  0  4.031186  0  0  -0.088928  -0.129185  0  3.989646  0
C  C94  1  0.19467407  0.89037779  0.54531587  1  0  -0.070593  0  3.69089  0  0  -0.097738  0  3.952955  0  0  -0.098584  0  3.973199  0  0  -0.072852  -0.097069  0  3.939369  0
C  C95  1  0.80531906  0.10962379  0.45468735  1  0  -0.070563  0  3.69085  0  0  -0.097773  0  3.952891  0  0  -0.09861  0  3.97312  0  0  -0.072924  -0.097065  0  3.939294  0
C  C96  1  0.24604852  0.00115308  0.52042453  1  0  0.020664  0  3.780261  0  0  0.03754  0  4.012184  0  0  0.034448  0  4.036373  0  0  -0.001684  0.039362  0  3.995994  0
C  C97  1  0.75393861  0.99885026  0.47957768  1  0  0.020424  0  3.780412  0  0  0.037507  0  4.012137  0  0  0.034414  0  4.036327  0  0  -0.001636  0.039325  0  3.995973  0
C  C98  1  0.25679317  0.05905710  0.57399393  1  0  -0.033483  0  3.650594  0  0  -0.060476  0  3.900246  0  0  -0.057152  0  3.916486  0  0  -0.059197  -0.062429  0  3.889286  0
C  C99  1  0.74319718  0.94095317  0.42600590  1  0  -0.033467  0  3.650724  0  0  -0.060545  0  3.900324  0  0  -0.057219  0  3.916561  0  0  -0.05931  -0.062573  0  3.889431  0
C  C100  1  0.30401135  0.16672547  0.54552963  1  0  -0.120386  0  3.722755  0  0  -0.135841  0  3.981831  0  0  -0.143617  0  4.003059  0  0  -0.084367  -0.130846  0  3.967698  0
C  C101  1  0.69599027  0.83327949  0.45446775  1  0  -0.120437  0  3.722799  0  0  -0.13582  0  3.981902  0  0  -0.143585  0  4.00314  0  0  -0.084265  -0.130772  0  3.967761  0
C  C102  1  0.34440242  0.21507248  0.46414598  1  0  0.165583  0  3.695349  0  0  0.134937  0  3.955697  0  0  0.144339  0  3.970613  0  0  0.061972  0.128889  0  3.945428  0
C  C103  1  0.65559706  0.78493075  0.53585086  1  0  0.165589  0  3.695483  0  0  0.134933  0  3.955819  0  0  0.144331  0  3.970731  0  0  0.061965  0.128899  0  3.945514  0
C  C104  1  0.28594184  0.05750933  0.43912657  1  0  0.137468  0  3.773748  0  0  0.1329  0  4.012579  0  0  0.1374  0  4.034169  0  0  0.121466  0.129971  0  3.997894  0
C  C105  1  0.71405517  0.94248873  0.56087603  1  0  0.137669  0  3.773562  0  0  0.132987  0  4.01244  0  0  0.137489  0  4.034037  0  0  0.121473  0.130037  0  3.997734  0
C  C106  1  0.27549932  0.00148086  0.38273299  1  0  0.149444  0  3.745093  0  0  0.145995  0  3.981291  0  0  0.150572  0  4.001384  0  0  0.125619  0.142953  0  3.967581  0
C  C107  1  0.72449631  0.99851722  0.61727083  1  0  0.14943  0  3.744997  0  0  0.146019  0  3.981267  0  0  0.150595  0  4.001355  0  0  0.125683  0.143  0  3.967508  0
N  N108  1  0.94739968  0.72735090  0.26941291  1  0  -0.30505  0  3.076567  0  0  -0.273618  0  3.355122  0  0  -0.283113  0  3.370844  0  0  -0.322231  -0.266803  0  3.34411  0
N  N109  1  0.05260167  0.27265060  0.73058803  1  0  -0.305053  0  3.076605  0  0  -0.273617  0  3.355155  0  0  -0.283111  0  3.370875  0  0  -0.322206  -0.266749  0  3.344156  0
N  N110  1  0.78602473  0.99500383  0.94548443  1  0  -0.30795  0  3.043145  0  0  -0.279224  0  3.314183  0  0  -0.287864  0  3.325695  0  0  -0.327499  -0.273254  0  3.306084  0
N  N111  1  0.21397391  0.00500201  0.05451134  1  0  -0.307872  0  3.043071  0  0  -0.279144  0  3.314131  0  0  -0.287786  0  3.325642  0  0  -0.327467  -0.273189  0  3.306053  0
N  N112  1  0.25175880  0.43380828  0.54948110  1  0  -0.323617  0  3.093749  0  0  -0.288055  0  3.372394  0  0  -0.29963  0  3.385917  0  0  -0.324011  -0.280135  0  3.362962  0
N  N113  1  0.74824749  0.56619490  0.45051575  1  0  -0.323562  0  3.093568  0  0  -0.288006  0  3.372205  0  0  -0.29958  0  3.385743  0  0  -0.324114  -0.280158  0  3.362792  0
N  N114  1  0.31975344  0.05546921  0.30547126  1  0  -0.421872  0  3.243213  0  0  -0.369003  0  3.506246  0  0  -0.383567  0  3.523768  0  0  -0.372733  -0.358878  0  3.494071  0
N  N115  1  0.68024850  0.94452620  0.69453155  1  0  -0.421851  0  3.243216  0  0  -0.368965  0  3.50618  0  0  -0.383523  0  3.523702  0  0  -0.372692  -0.358804  0  3.493982  0
N  N116  1  0.33646653  0.16249229  0.41185690  1  0  -0.441651  0  3.241505  0  0  -0.389049  0  3.506123  0  0  -0.405695  0  3.525066  0  0  -0.376293  -0.377542  0  3.492948  0
N  N117  1  0.66353461  0.83750572  0.58814319  1  0  -0.44167  0  3.241522  0  0  -0.389045  0  3.506176  0  0  -0.405689  0  3.525121  0  0  -0.37628  -0.377535  0  3.492977  0
O  O118  1  0.16154943  0.60628387  0.02278130  1  0  -0.715298  0  2.03267  0  0  -0.665528  0  2.289616  0  0  -0.70076  0  2.275464  0  0  -0.375989  -0.647881  0  2.29668  0
O  O119  1  0.83845465  0.39371761  0.97721942  1  0  -0.715236  0  2.032676  0  0  -0.665469  0  2.289593  0  0  -0.700701  0  2.275447  0  0  -0.375975  -0.647809  0  2.296635  0
O  O120  1  0.85767007  0.59997610  0.04553439  1  0  -0.735871  0  2.058862  0  0  -0.687972  0  2.326087  0  0  -0.724175  0  2.311185  0  0  -0.409294  -0.670552  0  2.334122  0
O  O121  1  0.14233813  0.40002100  0.95446699  1  0  -0.735882  0  2.058967  0  0  -0.687967  0  2.326106  0  0  -0.724188  0  2.311237  0  0  -0.409311  -0.670539  0  2.33413  0
O  O122  1  0.44749023  0.63001022  0.11175101  1  0  -0.682179  0  1.965148  0  0  -0.63415  0  2.195649  0  0  -0.664828  0  2.183311  0  0  -0.351815  -0.617321  0  2.203163  0
O  O123  1  0.55251606  0.36998863  0.88824957  1  0  -0.682148  0  1.965167  0  0  -0.634104  0  2.195682  0  0  -0.664783  0  2.183339  0  0  -0.351714  -0.617244  0  2.203148  0
O  O124  1  0.36863222  0.45837584  0.16710652  1  0  -0.775202  0  2.111599  0  0  -0.715381  0  2.367925  0  0  -0.748735  0  2.358672  0  0  -0.399549  -0.696029  0  2.373616  0
O  O125  1  0.63137381  0.54162387  0.83289224  1  0  -0.775148  0  2.11163  0  0  -0.715345  0  2.368049  0  0  -0.748676  0  2.358743  0  0  -0.399607  -0.696073  0  2.373738  0
O  O126  1  0.34830275  0.73000182  0.84401708  1  0  -0.828202  0  2.205635  0  0  -0.764188  0  2.460514  0  0  -0.801102  0  2.446867  0  0  -0.447877  -0.745021  0  2.467325  0
O  O127  1  0.65169842  0.26999617  0.15598025  1  0  -0.828144  0  2.205556  0  0  -0.764174  0  2.460476  0  0  -0.801084  0  2.446838  0  0  -0.447849  -0.745035  0  2.467309  0
O  O128  1  0.32232408  0.89180400  0.74518995  1  0  -0.629452  0  1.950823  0  0  -0.586119  0  2.180414  0  0  -0.609496  0  2.171678  0  0  -0.32277  -0.569295  0  2.185506  0
O  O129  1  0.67767110  0.10819143  0.25481010  1  0  -0.62945  0  1.950916  0  0  -0.586112  0  2.18049  0  0  -0.609488  0  2.171758  0  0  -0.322817  -0.569333  0  2.185608  0
O  O130  1  0.01679151  0.64431227  0.87423318  1  0  -0.662752  0  2.086252  0  0  -0.618635  0  2.345662  0  0  -0.652139  0  2.332354  0  0  -0.35685  -0.602098  0  2.352065  0
O  O131  1  0.98320768  0.35568318  0.12577150  1  0  -0.662734  0  2.086299  0  0  -0.61864  0  2.345703  0  0  -0.65213  0  2.332366  0  0  -0.356803  -0.602064  0  2.352107  0
O  O132  1  0.72861747  0.74615803  0.85070584  1  0  -0.756022  0  2.034558  0  0  -0.69429  0  2.283144  0  0  -0.720116  0  2.269252  0  0  -0.383367  -0.675188  0  2.290959  0
O  O133  1  0.27138096  0.25383566  0.14929654  1  0  -0.755979  0  2.034678  0  0  -0.69428  0  2.283221  0  0  -0.720104  0  2.269323  0  0  -0.383374  -0.675186  0  2.291053  0
O  O134  1  0.29223937  0.53404746  0.78817422  1  0  -0.703596  0  2.085715  0  0  -0.657885  0  2.340277  0  0  -0.69504  0  2.330009  0  0  -0.37632  -0.63833  0  2.34418  0
O  O135  1  0.70776697  0.46595137  0.21182362  1  0  -0.703569  0  2.085853  0  0  -0.657838  0  2.340451  0  0  -0.694987  0  2.330187  0  0  -0.376299  -0.638282  0  2.344394  0
O  O136  1  0.40569820  0.67804404  0.69230953  1  0  -0.713912  0  2.05723  0  0  -0.665175  0  2.317274  0  0  -0.692032  0  2.30694  0  0  -0.394005  -0.645801  0  2.323982  0
O  O137  1  0.59430705  0.32195393  0.30768859  1  0  -0.713984  0  2.057114  0  0  -0.665211  0  2.317148  0  0  -0.692063  0  2.306814  0  0  -0.394046  -0.645839  0  2.323894  0
O  O138  1  0.95517745  0.69992333  0.69972108  1  0  -0.664256  0  1.94248  0  0  -0.618749  0  2.179335  0  0  -0.642801  0  2.17141  0  0  -0.373387  -0.601723  0  2.183948  0
O  O139  1  0.04482587  0.30007640  0.30027735  1  0  -0.664206  0  1.942323  0  0  -0.618681  0  2.179117  0  0  -0.642762  0  2.171249  0  0  -0.37332  -0.601589  0  2.183737  0
O  O140  1  0.79340719  0.59341543  0.67290448  1  0  -0.693248  0  2.040723  0  0  -0.643746  0  2.28765  0  0  -0.671439  0  2.283052  0  0  -0.38201  -0.624224  0  2.290021  0
O  O141  1  0.20659857  0.40658515  0.32709356  1  0  -0.693182  0  2.040623  0  0  -0.643714  0  2.287534  0  0  -0.671409  0  2.282948  0  0  -0.381857  -0.624093  0  2.289897  0
O  O142  1  0.45944445  0.39316154  0.03013277  1  0  -0.932662  0  1.965381  0  0  -0.881169  0  2.173518  0  0  -0.916915  0  2.142545  0  0  -0.626941  -0.866659  0  2.191885  0
O  O143  1  0.54055912  0.60683733  0.96986748  1  0  -0.932642  0  1.965333  0  0  -0.88111  0  2.173511  0  0  -0.916854  0  2.142553  0  0  -0.62687  -0.866507  0  2.191833  0
