# generated using pymatgen
data_TbAgH8C12(N2O5)2
_symmetry_space_group_name_H-M   'P 1'
_cell_length_a   6.77557802
_cell_length_b   9.23837912
_cell_length_c   15.04131402
_cell_angle_alpha   95.13228791
_cell_angle_beta   108.14143310
_cell_angle_gamma   103.51561683
_symmetry_Int_Tables_number   1
_chemical_formula_structural   TbAgH8C12(N2O5)2
_chemical_formula_sum   'Tb2 Ag2 H16 C24 N8 O20'
_cell_volume   856.42326063
_cell_formula_units_Z   2
loop_
 _symmetry_equiv_pos_site_id
 _symmetry_equiv_pos_as_xyz
  1  'x, y, z'
loop_
 _atom_site_type_symbol
 _atom_site_label
 _atom_site_symmetry_multiplicity
 _atom_site_fract_x
 _atom_site_fract_y
 _atom_site_fract_z
 _atom_site_occupancy
 _atom_site_hle17_bader_spin_density
 _atom_site_hle17_ddec_charge
 _atom_site_hle17_ddec_spin_density
 _atom_site_hle17_ddec_sum_bond_order
 _atom_site_hle17_magmom
 _atom_site_hse06_10hf_bader_spin_density
 _atom_site_hse06_10hf_ddec_charge
 _atom_site_hse06_10hf_ddec_spin_density
 _atom_site_hse06_10hf_ddec_sum_bond_order
 _atom_site_hse06_10hf_magmom
 _atom_site_hse06_bader_spin_density
 _atom_site_hse06_ddec_charge
 _atom_site_hse06_ddec_spin_density
 _atom_site_hse06_ddec_sum_bond_order
 _atom_site_hse06_magmom
 _atom_site_pbe_bader_spin_density
 _atom_site_pbe_cm5_charge
 _atom_site_pbe_ddec_charge
 _atom_site_pbe_ddec_spin_density
 _atom_site_pbe_ddec_sum_bond_order
 _atom_site_pbe_magmom
Tb  Tb0  1  0.08744298  0.51158151  0.27271799  1  0  2.21209  0  1.698298  0  0  2.058882  0  2.183242  0  0  2.10729  0  2.139307  0  0  1.502847  2.020959  0  2.218788  0
Tb  Tb1  1  0.91254044  0.48841176  0.72728909  1  0  2.212135  0  1.698079  0  0  2.05889  0  2.183064  0  0  2.107291  0  2.13914  0  0  1.502935  2.021035  0  2.218478  0
Ag  Ag2  1  0.40485726  0.17771449  0.19808509  1  0  0.616063  0  1.33676  0  0  0.485552  0  1.75934  0  0  0.51365  0  1.711372  0  0  0.489739  0.46757  0  1.79198  0
Ag  Ag3  1  0.59513944  0.82229852  0.80191319  1  0  0.616052  0  1.336643  0  0  0.485469  0  1.759286  0  0  0.513571  0  1.711321  0  0  0.489709  0.467483  0  1.791924  0
H  H4  1  0.66780493  0.72827730  0.16054302  1  0  0.101601  0  0.922396  0  0  0.108557  0  0.982179  0  0  0.112598  0  0.978503  0  0  0.128026  0.105549  0  0.984971  0
H  H5  1  0.33223208  0.27172040  0.83945067  1  0  0.101476  0  0.92241  0  0  0.108429  0  0.982196  0  0  0.112468  0  0.978521  0  0  0.127968  0.105421  0  0.984988  0
H  H6  1  0.58974868  0.65636113  0.98381091  1  0  0.099681  0  0.901401  0  0  0.112409  0  0.954456  0  0  0.115815  0  0.951576  0  0  0.130271  0.109803  0  0.956932  0
H  H7  1  0.41026066  0.34365420  0.01618304  1  0  0.099685  0  0.901334  0  0  0.112401  0  0.954417  0  0  0.115809  0  0.951537  0  0  0.130247  0.109795  0  0.956895  0
H  H8  1  0.56841150  0.04600737  0.38299329  1  0  0.09653  0  0.922937  0  0  0.105871  0  0.982646  0  0  0.109252  0  0.979172  0  0  0.130962  0.103252  0  0.985482  0
H  H9  1  0.43158116  0.95398645  0.61700092  1  0  0.09646  0  0.923017  0  0  0.105754  0  0.982795  0  0  0.109157  0  0.979295  0  0  0.130898  0.103141  0  0.985629  0
H  H10  1  0.72992000  0.13602650  0.56089992  1  0  0.104639  0  0.917438  0  0  0.113419  0  0.974436  0  0  0.116785  0  0.97157  0  0  0.134446  0.110873  0  0.976742  0
H  H11  1  0.27006916  0.86396621  0.43909445  1  0  0.104714  0  0.917409  0  0  0.113523  0  0.974344  0  0  0.116891  0  0.971487  0  0  0.134467  0.110969  0  0.976672  0
H  H12  1  0.04604870  0.61366650  0.08051208  1  0  0.430776  0  0.876371  0  0  0.397384  0  0.943275  0  0  0.409699  0  0.925322  0  0  0.292331  0.388698  0  0.955902  0
H  H13  1  0.95393356  0.38632737  0.91948425  1  0  0.430759  0  0.876385  0  0  0.397368  0  0.943297  0  0  0.409688  0  0.925338  0  0  0.292336  0.38868  0  0.955929  0
H  H14  1  0.89949555  0.44544449  0.06727574  1  0  0.44465  0  0.84935  0  0  0.415985  0  0.90844  0  0  0.426389  0  0.893183  0  0  0.304852  0.408621  0  0.919225  0
H  H15  1  0.10050921  0.55456135  0.93272555  1  0  0.444684  0  0.849293  0  0  0.416003  0  0.90841  0  0  0.426409  0  0.893149  0  0  0.304817  0.408638  0  0.919197  0
H  H16  1  0.40898040  0.76254043  0.29186496  1  0  0.437054  0  0.826488  0  0  0.417844  0  0.882547  0  0  0.427257  0  0.868907  0  0  0.320221  0.411168  0  0.890303  0
H  H17  1  0.59100921  0.23745684  0.70812985  1  0  0.437045  0  0.82656  0  0  0.417869  0  0.882548  0  0  0.427269  0  0.868894  0  0  0.320247  0.411199  0  0.890308  0
H  H18  1  0.23001178  0.82304044  0.22161730  1  0  0.442813  0  0.859344  0  0  0.411211  0  0.922504  0  0  0.423411  0  0.904962  0  0  0.295289  0.402633  0  0.934796  0
H  H19  1  0.76996063  0.17698192  0.77836362  1  0  0.442865  0  0.859319  0  0  0.411266  0  0.922467  0  0  0.423449  0  0.904948  0  0  0.295444  0.402701  0  0.934742  0
C  C20  1  0.69461509  0.81433322  0.11699683  1  0  0.106762  0  3.655357  0  0  0.08016  0  3.925712  0  0  0.084422  0  3.937708  0  0  0.067705  0.077304  0  3.917771  0
C  C21  1  0.30539294  0.18566502  0.88299554  1  0  0.106914  0  3.655342  0  0  0.080346  0  3.925673  0  0  0.084615  0  3.937662  0  0  0.067774  0.077485  0  3.917728  0
C  C22  1  0.65243839  0.77392232  0.01960559  1  0  0.101331  0  3.646694  0  0  0.065607  0  3.913367  0  0  0.069469  0  3.927488  0  0  0.062119  0.062672  0  3.904174  0
C  C23  1  0.34757107  0.22607796  0.98039111  1  0  0.101357  0  3.64648  0  0  0.065609  0  3.91311  0  0  0.069471  0  3.927224  0  0  0.062295  0.062669  0  3.903925  0
C  C24  1  0.76418128  0.02532759  0.00909559  1  0  0.022972  0  3.693785  0  0  0.018367  0  3.941833  0  0  0.015  0  3.963287  0  0  0.11067  0.020079  0  3.928048  0
C  C25  1  0.23580314  0.97467411  0.99090364  1  0  0.023111  0  3.693648  0  0  0.018379  0  3.94169  0  0  0.015014  0  3.963142  0  0  0.110657  0.020093  0  3.9279  0
C  C26  1  0.80682167  0.06368447  0.10697221  1  0  0.08285  0  3.686805  0  0  0.082513  0  3.941577  0  0  0.083459  0  3.955725  0  0  0.133641  0.08145  0  3.932783  0
C  C27  1  0.19317528  0.93632023  0.89303140  1  0  0.08255  0  3.686882  0  0  0.082369  0  3.941531  0  0  0.083302  0  3.955701  0  0  0.133631  0.08131  0  3.932733  0
C  C28  1  0.90179170  0.22415836  0.15968438  1  0  0.654845  0  3.901762  0  0  0.600547  0  4.195713  0  0  0.636702  0  4.184044  0  0  0.204703  0.575924  0  4.202879  0
C  C29  1  0.09820902  0.77583848  0.84031502  1  0  0.655003  0  3.901714  0  0  0.600548  0  4.195858  0  0  0.636714  0  4.184178  0  0  0.204635  0.575916  0  4.203029  0
C  C30  1  0.80123942  0.14107252  0.94660569  1  0  0.63677  0  3.909155  0  0  0.576425  0  4.214777  0  0  0.609306  0  4.211069  0  0  0.214505  0.554222  0  4.216597  0
C  C31  1  0.19876394  0.85893467  0.05339222  1  0  0.636725  0  3.908971  0  0  0.576485  0  4.214449  0  0  0.60937  0  4.210738  0  0  0.214526  0.554279  0  4.216272  0
C  C32  1  0.61706641  0.16568733  0.41349878  1  0  0.114029  0  3.607549  0  0  0.083235  0  3.860879  0  0  0.088199  0  3.873488  0  0  0.077105  0.079605  0  3.853065  0
C  C33  1  0.38295253  0.83430921  0.58650071  1  0  0.114312  0  3.607945  0  0  0.083485  0  3.861246  0  0  0.08843  0  3.873862  0  0  0.077171  0.079843  0  3.85344  0
C  C34  1  0.70443441  0.21480361  0.51154464  1  0  0.131145  0  3.638015  0  0  0.1008  0  3.897248  0  0  0.105086  0  3.910625  0  0  0.078602  0.097559  0  3.888622  0
C  C35  1  0.29561149  0.78519467  0.48845680  1  0  0.130871  0  3.638631  0  0  0.100588  0  3.897748  0  0  0.104863  0  3.911148  0  0  0.078546  0.097344  0  3.889124  0
C  C36  1  0.73396829  0.46084310  0.48871527  1  0  0.040948  0  3.720279  0  0  0.036595  0  3.972862  0  0  0.034588  0  3.991429  0  0  0.1214  0.037403  0  3.961072  0
C  C37  1  0.26602508  0.53915034  0.51128565  1  0  0.040804  0  3.720632  0  0  0.036506  0  3.973084  0  0  0.034492  0  3.991646  0  0  0.121391  0.037315  0  3.961293  0
C  C38  1  0.65081090  0.41181479  0.39003453  1  0  0.060375  0  3.651733  0  0  0.056808  0  3.897213  0  0  0.057885  0  3.912144  0  0  0.142489  0.055529  0  3.887897  0
C  C39  1  0.34918921  0.58818299  0.60996887  1  0  0.060385  0  3.651795  0  0  0.056823  0  3.897182  0  0  0.057908  0  3.91211  0  0  0.142444  0.055547  0  3.887859  0
C  C40  1  0.63150700  0.52209044  0.32096696  1  0  0.738532  0  3.865065  0  0  0.682313  0  4.173025  0  0  0.721147  0  4.154517  0  0  0.249368  0.655403  0  4.185006  0
C  C41  1  0.36849857  0.47790957  0.67903593  1  0  0.73852  0  3.865106  0  0  0.682299  0  4.173029  0  0  0.721131  0  4.154517  0  0  0.249431  0.655389  0  4.185011  0
C  C42  1  0.79686521  0.62693314  0.53287890  1  0  0.624641  0  3.97401  0  0  0.575521  0  4.284727  0  0  0.607248  0  4.279667  0  0  0.198892  0.5542  0  4.287136  0
C  C43  1  0.20313274  0.37307242  0.46712957  1  0  0.624707  0  3.9737  0  0  0.575619  0  4.284318  0  0  0.607353  0  4.27925  0  0  0.198991  0.554297  0  4.286729  0
N  N44  1  0.76756530  0.95876352  0.16044031  1  0  -0.25192  0  2.979234  0  0  -0.232331  0  3.246003  0  0  -0.237012  0  3.254532  0  0  -0.290026  -0.229262  0  3.240661  0
N  N45  1  0.23245251  0.04124103  0.83955972  1  0  -0.251868  0  2.979424  0  0  -0.232338  0  3.246155  0  0  -0.237021  0  3.254687  0  0  -0.290044  -0.229263  0  3.240809  0
N  N46  1  0.68418321  0.87911908  0.96627084  1  0  -0.25808  0  3.259499  0  0  -0.200035  0  3.539585  0  0  -0.210982  0  3.55485  0  0  -0.307279  -0.192434  0  3.529527  0
N  N47  1  0.31584250  0.12089135  0.03372394  1  0  -0.258038  0  3.259342  0  0  -0.199927  0  3.539365  0  0  -0.210871  0  3.554627  0  0  -0.307364  -0.192325  0  3.529311  0
N  N48  1  0.58825926  0.26321578  0.35268161  1  0  -0.24096  0  3.234383  0  0  -0.179254  0  3.518596  0  0  -0.189644  0  3.528261  0  0  -0.299135  -0.172494  0  3.512536  0
N  N49  1  0.41171362  0.73677901  0.64732171  1  0  -0.240998  0  3.23446  0  0  -0.179233  0  3.518576  0  0  -0.189631  0  3.528256  0  0  -0.299048  -0.172469  0  3.512503  0
N  N50  1  0.75908542  0.36170212  0.54873631  1  0  -0.359591  0  3.238508  0  0  -0.315179  0  3.508982  0  0  -0.323801  0  3.526033  0  0  -0.343816  -0.309105  0  3.497743  0
N  N51  1  0.24091253  0.63829325  0.45126997  1  0  -0.359475  0  3.238943  0  0  -0.315132  0  3.509369  0  0  -0.323748  0  3.526418  0  0  -0.343813  -0.309055  0  3.498139  0
O  O52  1  0.10375280  0.28548301  0.18190443  1  0  -0.687282  0  2.114682  0  0  -0.629071  0  2.391044  0  0  -0.656937  0  2.377499  0  0  -0.371587  -0.60929  0  2.399561  0
O  O53  1  0.89624907  0.71452218  0.81808847  1  0  -0.687338  0  2.114816  0  0  -0.629041  0  2.391179  0  0  -0.656904  0  2.377621  0  0  -0.371534  -0.609278  0  2.399721  0
O  O54  1  0.78149323  0.29486874  0.18367587  1  0  -0.680606  0  2.071945  0  0  -0.629842  0  2.343873  0  0  -0.657257  0  2.332413  0  0  -0.364581  -0.610383  0  2.350975  0
O  O55  1  0.21850030  0.70511304  0.81632876  1  0  -0.680623  0  2.07183  0  0  -0.629794  0  2.343799  0  0  -0.657214  0  2.332334  0  0  -0.364576  -0.610353  0  2.350929  0
O  O56  1  0.83568587  0.27956273  0.97959566  1  0  -0.628358  0  2.02724  0  0  -0.561894  0  2.244288  0  0  -0.589325  0  2.237043  0  0  -0.298354  -0.542806  0  2.248796  0
O  O57  1  0.16429440  0.72044223  0.02040803  1  0  -0.628348  0  2.027431  0  0  -0.561892  0  2.244408  0  0  -0.589318  0  2.237159  0  0  -0.298281  -0.542805  0  2.248917  0
O  O58  1  0.79696255  0.09095110  0.86452067  1  0  -0.621846  0  2.098789  0  0  -0.554644  0  2.348585  0  0  -0.583247  0  2.339221  0  0  -0.305501  -0.534846  0  2.354563  0
O  O59  1  0.20307981  0.90906373  0.13549374  1  0  -0.621788  0  2.098525  0  0  -0.554625  0  2.348246  0  0  -0.583235  0  2.338872  0  0  -0.305484  -0.534824  0  2.354239  0
O  O60  1  0.45214091  0.55171823  0.28845962  1  0  -0.732584  0  2.066709  0  0  -0.68054  0  2.326901  0  0  -0.706989  0  2.311364  0  0  -0.384674  -0.661097  0  2.336917  0
O  O61  1  0.54786955  0.44828431  0.71153739  1  0  -0.732575  0  2.066744  0  0  -0.680542  0  2.326952  0  0  -0.706991  0  2.311418  0  0  -0.384702  -0.661105  0  2.336957  0
O  O62  1  0.79251096  0.57009894  0.29541458  1  0  -0.707055  0  2.01413  0  0  -0.656221  0  2.269874  0  0  -0.683744  0  2.256775  0  0  -0.390025  -0.635802  0  2.278053  0
O  O63  1  0.20750040  0.42991132  0.70458784  1  0  -0.706994  0  2.01417  0  0  -0.656175  0  2.269922  0  0  -0.683693  0  2.256821  0  0  -0.390045  -0.635769  0  2.278094  0
O  O64  1  0.76350394  0.71995309  0.47916707  1  0  -0.549237  0  1.867119  0  0  -0.511756  0  2.071903  0  0  -0.534783  0  2.067342  0  0  -0.308257  -0.495508  0  2.074413  0
O  O65  1  0.23647159  0.28003908  0.52084166  1  0  -0.549237  0  1.866861  0  0  -0.511786  0  2.071619  0  0  -0.534813  0  2.06705  0  0  -0.308376  -0.495544  0  2.074145  0
O  O66  1  0.87955948  0.65385422  0.62431836  1  0  -0.747018  0  2.047802  0  0  -0.701011  0  2.308063  0  0  -0.726971  0  2.299786  0  0  -0.437721  -0.682379  0  2.313009  0
O  O67  1  0.12043872  0.34614039  0.37568055  1  0  -0.747117  0  2.047527  0  0  -0.701132  0  2.307762  0  0  -0.727098  0  2.299482  0  0  -0.437776  -0.682487  0  2.312717  0
O  O68  1  0.96061056  0.54327720  0.11125497  1  0  -0.936852  0  1.851228  0  0  -0.884256  0  2.045107  0  0  -0.904076  0  2.012078  0  0  -0.657048  -0.869667  0  2.068019  0
O  O69  1  0.03938724  0.45671963  0.88874542  1  0  -0.936877  0  1.851196  0  0  -0.884268  0  2.045058  0  0  -0.904089  0  2.012025  0  0  -0.657023  -0.869692  0  2.067982  0
O  O70  1  0.26358658  0.77438752  0.28063878  1  0  -0.899839  0  1.81534  0  0  -0.850104  0  2.003148  0  0  -0.870023  0  1.971797  0  0  -0.63228  -0.835524  0  2.023082  0
O  O71  1  0.73637018  0.22558948  0.71938049  1  0  -0.899729  0  1.81557  0  0  -0.85001  0  2.003355  0  0  -0.869903  0  1.971988  0  0  -0.632393  -0.835459  0  2.023277  0
