# generated using pymatgen
data_CuH22C18(N2Cl)2
_symmetry_space_group_name_H-M   'P 1'
_cell_length_a   8.13364593
_cell_length_b   7.95003189
_cell_length_c   8.83403848
_cell_angle_alpha   95.46094358
_cell_angle_beta   71.73179535
_cell_angle_gamma   78.57295489
_symmetry_Int_Tables_number   1
_chemical_formula_structural   CuH22C18(N2Cl)2
_chemical_formula_sum   'Cu1 H22 C18 N4 Cl2'
_cell_volume   524.04550240
_cell_formula_units_Z   1
loop_
 _symmetry_equiv_pos_site_id
 _symmetry_equiv_pos_as_xyz
  1  'x, y, z'
loop_
 _atom_site_type_symbol
 _atom_site_label
 _atom_site_symmetry_multiplicity
 _atom_site_fract_x
 _atom_site_fract_y
 _atom_site_fract_z
 _atom_site_occupancy
 _atom_site_hle17_ddec_charge
 _atom_site_hle17_ddec_spin_density
 _atom_site_hle17_ddec_sum_bond_order
 _atom_site_hle17_magmom
 _atom_site_hse06_10hf_ddec_charge
 _atom_site_hse06_10hf_ddec_spin_density
 _atom_site_hse06_10hf_ddec_sum_bond_order
 _atom_site_hse06_10hf_magmom
 _atom_site_hse06_ddec_charge
 _atom_site_hse06_ddec_spin_density
 _atom_site_hse06_ddec_sum_bond_order
 _atom_site_hse06_magmom
 _atom_site_pbe_cm5_charge
 _atom_site_pbe_ddec_charge
 _atom_site_pbe_ddec_spin_density
 _atom_site_pbe_ddec_sum_bond_order
 _atom_site_pbe_magmom
Cu  Cu0  1  0.00001027  0.00001052  0.99999614  1  0.697148  -0.599934  1.87921  -0.432  0.650688  -0.706801  2.319932  -0.549  0.74252  -0.771915  2.243378  -0.629  0.606109  0.59883  -0.667149  2.369158  -0.503
H  H1  1  0.97665077  0.61756054  0.09646074  1  0.122865  2.4e-05  0.965446  0.0  0.142617  6.1e-05  1.025337  0.0  0.144124  0.000114  1.024886  0.0  0.090718  0.141439  6e-06  1.025812  0.0
H  H2  1  0.02336033  0.38244612  0.90352361  1  0.122844  2.3e-05  0.965513  0.0  0.142624  6.1e-05  1.02538  0.0  0.144131  0.000114  1.024931  0.0  0.09073  0.141452  6e-06  1.025849  0.0
H  H3  1  0.86101925  0.63632718  0.30524895  1  0.120701  0.000149  0.94864  0.0  0.140584  4.2e-05  1.009379  0.0  0.142129  9e-05  1.009895  0.0  0.09325  0.139517  8e-06  1.008959  0.0
H  H4  1  0.13899619  0.36368647  0.69474951  1  0.120691  0.000147  0.948827  0.0  0.14065  4.2e-05  1.009461  0.0  0.142196  8.9e-05  1.009978  0.0  0.093262  0.139584  8e-06  1.009046  0.0
H  H5  1  0.07697247  0.49356620  0.21641263  1  0.109578  0.000355  0.941646  0.0  0.129051  0.000189  1.004407  0.0  0.130814  0.000202  1.003362  0.0  0.090447  0.127775  0.000178  1.005144  0.0
H  H6  1  0.92304073  0.50645120  0.78357380  1  0.109533  0.000354  0.941572  0.0  0.129024  0.00019  1.004334  0.0  0.130787  0.000202  1.00329  0.0  0.090431  0.127755  0.000178  1.005066  0.0
H  H7  1  0.46553951  0.94609785  0.38884697  1  0.132577  -0.000618  0.957144  0.0  0.154538  -0.000655  1.014351  0.0  0.156741  -0.00046  1.013765  0.0  0.093369  0.153096  -0.000809  1.014644  0.0
H  H8  1  0.53445462  0.05390782  0.61118197  1  0.132603  -0.000615  0.957375  0.0  0.154602  -0.000656  1.014493  0.0  0.156804  -0.00046  1.013912  0.0  0.093369  0.153161  -0.00081  1.014787  0.0
H  H9  1  0.26983622  0.01207247  0.56360037  1  0.125581  -0.000262  0.960014  -0.001  0.143435  -0.000144  1.025482  0.0  0.144652  -5.3e-05  1.026083  0.0  0.092571  0.14256  -0.000231  1.025073  -0.001
H  H10  1  0.73013674  0.98793219  0.43642833  1  0.125645  -0.00026  0.960181  -0.001  0.143487  -0.000144  1.025619  0.0  0.144706  -5.3e-05  1.026226  0.0  0.092582  0.142606  -0.000232  1.025227  -0.001
H  H11  1  0.31709205  0.15080253  0.41679239  1  0.117187  0.000118  0.94761  0.0  0.137068  8e-05  1.009229  0.0  0.138445  7.4e-05  1.009521  0.0  0.093819  0.136072  8.5e-05  1.009017  0.0
H  H12  1  0.68288630  0.84920617  0.58323529  1  0.117194  0.000119  0.947753  0.0  0.137082  8e-05  1.009341  0.0  0.138462  7.4e-05  1.009629  0.0  0.093857  0.136086  8.5e-05  1.009129  0.0
H  H13  1  0.06466787  0.59388924  0.50502644  1  0.072501  6.5e-05  0.958029  0.0  0.090876  1e-06  1.020852  0.0  0.09157  3e-06  1.020538  0.0  0.093471  0.090311  4e-06  1.021183  0.0
H  H14  1  0.93535188  0.40609301  0.49493389  1  0.072408  6.7e-05  0.957975  0.0  0.0909  1e-06  1.020655  0.0  0.091604  4e-06  1.020338  0.0  0.093462  0.090335  4e-06  1.020983  0.0
H  H15  1  0.08167839  0.77600285  0.62277727  1  0.078956  -0.000233  0.951443  0.0  0.089512  3e-05  1.024462  0.0  0.089891  9.4e-05  1.024655  0.0  0.0933  0.089005  -3.6e-05  1.024717  0.0
H  H16  1  0.91831660  0.22398451  0.37722710  1  0.079012  -0.000233  0.951306  0.0  0.089508  3e-05  1.0244  0.0  0.089892  9.4e-05  1.0246  0.0  0.093264  0.088999  -3.6e-05  1.024653  0.0
H  H17  1  0.31389985  0.73734333  0.72868453  1  0.082083  0.000516  0.984114  0.0  0.085221  0.000554  1.061635  0.0  0.087906  0.00059  1.059799  0.0  0.086765  0.082882  0.000507  1.063579  0.0
H  H18  1  0.68609166  0.26262099  0.27132462  1  0.081919  0.000518  0.984141  0.0  0.085027  0.000555  1.061712  0.0  0.087733  0.000591  1.059858  0.0  0.086674  0.082688  0.000507  1.063646  0.0
H  H19  1  0.60727143  0.57646386  0.72545211  1  0.088355  -5e-06  0.942127  0.0  0.102606  -2.2e-05  0.996748  0.0  0.105702  -1.6e-05  0.995082  0.0  0.098076  0.10038  -2.6e-05  0.998013  0.0
H  H20  1  0.39272680  0.42349298  0.27452237  1  0.088473  -7e-06  0.942095  0.0  0.102726  -2.2e-05  0.996718  0.0  0.105822  -1.6e-05  0.995053  0.0  0.098121  0.100496  -2.6e-05  0.997985  0.0
H  H21  1  0.25058652  0.06756133  0.14316557  1  0.285823  0.000671  0.917538  0.0  0.268446  0.000187  0.982028  0.0  0.276489  0.000201  0.975056  0.0  0.305913  0.262767  0.000146  0.987027  0.0
H  H22  1  0.74941399  0.93245782  0.85684179  1  0.285664  0.000671  0.917719  0.0  0.26825  0.000187  0.982251  0.0  0.276293  0.000201  0.975282  0.0  0.305852  0.262575  0.000145  0.987241  0.0
C  C23  1  0.99381910  0.62002722  0.21444450  1  -0.351296  0.000449  3.73615  0.0  -0.428908  0.000122  3.970797  0.0  -0.432113  0.000191  3.977377  0.0  -0.239678  -0.426454  3.3e-05  3.965885  0.0
C  C24  1  0.00619429  0.37997870  0.78554393  1  -0.351254  0.000453  3.736355  0.0  -0.428926  0.000121  3.970975  0.0  -0.43213  0.000192  3.977559  0.0  -0.239726  -0.42648  3.4e-05  3.966062  0.0
C  C25  1  0.07947486  0.76205217  0.24666979  1  0.232509  0.000433  3.721638  -0.002  0.229094  -0.002639  3.98783  -0.004  0.242169  -0.00108  4.007313  -0.003  0.100376  0.221035  -0.003757  3.974281  -0.005
C  C26  1  0.92053830  0.23796221  0.75332459  1  0.232424  0.000415  3.72164  -0.002  0.228893  -0.00264  3.987945  -0.004  0.241968  -0.001084  4.007432  -0.003  0.100254  0.220835  -0.003759  3.974397  -0.005
C  C27  1  0.15112873  0.78762938  0.37123374  1  -0.136125  -0.004958  3.717087  -0.005  -0.124378  -0.002364  3.97041  -0.003  -0.135353  -0.001737  3.99473  -0.002  -0.034379  -0.117306  -0.002874  3.953682  -0.003
C  C28  1  0.84889003  0.21237340  0.62875923  1  -0.13639  -0.004943  3.717279  -0.005  -0.124497  -0.002364  3.970521  -0.003  -0.135474  -0.001734  3.994859  -0.002  -0.034362  -0.117428  -0.002873  3.953797  -0.003
C  C29  1  0.22568800  0.93083437  0.34564126  1  0.256548  -0.003339  3.710674  -0.003  0.241279  -0.001482  3.977163  -0.002  0.253627  -0.000213  3.992985  -0.001  0.109951  0.2335  -0.002514  3.965759  -0.002
C  C30  1  0.77432764  0.06917300  0.65437073  1  0.256803  -0.003351  3.710228  -0.003  0.241409  -0.001486  3.976798  -0.002  0.253755  -0.000217  3.99262  -0.001  0.109888  0.233634  -0.002518  3.965397  -0.002
C  C31  1  0.32393390  0.01492278  0.43362486  1  -0.360122  -0.001223  3.70812  -0.001  -0.436073  -0.00141  3.942036  -0.001  -0.440049  -0.001012  3.949297  -0.001  -0.236982  -0.433074  -0.001723  3.936638  -0.002
C  C32  1  0.67606175  0.98508789  0.56640159  1  -0.360332  -0.001237  3.708669  -0.001  -0.436264  -0.001409  3.942535  -0.001  -0.440248  -0.001012  3.949803  -0.001  -0.236997  -0.433269  -0.001724  3.937133  -0.002
C  C33  1  0.14824988  0.68673320  0.50665840  1  -0.147051  -0.001057  3.760362  -0.001  -0.19519  -0.000776  4.00608  -0.001  -0.194483  -0.000564  4.020424  -0.001  -0.152118  -0.195421  -0.000969  3.996342  -0.001
C  C34  1  0.85174795  0.31325500  0.49334083  1  -0.146864  -0.001063  3.759875  -0.001  -0.195073  -0.000775  4.005551  -0.001  -0.194395  -0.000564  4.01994  -0.001  -0.151993  -0.195305  -0.000968  3.995812  -0.001
C  C35  1  0.33013433  0.59048468  0.50301082  1  0.083354  -9.4e-05  3.755669  0.0  0.10584  -3e-06  3.989866  0.0  0.104862  2.3e-05  4.015664  0.0  -0.014744  0.106482  -4.8e-05  3.972271  0.0
C  C36  1  0.66983576  0.40949416  0.49697449  1  0.083226  -5.4e-05  3.756377  0.0  0.105742  -4e-06  3.990472  0.0  0.104768  2.3e-05  4.016284  0.0  -0.01495  0.106391  -4.8e-05  3.972873  0.0
C  C37  1  0.39399317  0.63190494  0.62837828  1  -0.118467  3e-05  3.761873  0.0  -0.133244  0.000123  4.003517  0.0  -0.136267  0.000179  4.026447  0.0  -0.096337  -0.130976  6.4e-05  3.988041  0.0
C  C38  1  0.60598431  0.36809609  0.37162771  1  -0.118126  -9e-06  3.762566  0.0  -0.132853  0.000123  4.004103  0.0  -0.135884  0.000178  4.027004  0.0  -0.095999  -0.130587  6.4e-05  3.988614  0.0
C  C39  1  0.56114346  0.54249753  0.62554887  1  -0.120572  -0.000124  3.766065  0.0  -0.13947  -9.3e-05  4.010288  0.0  -0.141458  -6.3e-05  4.031096  0.0  -0.096261  -0.137981  -0.000134  3.995964  0.0
C  C40  1  0.43883258  0.45746728  0.37441321  1  -0.120744  -8.8e-05  3.76568  0.0  -0.139652  -9.3e-05  4.009953  0.0  -0.141647  -6.3e-05  4.03077  0.0  -0.096406  -0.138157  -0.000134  3.995626  0.0
N  N41  1  0.10749730  0.88471942  0.15123895  1  -0.289561  -0.070941  3.214185  -0.089  -0.263213  -0.052274  3.529154  -0.069  -0.294064  -0.044014  3.55167  -0.062  -0.288111  -0.245405  -0.056581  3.515994  -0.071
N  N42  1  0.89251361  0.11528955  0.84876605  1  -0.289619  -0.070936  3.21442  -0.089  -0.263246  -0.052275  3.529409  -0.069  -0.294096  -0.044015  3.551932  -0.062  -0.288174  -0.245434  -0.056582  3.516243  -0.071
N  N43  1  0.19535980  0.98491517  0.21467835  1  -0.222244  0.000484  3.510267  0.001  -0.170017  -0.000382  3.747969  0.0  -0.181706  0.000277  3.767686  0.0  -0.298961  -0.162141  -0.000859  3.735177  0.0
N  N44  1  0.80465413  0.01511003  0.78533095  1  -0.221866  0.000484  3.510486  0.001  -0.169561  -0.00038  3.748183  0.0  -0.181248  0.000276  3.767908  0.0  -0.298695  -0.161695  -0.000859  3.735392  0.0
Cl  Cl45  1  0.25989370  0.08477426  0.89180534  1  -0.511837  -0.120477  0.928489  -0.144  -0.495175  -0.08574  1.191216  -0.108  -0.525035  -0.066864  1.166759  -0.092  -0.287535  -0.477637  -0.096888  1.208403  -0.116
Cl  Cl46  1  0.74011580  0.91524916  0.10818998  1  -0.511735  -0.120486  0.928409  -0.144  -0.495042  -0.085747  1.191087  -0.108  -0.524908  -0.06687  1.166648  -0.092  -0.287472  -0.477501  -0.096895  1.208268  -0.116
