# generated using pymatgen
data_Zn2H29C31N5O9
_symmetry_space_group_name_H-M   'P 1'
_cell_length_a   7.22330535
_cell_length_b   15.92576671
_cell_length_c   16.13853058
_cell_angle_alpha   112.06182932
_cell_angle_beta   92.82994509
_cell_angle_gamma   96.43540117
_symmetry_Int_Tables_number   1
_chemical_formula_structural   Zn2H29C31N5O9
_chemical_formula_sum   'Zn4 H58 C62 N10 O18'
_cell_volume   1701.29055670
_cell_formula_units_Z   2
loop_
 _symmetry_equiv_pos_site_id
 _symmetry_equiv_pos_as_xyz
  1  'x, y, z'
loop_
 _atom_site_type_symbol
 _atom_site_label
 _atom_site_symmetry_multiplicity
 _atom_site_fract_x
 _atom_site_fract_y
 _atom_site_fract_z
 _atom_site_occupancy
 _atom_site_pbe_bader_charge
 _atom_site_pbe_bader_spin_density
 _atom_site_pbe_cm5_charge
 _atom_site_pbe_ddec_charge
 _atom_site_pbe_ddec_spin_density
 _atom_site_pbe_ddec_sum_bond_order
 _atom_site_pbe_magmom
Zn  Zn0  1  0.86284081  0.45216254  0.26886842  1  1.27754  0  0.683526  0.827968  0  2.316035  0
Zn  Zn1  1  0.13715002  0.54784484  0.73113674  1  1.277554  0  0.683508  0.827799  0  2.316174  0
Zn  Zn2  1  0.63767551  0.24089607  0.01513197  1  1.288361  0  0.693043  0.840411  0  2.267076  0
Zn  Zn3  1  0.36234620  0.75909993  0.98486105  1  1.288508  0  0.693046  0.840453  0  2.267053  0
H  H4  1  0.27867211  0.34759104  0.18565535  1  0.124647  0  0.1095  0.118201  0  1.00749  0
H  H5  1  0.72131622  0.65241295  0.81435163  1  0.124801  0  0.109521  0.118196  0  1.007596  0
H  H6  1  0.85931458  0.08695614  0.27380273  1  0.034876  0  0.098351  0.144193  0  0.990635  0
H  H7  1  0.14068091  0.91304019  0.72619665  1  0.034426  0  0.098334  0.144124  0  0.990643  0
H  H8  1  0.82282429  0.07765602  0.15994314  1  0.058571  0  0.087878  0.130689  0  1.042121  0
H  H9  1  0.17717417  0.92234510  0.84005929  1  0.058535  0  0.087855  0.130652  0  1.042148  0
H  H10  1  0.73745024  0.16658361  0.24659761  1  0.078557  0  0.095635  0.146491  0  1.029468  0
H  H11  1  0.26254411  0.83341346  0.75340697  1  0.078587  0  0.09561  0.14645  0  1.029548  0
H  H12  1  0.37805625  0.18812189  0.42887618  1  0.046605  0  0.096555  0.137892  0  1.017336  0
H  H13  1  0.62193767  0.81186551  0.57111868  1  0.046695  0  0.096554  0.137893  0  1.017344  0
H  H14  1  0.53863026  0.28694770  0.43745965  1  0.072974  0  0.089806  0.134032  0  1.026854  0
H  H15  1  0.46137193  0.71304790  0.56254333  1  0.072816  0  0.089871  0.134186  0  1.026966  0
H  H16  1  0.57084960  0.17772467  0.36286087  1  0.056397  0  0.101611  0.151426  0  0.993114  0
H  H17  1  0.42914660  0.82226960  0.63713840  1  0.056358  0  0.101602  0.151399  0  0.993131  0
H  H18  1  0.96241192  0.38588016  0.41596769  1  0.164835  0  0.122115  0.106632  0  1.016573  0
H  H19  1  0.03757681  0.61413342  0.58403968  1  0.164854  0  0.122138  0.106623  0  1.016566  0
H  H20  1  0.24057973  0.40525629  0.52084295  1  0.158319  0  0.11463  0.136928  0  1.038837  0
H  H21  1  0.75941228  0.59475043  0.47916695  1  0.157939  0  0.114586  0.136829  0  1.03884  0
H  H22  1  0.52916828  0.57920117  0.40072047  1  0.136544  0  0.114835  0.132322  0  1.022937  0
H  H23  1  0.47083036  0.42080469  0.59927687  1  0.136618  0  0.114823  0.132326  0  1.022889  0
H  H24  1  0.23439789  0.55570898  0.30596815  1  0.109046  0  0.11765  0.084409  0  1.017223  0
H  H25  1  0.76559429  0.44429831  0.69402833  1  0.109068  0  0.117647  0.084396  0  1.017313  0
H  H26  1  0.05092260  0.86732164  0.52652315  1  0.074966  0  0.096428  0.140457  0  1.002901  0
H  H27  1  0.94905993  0.13268163  0.47347228  1  0.07511  0  0.096413  0.140452  0  1.002921  0
H  H28  1  0.06604713  0.74734558  0.49142435  1  0.057788  0  0.095126  0.143245  0  0.984202  0
H  H29  1  0.93393796  0.25265286  0.50856876  1  0.057617  0  0.095182  0.143268  0  0.984438  0
H  H30  1  0.84924922  0.78254122  0.47821715  1  0.069221  0  0.095626  0.142856  0  1.012442  0
H  H31  1  0.15072756  0.21746143  0.52177730  1  0.069442  0  0.095571  0.142807  0  1.012345  0
H  H32  1  0.26366718  0.02496186  0.39083721  1  0.094697  0  0.095001  0.137257  0  1.009058  0
H  H33  1  0.73632227  0.97504138  0.60916208  1  0.094673  0  0.094957  0.13717  0  1.009143  0
H  H34  1  0.17834917  0.00642007  0.27896989  1  0.067534  0  0.09299  0.138744  0  1.019713  0
H  H35  1  0.82164536  0.99358173  0.72102836  1  0.067617  0  0.093025  0.138747  0  1.01968  0
H  H36  1  0.40236134  0.98110577  0.29824797  1  0.066978  0  0.096077  0.147198  0  0.987145  0
H  H37  1  0.59762624  0.01890435  0.70175316  1  0.066816  0  0.096092  0.14716  0  0.987105  0
H  H38  1  0.04936057  0.66487595  0.16451489  1  0.119757  0  0.106599  0.112075  0  1.020706  0
H  H39  1  0.95065192  0.33512567  0.83548431  1  0.119776  0  0.106594  0.112098  0  1.020613  0
H  H40  1  0.53661706  0.10449692  0.09573810  1  0.105503  0  0.120921  0.095105  0  1.016994  0
H  H41  1  0.46340280  0.89550602  0.90426484  1  0.105438  0  0.120961  0.09517  0  1.017066  0
H  H42  1  0.26376814  0.99454042  0.09283796  1  0.17031  0  0.116025  0.140721  0  1.023016  0
H  H43  1  0.73623838  0.00546408  0.90717021  1  0.170337  0  0.116007  0.140712  0  1.023064  0
H  H44  1  0.96004517  0.09082114  0.91465189  1  0.158224  0  0.111665  0.123055  0  1.04909  0
H  H45  1  0.03995351  0.90917647  0.08534121  1  0.158125  0  0.111704  0.123009  0  1.04932  0
H  H46  1  0.24799106  0.19585624  0.92542208  1  0.117117  0  0.123943  0.096  0  0.975181  0
H  H47  1  0.75203090  0.80413216  0.07456260  1  0.116504  0  0.123945  0.095952  0  0.975297  0
H  H48  1  0.66399888  0.46024472  0.12029588  1  0.155242  0  0.126758  0.05644  0  1.025898  0
H  H49  1  0.33600197  0.53974266  0.87970470  1  0.155217  0  0.126776  0.056403  0  1.025867  0
H  H50  1  0.18953023  0.38843750  0.01261434  1  0.091574  0  0.112089  0.136562  0  0.998534  0
H  H51  1  0.81046499  0.61155806  0.98737546  1  0.091683  0  0.11207  0.136526  0  0.998588  0
H  H52  1  0.18586901  0.49973350  0.00936908  1  0.039469  0  0.106786  0.12153  0  0.991403  0
H  H53  1  0.81414578  0.50027086  0.99063364  1  0.039628  0  0.106765  0.121511  0  0.991423  0
H  H54  1  0.11270298  0.47786914  0.10433170  1  0.0947  0  0.107757  0.140008  0  1.008018  0
H  H55  1  0.88730582  0.52212974  0.89566146  1  0.094491  0  0.107761  0.139978  0  1.007948  0
H  H56  1  0.60763835  0.59884187  0.17391381  1  0.07077  0  0.110342  0.129597  0  1.007593  0
H  H57  1  0.39237123  0.40115093  0.82609078  1  0.070924  0  0.110342  0.129622  0  1.007523  0
H  H58  1  0.37587159  0.60777390  0.20768518  1  0.073999  0  0.105653  0.123007  0  0.992839  0
H  H59  1  0.62412831  0.39221481  0.79230967  1  0.073815  0  0.10565  0.123049  0  0.992753  0
H  H60  1  0.43242688  0.62839210  0.11044847  1  0.093969  0  0.104128  0.128797  0  1.020271  0
H  H61  1  0.56757924  0.37159864  0.88955034  1  0.093741  0  0.104152  0.128879  0  1.020129  0
C  C62  1  0.57724937  0.34175021  0.28687348  1  1.53877  0  0.195882  0.568369  0  4.215462  0
C  C63  1  0.42274383  0.65825172  0.71313843  1  1.538334  0  0.195899  0.568351  0  4.215639  0
C  C64  1  0.38658701  0.28903903  0.27473294  1  0.011637  0  -0.026315  -0.1605  0  3.957337  0
C  C65  1  0.61341333  0.71095936  0.72527411  1  0.011224  0  -0.02643  -0.160656  0  3.957693  0
C  C66  1  0.24674917  0.29954304  0.21801614  1  -0.122177  0  -0.069598  -0.063361  0  3.980477  0
C  C67  1  0.75325691  0.70045594  0.78198692  1  -0.122242  0  -0.069525  -0.063252  0  3.98083  0
C  C68  1  0.06852288  0.24966533  0.20256036  1  0.025432  0  -0.024834  -0.167861  0  3.966046  0
C  C69  1  0.93148204  0.75033435  0.79744293  1  0.02516  0  -0.024824  -0.167799  0  3.966058  0
C  C70  1  0.03494938  0.18645350  0.24440598  1  0.56893  0  0.137653  0.329332  0  3.92661  0
C  C71  1  0.96504541  0.81354490  0.75559476  1  0.569137  0  0.13767  0.329299  0  3.926674  0
C  C72  1  0.85270559  0.12544580  0.23022495  1  -0.062831  0  -0.244943  -0.460475  0  3.932054  0
C  C73  1  0.14729081  0.87455327  0.76977669  1  -0.062359  0  -0.244898  -0.460339  0  3.932009  0
C  C74  1  0.33711021  0.23036698  0.32021119  1  0.541379  0  0.136158  0.316002  0  3.930151  0
C  C75  1  0.66289105  0.76963001  0.67979352  1  0.541343  0  0.136  0.315852  0  3.930025  0
C  C76  1  0.46306954  0.22063705  0.39188580  1  -0.05997  0  -0.239626  -0.44914  0  3.934004  0
C  C77  1  0.53691930  0.77935594  0.60811532  1  -0.060044  0  -0.239609  -0.449181  0  3.934134  0
C  C78  1  0.09082091  0.42937104  0.41711013  1  0.441247  0  0.049307  0.093258  0  3.936947  0
C  C79  1  0.90917684  0.57063211  0.58288993  1  0.440788  0  0.049259  0.093125  0  3.937042  0
C  C80  1  0.24934657  0.43986840  0.47416021  1  -0.032765  0  -0.073892  -0.1603  0  3.892665  0
C  C81  1  0.75065121  0.56013065  0.52584083  1  -0.031939  0  -0.073833  -0.159978  0  3.89282  0
C  C82  1  0.41340760  0.49454497  0.47097417  1  -0.004598  0  0.019063  0.107249  0  3.940525  0
C  C83  1  0.58658624  0.50545891  0.52902668  1  -0.041463  0  0.01899  0.106844  0  3.940817  0
C  C84  1  0.40708762  0.53762991  0.40941722  1  0.054251  0  -0.071848  -0.150589  0  3.907532  0
C  C85  1  0.59291311  0.46237388  0.59058065  1  0.053925  0  -0.071767  -0.150472  0  3.907537  0
C  C86  1  0.24302548  0.52420794  0.35513334  1  0.397551  0  0.049966  0.102133  0  3.927035  0
C  C87  1  0.75697753  0.47579856  0.64486434  1  0.398025  0  0.04989  0.102053  0  3.927314  0
C  C88  1  0.91085162  0.62820254  0.29989950  1  1.541045  0  0.193322  0.56276  0  4.237056  0
C  C89  1  0.08914449  0.37180403  0.70009805  1  1.541088  0  0.193155  0.562498  0  4.237392  0
C  C90  1  0.00378014  0.71857225  0.30436703  1  0.006472  0  -0.031186  -0.16886  0  3.967904  0
C  C91  1  0.99621760  0.28143089  0.69563116  1  0.006668  0  -0.031181  -0.168968  0  3.968121  0
C  C92  1  0.04119437  0.79773642  0.38506665  1  0.579341  0  0.137369  0.328605  0  3.923487  0
C  C93  1  0.95879161  0.20226889  0.61493084  1  0.579313  0  0.137362  0.328592  0  3.923543  0
C  C94  1  0.99981050  0.79919006  0.47569407  1  -0.089677  0  -0.238644  -0.447278  0  3.947836  0
C  C95  1  0.00017020  0.20081187  0.52430207  1  -0.089946  0  -0.238651  -0.447225  0  3.94795  0
C  C96  1  0.17838509  0.88531991  0.30931976  1  0.547962  0  0.139126  0.331614  0  3.919479  0
C  C97  1  0.82161176  0.11468050  0.69067928  1  0.547019  0  0.139069  0.331504  0  3.919576  0
C  C98  1  0.26091167  0.97977821  0.32015255  1  -0.09628  0  -0.242133  -0.453559  0  3.960446  0
C  C99  1  0.73907940  0.02022569  0.67984701  1  -0.096082  0  -0.242127  -0.453393  0  3.96048  0
C  C100  1  0.15849111  0.80781386  0.22727671  1  -0.015457  0  -0.029331  -0.161085  0  3.953657  0
C  C101  1  0.84151124  0.19219062  0.77272393  1  -0.014926  0  -0.02941  -0.161199  0  3.953368  0
C  C102  1  0.06802265  0.72537706  0.22668426  1  -0.129468  0  -0.072252  -0.068181  0  3.995868  0
C  C103  1  0.93197415  0.27462745  0.77331255  1  -0.129799  0  -0.072175  -0.06809  0  3.995637  0
C  C104  1  0.23582128  0.80892342  0.14357326  1  1.522434  0  0.195246  0.569264  0  4.216301  0
C  C105  1  0.76419423  0.19107476  0.85642785  1  1.522512  0  0.195374  0.56944  0  4.216169  0
C  C106  1  0.92262573  0.26828522  0.14578847  1  1.554371  0  0.218324  0.606165  0  4.154859  0
C  C107  1  0.07738012  0.73171724  0.85422018  1  1.555167  0  0.218186  0.606032  0  4.154775  0
C  C108  1  0.40531051  0.09864295  0.05653881  1  0.498309  0  0.050975  0.095162  0  3.935159  0
C  C109  1  0.59470247  0.90135178  0.94345541  1  0.498381  0  0.050959  0.095227  0  3.935336  0
C  C110  1  0.25037727  0.03768791  0.05469511  1  -0.042448  0  -0.0713  -0.156724  0  3.883701  0
C  C111  1  0.74962717  0.96231450  0.94530668  1  -0.042518  0  -0.071315  -0.156746  0  3.883702  0
C  C112  1  0.08428394  0.03225927  0.00274359  1  -0.04738  0  0.021143  0.109403  0  3.942404  0
C  C113  1  0.91572947  0.96774097  0.99725451  1  -0.085589  0  0.021196  0.10949  0  3.942352  0
C  C114  1  0.08421366  0.09060019  0.95555473  1  0.020699  0  -0.073182  -0.154585  0  3.912381  0
C  C115  1  0.91580162  0.90939312  0.04443592  1  0.020936  0  -0.073222  -0.154582  0  3.912554  0
C  C116  1  0.24471923  0.14964080  0.96103396  1  0.434295  0  0.053171  0.10088  0  3.93244  0
C  C117  1  0.75529975  0.85034696  0.03895228  1  0.434638  0  0.05327  0.101183  0  3.932273  0
C  C118  1  0.52272946  0.43021165  0.08609208  1  1.337312  0  0.182262  0.310868  0  4.072188  0
C  C119  1  0.47726722  0.56978405  0.91391577  1  1.337077  0  0.182251  0.310957  0  4.072012  0
C  C120  1  0.21120864  0.46203517  0.05264584  1  0.268695  0  -0.133027  -0.276413  0  3.853111  0
C  C121  1  0.78880617  0.53796093  0.94735016  1  0.268457  0  -0.133015  -0.276356  0  3.853134  0
C  C122  1  0.45884808  0.58695516  0.14979258  1  0.252135  0  -0.129143  -0.273197  0  3.867955  0
C  C123  1  0.54116540  0.41303688  0.85020749  1  0.252278  0  -0.12921  -0.273399  0  3.867824  0
N  N124  1  0.08691742  0.47089986  0.35824039  1  -1.257428  0  -0.330217  -0.241635  0  3.609134  0
N  N125  1  0.91307892  0.52911157  0.64176512  1  -1.257301  0  -0.330147  -0.241414  0  3.609237  0
N  N126  1  0.16612255  0.18070155  0.30324167  1  -1.219227  0  -0.313666  -0.36136  0  3.229928  0
N  N127  1  0.83387892  0.81929610  0.69675956  1  -1.218891  0  -0.31363  -0.361329  0  3.230057  0
N  N128  1  0.12343919  0.87765868  0.38494873  1  -1.210307  0  -0.321536  -0.371917  0  3.218618  0
N  N129  1  0.87655324  0.12234933  0.61505174  1  -1.209678  0  -0.321455  -0.371796  0  3.218631  0
N  N130  1  0.40378731  0.15361868  0.01040987  1  -1.252509  0  -0.329256  -0.232871  0  3.590879  0
N  N131  1  0.59622453  0.84637261  0.98958122  1  -1.252254  0  -0.329362  -0.233256  0  3.590929  0
N  N132  1  0.40341028  0.49019427  0.09475329  1  -1.206983  0  -0.275964  0.037467  0  3.719269  0
N  N133  1  0.59659813  0.50979919  0.90524781  1  -1.206628  0  -0.275978  0.037398  0  3.719307  0
O  O134  1  0.71452045  0.32320605  0.32428558  1  -1.182587  0  -0.307396  -0.541041  0  2.192374  0
O  O135  1  0.28546448  0.67680016  0.67573699  1  -1.182493  0  -0.307334  -0.540948  0  2.192434  0
O  O136  1  0.59300690  0.40635151  0.25555713  1  -1.156369  0  -0.332368  -0.56551  0  2.338669  0
O  O137  1  0.40698885  0.59364556  0.74445058  1  -1.155715  0  -0.332392  -0.56546  0  2.33869  0
O  O138  1  0.91895715  0.35014742  0.15100910  1  -1.182498  0  -0.320608  -0.565013  0  2.316708  0
O  O139  1  0.08102845  0.64985249  0.84899695  1  -1.183381  0  -0.320554  -0.564959  0  2.316677  0
O  O140  1  0.93134089  0.55664586  0.22877021  1  -1.18747  0  -0.343435  -0.588103  0  2.290826  0
O  O141  1  0.06866630  0.44335649  0.77122790  1  -1.187316  0  -0.343361  -0.587958  0  2.291165  0
O  O142  1  0.82195373  0.62077181  0.36238143  1  -1.186702  0  -0.313996  -0.551134  0  2.199074  0
O  O143  1  0.17802577  0.37923489  0.63761022  1  -1.18691  0  -0.313896  -0.550941  0  2.198978  0
O  O144  1  0.80600325  0.20127248  0.09174299  1  -1.166257  0  -0.301848  -0.521776  0  2.338171  0
O  O145  1  0.19401708  0.79872768  0.90825523  1  -1.166435  0  -0.301773  -0.521696  0  2.337973  0
O  O146  1  0.30700178  0.88194401  0.13730416  1  -1.175562  0  -0.318632  -0.555335  0  2.174527  0
O  O147  1  0.69300429  0.11805914  0.86270537  1  -1.175657  0  -0.3187  -0.555401  0  2.174544  0
O  O148  1  0.22845310  0.72981523  0.07737775  1  -1.159834  0  -0.34023  -0.567077  0  2.276024  0
O  O149  1  0.77156376  0.27018702  0.92261991  1  -1.159764  0  -0.340293  -0.567165  0  2.276038  0
O  O150  1  0.47921794  0.34540437  0.04160939  1  -1.187275  0  -0.307609  -0.477865  0  2.448766  0
O  O151  1  0.52077411  0.65458992  0.95838794  1  -1.187152  0  -0.307525  -0.477759  0  2.448812  0
