# generated using pymatgen
data_UH38C33(N6O7)2
_symmetry_space_group_name_H-M   'P 1'
_cell_length_a   11.93456917
_cell_length_b   11.80855026
_cell_length_c   17.44431189
_cell_angle_alpha   95.96472197
_cell_angle_beta   104.31679208
_cell_angle_gamma   116.11174688
_symmetry_Int_Tables_number   1
_chemical_formula_structural   UH38C33(N6O7)2
_chemical_formula_sum   'U2 H76 C66 N24 O28'
_cell_volume   2074.02111672
_cell_formula_units_Z   2
loop_
 _symmetry_equiv_pos_site_id
 _symmetry_equiv_pos_as_xyz
  1  'x, y, z'
loop_
 _atom_site_type_symbol
 _atom_site_label
 _atom_site_symmetry_multiplicity
 _atom_site_fract_x
 _atom_site_fract_y
 _atom_site_fract_z
 _atom_site_occupancy
 _atom_site_pbe_bader_charge
 _atom_site_pbe_bader_spin_density
 _atom_site_pbe_cm5_charge
 _atom_site_pbe_ddec_charge
 _atom_site_pbe_ddec_spin_density
 _atom_site_pbe_ddec_sum_bond_order
 _atom_site_pbe_magmom
U  U0  1  0.36387081  0.34764814  0.08527831  1  2.921665  0  2.184257  2.45958  0  4.833097  0
U  U1  1  0.63613531  0.65235586  0.91472616  1  2.921762  0  2.184184  2.459497  0  4.833608  0
H  H2  1  0.63052163  0.15434248  0.29284274  1  0.692967  0  0.322787  0.392528  0  0.936245  0
H  H3  1  0.36947247  0.84565496  0.70715937  1  0.692436  0  0.32277  0.392496  0  0.936282  0
H  H4  1  0.85136502  0.26440206  0.10740427  1  0.034972  0  0.089817  0.092026  0  0.994063  0
H  H5  1  0.14863775  0.73560202  0.89260143  1  0.034972  0  0.089822  0.092043  0  0.994067  0
H  H6  1  0.96173236  0.36978045  0.06328472  1  0.040013  0  0.093748  0.101804  0  0.997444  0
H  H7  1  0.03826175  0.63021898  0.93671413  1  0.039991  0  0.093743  0.101775  0  0.99743  0
H  H8  1  0.70689246  0.39428248  0.90101804  1  0.01856  0  0.094143  0.090782  0  1.026794  0
H  H9  1  0.29310511  0.60571193  0.09898034  1  0.01848  0  0.094177  0.090826  0  1.026935  0
H  H10  1  0.87672349  0.44405145  0.94280814  1  0.015386  0  0.090534  0.089831  0  1.006497  0
H  H11  1  0.12327683  0.55594485  0.05719196  1  0.015341  0  0.090527  0.089782  0  1.006512  0
H  H12  1  0.77098353  0.26860611  0.81377177  1  0.008445  0  0.09417  0.065718  0  0.964054  0
H  H13  1  0.22901363  0.73138731  0.18622876  1  0.008354  0  0.094185  0.065759  0  0.964187  0
H  H14  1  0.84292831  0.11510732  0.86849154  1  0.006552  0  0.087413  0.083021  0  1.024146  0
H  H15  1  0.15707226  0.88489092  0.13151162  1  0.006523  0  0.087424  0.083073  0  1.024078  0
H  H16  1  0.95918580  0.27916095  0.91969455  1  0.045661  0  0.089045  0.094596  0  1.025445  0
H  H17  1  0.04081822  0.72083919  0.08030642  1  0.045704  0  0.089048  0.094556  0  1.025413  0
H  H18  1  0.68996843  0.97022573  0.93209165  1  0.018449  0  0.09302  0.084877  0  1.025774  0
H  H19  1  0.31003855  0.02977133  0.06791467  1  0.018684  0  0.093019  0.084858  0  1.025731  0
H  H20  1  0.68972410  0.02810734  0.02948945  1  0.007732  0  0.086216  0.078117  0  1.023935  0
H  H21  1  0.31028145  0.97189571  0.97051314  1  0.007759  0  0.08621  0.078123  0  1.023957  0
H  H22  1  0.50034153  0.01342058  0.92122488  1  -0.001685  0  0.086733  0.048728  0  0.989779  0
H  H23  1  0.49966532  0.98657651  0.07877799  1  -0.001722  0  0.086713  0.048739  0  0.989778  0
H  H24  1  0.60521156  0.18859097  0.04969821  1  0.013189  0  0.087953  0.081465  0  1.004783  0
H  H25  1  0.39478795  0.81140534  0.95030291  1  0.012905  0  0.087956  0.081471  0  1.004807  0
H  H26  1  0.54315564  0.23956807  0.96521170  1  0.021227  0  0.091367  0.090212  0  1.019761  0
H  H27  1  0.45683790  0.76042840  0.03478854  1  0.021231  0  0.091359  0.090225  0  1.019777  0
H  H28  1  0.54462159  0.16076470  0.82662489  1  -0.024397  0  0.084007  0.067563  0  1.065103  0
H  H29  1  0.45537337  0.83922779  0.17337523  1  -0.024392  0  0.084038  0.067574  0  1.065162  0
H  H30  1  0.59930574  0.04626264  0.81001178  1  0.008235  0  0.085142  0.081111  0  1.040093  0
H  H31  1  0.40069021  0.95373179  0.18998865  1  0.008319  0  0.085189  0.081159  0  1.04012  0
H  H32  1  0.92276068  0.09521990  0.08741567  1  0.052626  0  0.10604  0.120789  0  1.022708  0
H  H33  1  0.07723389  0.90477851  0.91258603  1  0.052769  0  0.106073  0.120829  0  1.022615  0
H  H34  1  0.91813607  0.03187698  0.99040684  1  0.089171  0  0.109466  0.130518  0  1.008831  0
H  H35  1  0.08186315  0.96812523  0.00959817  1  0.089697  0  0.10949  0.130509  0  1.00892  0
H  H36  1  0.80285239  0.43527022  0.13361633  1  0.041271  0  0.109576  0.13579  0  0.970795  0
H  H37  1  0.19715178  0.56472496  0.86638655  1  0.041476  0  0.109583  0.135747  0  0.970853  0
H  H38  1  0.86325643  0.53565991  0.06752933  1  0.075718  0  0.111895  0.142395  0  0.988192  0
H  H39  1  0.13674246  0.46433345  0.93247203  1  0.07566  0  0.111881  0.142328  0  0.988137  0
H  H40  1  0.65804932  0.32038326  0.22060743  1  0.165238  0  0.147541  0.061776  0  0.952089  0
H  H41  1  0.34194945  0.67962488  0.77939742  1  0.165347  0  0.147591  0.061796  0  0.952054  0
H  H42  1  0.94669540  0.92194890  0.12954008  1  0.073357  0  0.121685  0.05721  0  0.974414  0
H  H43  1  0.05330590  0.07806117  0.87046073  1  0.073528  0  0.121655  0.05722  0  0.974277  0
H  H44  1  0.18044408  0.07376385  0.19750673  1  0.121835  0  0.122069  0.06479  0  1.019121  0
H  H45  1  0.81955527  0.92624233  0.80249461  1  0.121754  0  0.1221  0.064824  0  1.01909  0
H  H46  1  0.31806173  0.29353558  0.28737133  1  0.07586  0  0.120076  0.066974  0  1.0015  0
H  H47  1  0.68193484  0.70646872  0.71262713  1  0.075753  0  0.120025  0.066844  0  1.001485  0
H  H48  1  0.22997020  0.35481572  0.33428761  1  0.159171  0  0.13832  0.105969  0  0.985856  0
H  H49  1  0.77003242  0.64518840  0.66571405  1  0.159164  0  0.138256  0.105861  0  0.985779  0
H  H50  1  0.30082395  0.90901593  0.33250703  1  0.145381  0  0.132847  0.088223  0  1.02676  0
H  H51  1  0.69917978  0.09098919  0.66748858  1  0.145498  0  0.132842  0.088261  0  1.026695  0
H  H52  1  0.35948406  0.04575033  0.28729663  1  0.108984  0  0.115427  0.070394  0  1.035322  0
H  H53  1  0.64051468  0.95425490  0.71270167  1  0.109091  0  0.115428  0.070368  0  1.035242  0
H  H54  1  0.49390237  0.26642271  0.39438588  1  0.096296  0  0.125316  0.069317  0  0.961341  0
H  H55  1  0.50609478  0.73357762  0.60561292  1  0.096241  0  0.125287  0.069314  0  0.961264  0
H  H56  1  0.58691076  0.32168500  0.54217491  1  0.090904  0  0.134792  0.087071  0  0.941053  0
H  H57  1  0.41308816  0.67831036  0.45782376  1  0.090871  0  0.134768  0.087014  0  0.941084  0
H  H58  1  0.42653363  0.49129602  0.62158267  1  0.137611  0  0.135199  0.09887  0  0.994385  0
H  H59  1  0.57347532  0.50870202  0.37841772  1  0.137524  0  0.135166  0.098806  0  0.994395  0
H  H60  1  0.56335751  0.45965952  0.65656783  1  0.058416  0  0.121178  0.073785  0  0.987881  0
H  H61  1  0.43665009  0.54033757  0.34343228  1  0.058535  0  0.121162  0.073765  0  0.987865  0
H  H62  1  0.58614540  0.19912705  0.64926302  1  0.094229  0  0.125504  0.080067  0  0.968257  0
H  H63  1  0.41385389  0.80086931  0.35073234  1  0.094241  0  0.125506  0.08005  0  0.968224  0
H  H64  1  0.46757298  0.02805738  0.61283677  1  0.125875  0  0.137113  0.100176  0  1.001791  0
H  H65  1  0.53242088  0.97193519  0.38715688  1  0.125777  0  0.13714  0.100171  0  1.001795  0
H  H66  1  0.54448762  0.32614465  0.75198834  1  0.095662  0  0.12684  0.072251  0  0.977844  0
H  H67  1  0.45550953  0.67385076  0.24800834  1  0.09589  0  0.126818  0.072234  0  0.977909  0
H  H68  1  0.41611792  0.26586233  0.84477606  1  0.101879  0  0.128261  0.064395  0  0.976615  0
H  H69  1  0.58388245  0.73413595  0.15522191  1  0.101872  0  0.128232  0.064335  0  0.976696  0
H  H70  1  0.22156258  0.29244027  0.86583753  1  0.084128  0  0.122  0.072791  0  1.004079  0
H  H71  1  0.77843935  0.70756292  0.13415879  1  0.084358  0  0.121997  0.072779  0  1.004144  0
H  H72  1  0.15529544  0.35813682  0.78816363  1  0.144359  0  0.136587  0.104438  0  0.998221  0
H  H73  1  0.84471480  0.64186910  0.21183417  1  0.144377  0  0.136546  0.104299  0  0.998217  0
H  H74  1  0.22987917  0.91885763  0.80128386  1  0.142115  0  0.130804  0.088379  0  1.002076  0
H  H75  1  0.77011376  0.08113790  0.19871334  1  0.142547  0  0.130844  0.088404  0  1.002096  0
H  H76  1  0.26818527  0.06466464  0.87189168  1  0.105  0  0.122037  0.086907  0  1.000751  0
H  H77  1  0.73181438  0.93533363  0.12810963  1  0.105086  0  0.122055  0.086936  0  1.000754  0
C  C78  1  0.84435410  0.16897126  0.99124148  1  0.045939  0  -0.014582  0.199088  0  3.751569  0
C  C79  1  0.15564990  0.83102888  0.00875891  1  0.04624  0  -0.014556  0.199152  0  3.751786  0
C  C80  1  0.86151609  0.28779785  0.04899770  1  -0.056848  0  -0.158858  -0.258691  0  3.809324  0
C  C81  1  0.13848362  0.71220533  0.95100746  1  -0.056897  0  -0.158836  -0.25869  0  3.80945  0
C  C82  1  0.75843164  0.32838021  0.01021411  1  0.039282  0  -0.008592  0.199927  0  3.736757  0
C  C83  1  0.24156849  0.67161905  0.98978678  1  0.039245  0  -0.008596  0.199953  0  3.736744  0
C  C84  1  0.77690670  0.36185634  0.92956917  1  -0.015661  0  -0.162362  -0.238231  0  3.841466  0
C  C85  1  0.22309268  0.63813799  0.07043235  1  -0.015625  0  -0.16239  -0.238203  0  3.841526  0
C  C86  1  0.75723568  0.24323649  0.87104131  1  0.026115  0  -0.093032  0.043482  0  3.857431  0
C  C87  1  0.24276137  0.75675986  0.12896231  1  0.02644  0  -0.093062  0.043399  0  3.8575  0
C  C88  1  0.85867576  0.20178791  0.90980509  1  -0.039441  0  -0.166879  -0.237117  0  3.844246  0
C  C89  1  0.14132998  0.79821218  0.09019671  1  -0.039723  0  -0.166902  -0.237121  0  3.844236  0
C  C90  1  0.70326177  0.05606314  0.97279540  1  -0.022224  0  -0.161855  -0.235574  0  3.851701  0
C  C91  1  0.29673343  0.94393330  0.02720393  1  -0.022522  0  -0.161865  -0.235579  0  3.85187  0
C  C92  1  0.60031422  0.09516644  0.93368020  1  0.018412  0  -0.093864  0.048676  0  3.863841  0
C  C93  1  0.39968730  0.90483376  0.06632212  1  0.018334  0  -0.093853  0.048636  0  3.863733  0
C  C94  1  0.61912077  0.21290067  0.99217003  1  -0.042291  0  -0.163659  -0.241112  0  3.853944  0
C  C95  1  0.38087900  0.78709958  0.00783088  1  -0.042003  0  -0.163663  -0.24114  0  3.854039  0
C  C96  1  0.61763517  0.13123472  0.85388510  1  0.012809  0  -0.173314  -0.220924  0  3.895434  0
C  C97  1  0.38236363  0.86876158  0.14611993  1  0.012829  0  -0.173396  -0.221006  0  3.895493  0
C  C98  1  0.94045307  0.12243428  0.03135938  1  -0.046431  0  -0.156476  -0.352828  0  3.860793  0
C  C99  1  0.05955230  0.87756973  0.96864785  1  -0.047184  0  -0.156497  -0.352788  0  3.860987  0
C  C100  1  0.08681744  0.21003409  0.05409208  1  1.495109  0  0.212732  0.643116  0  4.098412  0
C  C101  1  0.91319617  0.78998158  0.94590932  1  1.49498  0  0.212658  0.642995  0  4.098083  0
C  C102  1  0.77985671  0.44754474  0.07106068  1  -0.008438  0  -0.152612  -0.379278  0  3.840704  0
C  C103  1  0.22014668  0.55245737  0.92894265  1  -0.008594  0  -0.152632  -0.37916  0  3.840859  0
C  C104  1  0.65882566  0.46447457  0.05188077  1  1.528568  0  0.260713  0.718708  0  4.059101  0
C  C105  1  0.34116592  0.53551600  0.94812327  1  1.528638  0  0.260731  0.718682  0  4.059329  0
C  C106  1  0.56026168  0.25265417  0.22331815  1  1.524522  0  0.215641  0.548418  0  4.028213  0
C  C107  1  0.43973517  0.74733040  0.77667931  1  1.524256  0  0.215555  0.548341  0  4.028261  0
C  C108  1  0.01211604  0.15567775  0.26745128  1  1.78624  0  0.325333  0.531299  0  4.23703  0
C  C109  1  0.98788555  0.84432243  0.73255277  1  1.786462  0  0.325318  0.531428  0  4.237162  0
C  C110  1  0.97383772  0.95267721  0.19644748  1  0.717161  0  0.130064  0.141476  0  3.894479  0
C  C111  1  0.02616527  0.04733283  0.80355300  1  0.716657  0  0.13013  0.141541  0  3.894441  0
C  C112  1  0.12507184  0.04362327  0.24024643  1  0.670592  0  0.12495  0.122854  0  3.90068  0
C  C113  1  0.87493059  0.95638380  0.75975601  1  0.670886  0  0.124957  0.122886  0  3.900622  0
C  C114  1  0.06159247  0.84152526  0.27463547  1  1.818649  0  0.328216  0.535351  0  4.23918  0
C  C115  1  0.93841127  0.15847786  0.72536398  1  1.818615  0  0.328231  0.535456  0  4.238821  0
C  C116  1  0.25585616  0.27662376  0.32690637  1  0.650947  0  0.051946  0.064557  0  3.92817  0
C  C117  1  0.74414791  0.72338328  0.67309460  1  0.651167  0  0.052014  0.064987  0  3.927482  0
C  C118  1  0.30023425  0.00001355  0.32542605  1  0.65715  0  0.044635  0.056  0  3.958792  0
C  C119  1  0.69976204  0.99998881  0.67456877  1  0.657494  0  0.044646  0.056058  0  3.958553  0
C  C120  1  0.34178263  0.36066036  0.47668889  1  1.811356  0  0.326915  0.532478  0  4.245678  0
C  C121  1  0.65820765  0.63934017  0.52330775  1  1.811049  0  0.326857  0.532426  0  4.245639  0
C  C122  1  0.41845186  0.22595830  0.42423074  1  0.651813  0  0.135307  0.147651  0  3.856285  0
C  C123  1  0.58154755  0.77404987  0.57576848  1  0.652068  0  0.135415  0.147755  0  3.856119  0
C  C124  1  0.47798067  0.26681957  0.51963055  1  0.72755  0  0.135794  0.1392  0  3.854393  0
C  C125  1  0.52201743  0.73318271  0.48036741  1  0.727598  0  0.135763  0.139195  0  3.854361  0
C  C126  1  0.37163453  0.03784889  0.47486982  1  1.825467  0  0.329031  0.536198  0  4.243677  0
C  C127  1  0.62836404  0.96214746  0.52512887  1  1.825943  0  0.328975  0.536068  0  4.243364  0
C  C128  1  0.45619676  0.41559179  0.62525117  1  0.684928  0  0.052506  0.070616  0  3.924449  0
C  C129  1  0.54381195  0.58440922  0.37474886  1  0.684937  0  0.052592  0.070701  0  3.92439  0
C  C130  1  0.48049521  0.12695584  0.62143806  1  0.695498  0  0.054907  0.070263  0  3.930698  0
C  C131  1  0.51950084  0.87303766  0.37855543  1  0.695169  0  0.054872  0.070343  0  3.930578  0
C  C132  1  0.30122871  0.36148528  0.70426924  1  1.799564  0  0.335014  0.545312  0  4.216866  0
C  C133  1  0.69877123  0.63850910  0.29572433  1  1.799596  0  0.335031  0.545141  0  4.216712  0
C  C134  1  0.43740827  0.26439986  0.72034192  1  0.667648  0  0.131571  0.131549  0  3.877685  0
C  C135  1  0.56258706  0.73559363  0.27965490  1  0.667657  0  0.131596  0.131617  0  3.877601  0
C  C136  1  0.35542365  0.22783803  0.77959453  1  0.720923  0  0.133977  0.137481  0  3.883892  0
C  C137  1  0.64457571  0.77215831  0.22040256  1  0.72089  0  0.133972  0.137498  0  3.883974  0
C  C138  1  0.33072890  0.03762460  0.70243412  1  1.82039  0  0.347295  0.551058  0  4.205768  0
C  C139  1  0.66926037  0.96236908  0.29755951  1  1.820603  0  0.347261  0.55109  0  4.205746  0
C  C140  1  0.17768088  0.27948673  0.79994245  1  0.656561  0  0.050685  0.068405  0  3.920389  0
C  C141  1  0.82232061  0.72051547  0.20005544  1  0.65631  0  0.05072  0.068549  0  3.920238  0
C  C142  1  0.22105639  0.00786021  0.80795184  1  0.642033  0  0.049304  0.060791  0  3.942984  0
C  C143  1  0.77894720  0.99214093  0.19204743  1  0.641577  0  0.049231  0.060771  0  3.943251  0
N  N144  1  0.91771278  0.03325716  0.21640896  1  -1.182792  0  -0.299  -0.245334  0  3.64552  0
N  N145  1  0.08229108  0.96675285  0.78359223  1  -1.182939  0  -0.298992  -0.245307  0  3.645176  0
N  N146  1  0.13265408  0.15713753  0.28746564  1  -1.13856  0  -0.289328  -0.226047  0  3.579805  0
N  N147  1  0.86734920  0.84286953  0.71253694  1  -1.138617  0  -0.28937  -0.22632  0  3.57954  0
N  N148  1  0.16461563  0.96492471  0.28573829  1  -1.20435  0  -0.297851  -0.237735  0  3.652852  0
N  N149  1  0.83538253  0.03507757  0.71426141  1  -1.204754  0  -0.297853  -0.237748  0  3.65263  0
N  N150  1  0.94609151  0.84038465  0.23079788  1  -1.161228  0  -0.296961  -0.245337  0  3.588786  0
N  N151  1  0.05391136  0.15962049  0.76919759  1  -1.161058  0  -0.296923  -0.245372  0  3.588955  0
N  N152  1  0.32872045  0.27974493  0.40735223  1  -1.161111  0  -0.291929  -0.245191  0  3.604135  0
N  N153  1  0.67128017  0.72026221  0.59264708  1  -1.160743  0  -0.291942  -0.245379  0  3.604022  0
N  N154  1  0.42398056  0.34801993  0.54284986  1  -1.168675  0  -0.292213  -0.239757  0  3.64735  0
N  N155  1  0.57602290  0.65198617  0.45714808  1  -1.16876  0  -0.292264  -0.239738  0  3.647367  0
N  N156  1  0.43036603  0.14274116  0.54194309  1  -1.178175  0  -0.292077  -0.236187  0  3.607302  0
N  N157  1  0.56962366  0.85725642  0.45805436  1  -1.178074  0  -0.292  -0.236039  0  3.607108  0
N  N158  1  0.35943548  0.08562873  0.40588694  1  -1.167713  0  -0.291274  -0.233018  0  3.621312  0
N  N159  1  0.64056346  0.91437354  0.59411057  1  -1.168504  0  -0.291304  -0.233094  0  3.621554  0
N  N160  1  0.38661044  0.33534142  0.67325517  1  -1.135262  0  -0.289102  -0.233895  0  3.572688  0
N  N161  1  0.61339434  0.66465871  0.32674362  1  -1.135213  0  -0.289132  -0.233903  0  3.57259  0
N  N162  1  0.27196139  0.28620319  0.76001487  1  -1.164089  0  -0.288597  -0.235581  0  3.626254  0
N  N163  1  0.72804343  0.71379694  0.23998507  1  -1.164165  0  -0.288591  -0.235498  0  3.626377  0
N  N164  1  0.29099507  0.08621272  0.75931317  1  -1.200419  0  -0.285536  -0.231443  0  3.600731  0
N  N165  1  0.70900628  0.91378751  0.24068454  1  -1.20058  0  -0.285482  -0.23151  0  3.600704  0
N  N166  1  0.41116415  0.13902458  0.67650369  1  -1.157177  0  -0.285437  -0.231867  0  3.635037  0
N  N167  1  0.58883282  0.86096888  0.32349165  1  -1.157222  0  -0.285343  -0.231835  0  3.635183  0
O  O168  1  0.39196396  0.46031857  0.17570676  1  -0.871088  0  -0.757939  -0.707599  0  1.862477  0
O  O169  1  0.60803230  0.53967980  0.82429461  1  -0.871107  0  -0.757942  -0.707644  0  1.862615  0
O  O170  1  0.33285401  0.23428424  0.99388964  1  -0.891289  0  -0.767769  -0.737206  0  1.879874  0
O  O171  1  0.66713943  0.76571026  0.00611157  1  -0.89147  0  -0.767841  -0.737195  0  1.880049  0
O  O172  1  0.16574927  0.17767490  0.09933136  1  -1.160418  0  -0.364432  -0.62003  0  2.22523  0
O  O173  1  0.83426253  0.82232992  0.90067575  1  -1.160981  0  -0.364312  -0.619802  0  2.225642  0
O  O174  1  0.13779589  0.31234126  0.02853097  1  -1.145784  0  -0.339543  -0.584609  0  2.239465  0
O  O175  1  0.86219828  0.68764032  0.97147961  1  -1.145204  0  -0.339588  -0.58481  0  2.238624  0
O  O176  1  0.62587723  0.50060278  0.98728589  1  -1.168324  0  -0.386195  -0.649303  0  2.415139  0
O  O177  1  0.37410181  0.49939409  0.01271220  1  -1.168457  0  -0.386197  -0.649331  0  2.415595  0
O  O178  1  0.58911952  0.43726040  0.09879542  1  -1.161024  0  -0.365393  -0.635715  0  2.34126  0
O  O179  1  0.41087319  0.56273517  0.90119601  1  -1.160862  0  -0.365368  -0.635692  0  2.340677  0
O  O180  1  0.45763339  0.25164496  0.18327124  1  -1.174613  0  -0.329531  -0.552705  0  2.370636  0
O  O181  1  0.54236549  0.74835824  0.81673437  1  -1.174638  0  -0.329456  -0.552583  0  2.370788  0
O  O182  1  0.55287187  0.17360114  0.27095749  1  -1.184063  0  -0.295631  -0.426264  0  2.403354  0
O  O183  1  0.44712606  0.82639719  0.72904298  1  -1.183424  0  -0.295654  -0.426292  0  2.403201  0
O  O184  1  0.99090657  0.24504720  0.28717774  1  -1.139469  0  -0.304525  -0.488284  0  2.081531  0
O  O185  1  0.00908837  0.75495805  0.71283203  1  -1.139495  0  -0.304494  -0.488335  0  2.081958  0
O  O186  1  0.07033017  0.74951735  0.29621842  1  -1.136826  0  -0.302304  -0.486045  0  2.083439  0
O  O187  1  0.92967769  0.25048968  0.70377051  1  -1.136931  0  -0.302347  -0.486134  0  2.083079  0
O  O188  1  0.29383935  0.43354574  0.47850304  1  -1.156433  0  -0.303432  -0.495889  0  2.095866  0
O  O189  1  0.70616385  0.56646133  0.52149723  1  -1.15643  0  -0.303352  -0.495846  0  2.09572  0
O  O190  1  0.34002319  0.92440648  0.47651473  1  -1.144477  0  -0.302196  -0.494032  0  2.110973  0
O  O191  1  0.65997422  0.07559980  0.52348001  1  -1.144502  0  -0.302212  -0.494031  0  2.110506  0
O  O192  1  0.26250395  0.43914113  0.68753456  1  -1.147959  0  -0.296949  -0.494323  0  2.09611  0
O  O193  1  0.73751049  0.56086268  0.31246599  1  -1.14805  0  -0.296945  -0.494225  0  2.095795  0
O  O194  1  0.30013789  0.92103496  0.68053168  1  -1.174471  0  -0.296199  -0.511983  0  2.219546  0
O  O195  1  0.69985265  0.07895768  0.31946378  1  -1.174477  0  -0.296221  -0.51202  0  2.21941  0
