# generated using pymatgen
data_ZnH8C6(N2O)4
_symmetry_space_group_name_H-M   'P 1'
_cell_length_a   5.50939046
_cell_length_b   7.75952254
_cell_length_c   8.13067066
_cell_angle_alpha   121.78126805
_cell_angle_beta   101.42276680
_cell_angle_gamma   96.29094832
_symmetry_Int_Tables_number   1
_chemical_formula_structural   ZnH8C6(N2O)4
_chemical_formula_sum   'Zn1 H8 C6 N8 O4'
_cell_volume   279.91556534
_cell_formula_units_Z   1
loop_
 _symmetry_equiv_pos_site_id
 _symmetry_equiv_pos_as_xyz
  1  'x, y, z'
loop_
 _atom_site_type_symbol
 _atom_site_label
 _atom_site_symmetry_multiplicity
 _atom_site_fract_x
 _atom_site_fract_y
 _atom_site_fract_z
 _atom_site_occupancy
 _atom_site_hle17_bader_spin_density
 _atom_site_hle17_ddec_charge
 _atom_site_hle17_ddec_spin_density
 _atom_site_hle17_ddec_sum_bond_order
 _atom_site_hle17_magmom
 _atom_site_hse06_10hf_bader_spin_density
 _atom_site_hse06_10hf_ddec_charge
 _atom_site_hse06_10hf_ddec_spin_density
 _atom_site_hse06_10hf_ddec_sum_bond_order
 _atom_site_hse06_10hf_magmom
 _atom_site_hse06_bader_spin_density
 _atom_site_hse06_ddec_charge
 _atom_site_hse06_ddec_spin_density
 _atom_site_hse06_ddec_sum_bond_order
 _atom_site_hse06_magmom
 _atom_site_pbe_bader_spin_density
 _atom_site_pbe_cm5_charge
 _atom_site_pbe_ddec_charge
 _atom_site_pbe_ddec_spin_density
 _atom_site_pbe_ddec_sum_bond_order
 _atom_site_pbe_magmom
Zn  Zn0  1  0.00001114  0.00001039  0.99999740  1  0  0.99993  0  1.899141  0  0  0.821517  0  2.347519  0  0  0.865721  0  2.299294  0  0  0.68463  0.79069  0  2.380562  0
H  H1  1  0.57868726  0.30227920  0.73184154  1  0  0.114334  0  0.940966  0  0  0.118233  0  1.015419  0  0  0.121873  0  1.010813  0  0  0.138667  0.115588  0  1.018685  0
H  H2  1  0.42131041  0.69771759  0.26815313  1  0  0.114343  0  0.941033  0  0  0.11822  0  1.01551  0  0  0.121989  0  1.010452  0  0  0.138658  0.115573  0  1.018779  0
H  H3  1  0.80919206  0.20427353  0.42040898  1  0  0.112363  0  0.97106  0  0  0.11251  0  1.050982  0  0  0.116191  0  1.046743  0  0  0.137458  0.109718  0  1.054025  0
H  H4  1  0.19080999  0.79572081  0.57960484  1  0  0.112414  0  0.970984  0  0  0.112511  0  1.050949  0  0  0.116379  0  1.046216  0  0  0.137463  0.109725  0  1.053984  0
H  H5  1  0.18682311  0.32148668  0.89864029  1  0  0.292156  0  0.951509  0  0  0.279192  0  1.021357  0  0  0.28563  0  1.015183  0  0  0.292494  0.274638  0  1.025678  0
H  H6  1  0.81317611  0.67852424  0.10136637  1  0  0.292175  0  0.951435  0  0  0.27917  0  1.021336  0  0  0.285903  0  1.014315  0  0  0.292479  0.274615  0  1.025661  0
H  H7  1  0.15989959  0.53225618  0.89068960  1  0  0.292325  0  0.955649  0  0  0.278188  0  1.025508  0  0  0.285095  0  1.018498  0  0  0.288949  0.273237  0  1.030565  0
H  H8  1  0.84009994  0.46773286  0.10929790  1  0  0.292342  0  0.955503  0  0  0.278168  0  1.02542  0  0  0.285413  0  1.017439  0  0  0.288912  0.273205  0  1.030488  0
C  C9  1  0.47751914  0.88943599  0.98209722  1  0  0.538964  0  3.904848  0  0  0.484435  0  4.213951  0  0  0.514324  0  4.206127  0  0  0.209214  0.464112  0  4.218829  0
C  C10  1  0.52247392  0.11057325  0.01791388  1  0  0.539026  0  3.904804  0  0  0.484417  0  4.213965  0  0  0.514312  0  4.206144  0  0  0.209245  0.464106  0  4.218845  0
C  C11  1  0.40787589  0.26002907  0.61144331  1  0  0.120997  0  3.642792  0  0  0.051803  0  3.915994  0  0  0.062934  0  3.927399  0  0  0.151385  0.044799  0  3.908163  0
C  C12  1  0.59212518  0.73995843  0.38854121  1  0  0.121012  0  3.6424  0  0  0.051782  0  3.915538  0  0  0.070351  0  3.931606  0  0  0.151407  0.044776  0  3.907713  0
C  C13  1  0.01246474  0.20943965  0.45045643  1  0  0.142167  0  3.620623  0  0  0.06824  0  3.881098  0  0  0.080531  0  3.893444  0  0  0.156779  0.060727  0  3.872378  0
C  C14  1  0.98753893  0.79055112  0.54953252  1  0  0.142208  0  3.620037  0  0  0.068277  0  3.880487  0  0  0.087836  0  3.897632  0  0  0.156847  0.060759  0  3.87177  0
N  N15  1  0.14358187  0.14350150  0.31815661  1  0  -0.26606  0  3.222856  0  0  -0.202246  0  3.520964  0  0  -0.218459  0  3.537906  0  0  -0.23991  -0.191275  0  3.509198  0
N  N16  1  0.85640505  0.85649820  0.68185019  1  0  -0.266219  0  3.22282  0  0  -0.202424  0  3.520973  0  0  -0.217892  0  3.535105  0  0  -0.240058  -0.191454  0  3.50921  0
N  N17  1  0.39379482  0.17387405  0.41893240  1  0  -0.237153  0  2.972188  0  0  -0.216281  0  3.259921  0  0  -0.226388  0  3.277087  0  0  -0.229224  -0.20936  0  3.248134  0
N  N18  1  0.60620015  0.82612151  0.58107973  1  0  -0.237105  0  2.97167  0  0  -0.21623  0  3.259393  0  0  -0.225654  0  3.273803  0  0  -0.229185  -0.209313  0  3.247608  0
N  N19  1  0.17223686  0.28427271  0.63704533  1  0  0.074628  0  3.605031  0  0  0.190769  0  3.795174  0  0  0.178765  0  3.818894  0  0  -0.14639  0.197399  0  3.780839  0
N  N20  1  0.82775668  0.71571450  0.36293916  1  0  0.074443  0  3.605775  0  0  0.190761  0  3.795656  0  0  0.153772  0  3.854642  0  0  -0.146479  0.197402  0  3.781289  0
N  N21  1  0.09635835  0.37108025  0.81359567  1  0  -0.534427  0  2.878277  0  0  -0.550752  0  3.111591  0  0  -0.559463  0  3.10862  0  0  -0.509745  -0.544067  0  3.113747  0
N  N22  1  0.90363973  0.62893377  0.18641479  1  0  -0.534312  0  2.878575  0  0  -0.550609  0  3.111828  0  0  -0.551518  0  3.116185  0  0  -0.509595  -0.543905  0  3.114  0
O  O23  1  0.25187102  0.80083948  0.95367795  1  0  -0.570595  0  2.119293  0  0  -0.505332  0  2.368632  0  0  -0.530346  0  2.358366  0  0  -0.291846  -0.488  0  2.375313  0
O  O24  1  0.74815001  0.19916331  0.04633661  1  0  -0.570662  0  2.11908  0  0  -0.505337  0  2.368444  0  0  -0.530327  0  2.358013  0  0  -0.291868  -0.488045  0  2.375158  0
O  O25  1  0.33108230  0.18694025  0.01678520  1  0  -0.579616  0  2.106003  0  0  -0.519445  0  2.360288  0  0  -0.543442  0  2.348984  0  0  -0.300122  -0.502781  0  2.367612  0
O  O26  1  0.66893237  0.81307284  0.98322234  1  0  -0.57968  0  2.105698  0  0  -0.519536  0  2.359948  0  0  -0.543529  0  2.34859  0  0  -0.300167  -0.502872  0  2.367279  0
