# generated using pymatgen
data_UH8C14(IO3)2
_symmetry_space_group_name_H-M   'P 1'
_cell_length_a   5.12623047
_cell_length_b   9.06539944
_cell_length_c   17.96187066
_cell_angle_alpha   90.00014799
_cell_angle_beta   89.99971984
_cell_angle_gamma   94.03515176
_symmetry_Int_Tables_number   1
_chemical_formula_structural   UH8C14(IO3)2
_chemical_formula_sum   'U2 H16 C28 I4 O12'
_cell_volume   832.64276657
_cell_formula_units_Z   2
loop_
 _symmetry_equiv_pos_site_id
 _symmetry_equiv_pos_as_xyz
  1  'x, y, z'
loop_
 _atom_site_type_symbol
 _atom_site_label
 _atom_site_symmetry_multiplicity
 _atom_site_fract_x
 _atom_site_fract_y
 _atom_site_fract_z
 _atom_site_occupancy
 _atom_site_hle17_bader_spin_density
 _atom_site_hle17_ddec_charge
 _atom_site_hle17_ddec_spin_density
 _atom_site_hle17_ddec_sum_bond_order
 _atom_site_hle17_magmom
 _atom_site_hse06_10hf_bader_spin_density
 _atom_site_hse06_10hf_ddec_charge
 _atom_site_hse06_10hf_ddec_spin_density
 _atom_site_hse06_10hf_ddec_sum_bond_order
 _atom_site_hse06_10hf_magmom
 _atom_site_hse06_bader_spin_density
 _atom_site_hse06_ddec_charge
 _atom_site_hse06_ddec_spin_density
 _atom_site_hse06_ddec_sum_bond_order
 _atom_site_hse06_magmom
 _atom_site_pbe_bader_spin_density
 _atom_site_pbe_cm5_charge
 _atom_site_pbe_ddec_charge
 _atom_site_pbe_ddec_spin_density
 _atom_site_pbe_ddec_sum_bond_order
 _atom_site_pbe_magmom
U  U0  1  0.99999824  0.50001738  0.50000324  1  0  2.508402  0  4.170991  0  0  2.574734  0  4.834575  0  0  2.688805  0  4.789195  0  0  2.193884  2.493484  0  4.867964  0
U  U1  1  0.00000344  0.99998077  0.00000233  1  0  2.509112  0  4.17056  0  0  2.574841  0  4.834433  0  0  2.688989  0  4.788962  0  0  2.193923  2.493519  0  4.867932  0
H  H2  1  0.83432500  0.26314677  0.68259442  1  0  0.091375  0  0.97571  0  0  0.093929  0  1.053564  0  0  0.097912  0  1.050127  0  0  0.09783  0.091059  0  1.056021  0
H  H3  1  0.16567393  0.23685373  0.18259461  1  0  0.091307  0  0.975717  0  0  0.093883  0  1.053564  0  0  0.097868  0  1.050127  0  0  0.097802  0.091013  0  1.056025  0
H  H4  1  0.16568246  0.73684552  0.31740940  1  0  0.091393  0  0.975677  0  0  0.093932  0  1.053583  0  0  0.097917  0  1.050145  0  0  0.097845  0.091062  0  1.056043  0
H  H5  1  0.83432133  0.76315071  0.81740588  1  0  0.091333  0  0.975711  0  0  0.093904  0  1.053573  0  0  0.097889  0  1.050135  0  0  0.097827  0.091038  0  1.056033  0
H  H6  1  0.22696090  0.55095493  0.73692401  1  0  0.111055  0  0.941162  0  0  0.12287  0  0.999757  0  0  0.126117  0  0.997862  0  0  0.107107  0.120535  0  1.001115  0
H  H7  1  0.77303682  0.94904425  0.23692252  1  0  0.111045  0  0.941141  0  0  0.122855  0  0.999747  0  0  0.126103  0  0.997854  0  0  0.10709  0.120522  0  1.001107  0
H  H8  1  0.77304486  0.44903956  0.26307258  1  0  0.111069  0  0.941246  0  0  0.122872  0  0.999856  0  0  0.126119  0  0.997964  0  0  0.107102  0.120533  0  1.001211  0
H  H9  1  0.22695413  0.05095686  0.76307240  1  0  0.111032  0  0.94121  0  0  0.122837  0  0.999827  0  0  0.126087  0  0.997934  0  0  0.107112  0.120498  0  1.001182  0
H  H10  1  0.62901385  0.33077404  0.91209075  1  0  0.109272  0  0.965443  0  0  0.117734  0  1.031073  0  0  0.121424  0  1.027576  0  0  0.102226  0.115101  0  1.033603  0
H  H11  1  0.37099112  0.16922858  0.41209168  1  0  0.109277  0  0.965421  0  0  0.117764  0  1.031009  0  0  0.121455  0  1.027515  0  0  0.102256  0.115128  0  1.033532  0
H  H12  1  0.37098362  0.66923261  0.08791196  1  0  0.10926  0  0.965484  0  0  0.11773  0  1.031104  0  0  0.121419  0  1.027609  0  0  0.102249  0.115101  0  1.033632  0
H  H13  1  0.62901881  0.83076814  0.58790714  1  0  0.109193  0  0.965419  0  0  0.117759  0  1.030942  0  0  0.121453  0  1.02745  0  0  0.10225  0.115123  0  1.033467  0
H  H14  1  0.89543400  0.21235699  0.81820717  1  0  0.098699  0  0.939263  0  0  0.109557  0  0.997586  0  0  0.112238  0  0.997045  0  0  0.107421  0.10768  0  0.998067  0
H  H15  1  0.10456278  0.28764520  0.31820807  1  0  0.098696  0  0.939216  0  0  0.109561  0  0.997537  0  0  0.112242  0  0.996997  0  0  0.107444  0.107683  0  0.998018  0
H  H16  1  0.10456449  0.78764192  0.18179833  1  0  0.098726  0  0.939254  0  0  0.109606  0  0.997558  0  0  0.112288  0  0.997011  0  0  0.107442  0.107732  0  0.998042  0
H  H17  1  0.89543792  0.71235592  0.68179409  1  0  0.098727  0  0.93922  0  0  0.109586  0  0.997541  0  0  0.112267  0  0.996999  0  0  0.107434  0.107711  0  0.998024  0
C  C18  1  0.71599558  0.31446418  0.72436246  1  0  -0.053574  0  3.710238  0  0  -0.080628  0  3.959637  0  0  -0.078267  0  3.979218  0  0  -0.080025  -0.081946  0  3.946333  0
C  C19  1  0.28399848  0.18553428  0.22436408  1  0  -0.053449  0  3.710159  0  0  -0.080541  0  3.959505  0  0  -0.078184  0  3.979091  0  0  -0.079977  -0.081861  0  3.946214  0
C  C20  1  0.28401019  0.68553032  0.27563970  1  0  -0.053618  0  3.710254  0  0  -0.080711  0  3.959575  0  0  -0.078357  0  3.979163  0  0  -0.080067  -0.082028  0  3.946274  0
C  C21  1  0.71599651  0.81446794  0.77563529  1  0  -0.053466  0  3.710287  0  0  -0.080577  0  3.959613  0  0  -0.078219  0  3.979197  0  0  -0.080021  -0.081898  0  3.946326  0
C  C22  1  0.48816012  0.44121360  0.62210164  1  0  0.713303  0  3.838918  0  0  0.682046  0  4.125395  0  0  0.724749  0  4.109695  0  0  0.25449  0.652324  0  4.135569  0
C  C23  1  0.51183175  0.05878441  0.12210055  1  0  0.713514  0  3.838587  0  0  0.682075  0  4.125273  0  0  0.724801  0  4.109536  0  0  0.254534  0.65237  0  4.135425  0
C  C24  1  0.51184787  0.55878312  0.37789996  1  0  0.713291  0  3.838763  0  0  0.681941  0  4.12532  0  0  0.72468  0  4.109551  0  0  0.254453  0.652163  0  4.135564  0
C  C25  1  0.48815517  0.94121559  0.87789659  1  0  0.713474  0  3.838855  0  0  0.682113  0  4.125411  0  0  0.724836  0  4.109678  0  0  0.254532  0.652378  0  4.135602  0
C  C26  1  0.37076709  0.47593708  0.75518588  1  0  -0.088415  0  3.727717  0  0  -0.118323  0  3.968905  0  0  -0.117293  0  3.990977  0  0  -0.086064  -0.118738  0  3.953979  0
C  C27  1  0.62922632  0.02406041  0.25518291  1  0  -0.088458  0  3.727881  0  0  -0.118386  0  3.96905  0  0  -0.117364  0  3.991129  0  0  -0.086048  -0.1188  0  3.954133  0
C  C28  1  0.62923270  0.52405631  0.24481405  1  0  -0.088466  0  3.727902  0  0  -0.118375  0  3.969015  0  0  -0.117352  0  3.991097  0  0  -0.086001  -0.118784  0  3.954079  0
C  C29  1  0.37076671  0.97594181  0.74481256  1  0  -0.088287  0  3.727739  0  0  -0.118236  0  3.968875  0  0  -0.117214  0  3.990953  0  0  -0.086033  -0.118644  0  3.953944  0
C  C30  1  0.52463012  0.40865819  0.70198748  1  0  -0.089437  0  3.775781  0  0  -0.065681  0  4.001047  0  0  -0.077685  0  4.025473  0  0  -0.019083  -0.057846  0  3.9849  0
C  C31  1  0.47536040  0.09134016  0.20198593  1  0  -0.089429  0  3.775791  0  0  -0.065529  0  4.000951  0  0  -0.077532  0  4.025371  0  0  -0.019059  -0.057718  0  3.984834  0
C  C32  1  0.47537134  0.59133298  0.29801468  1  0  -0.089296  0  3.7758  0  0  -0.065392  0  4.000868  0  0  -0.077397  0  4.025285  0  0  -0.019032  -0.057545  0  3.984738  0
C  C33  1  0.52463303  0.90866537  0.79801122  1  0  -0.08958  0  3.775885  0  0  -0.065658  0  4.000977  0  0  -0.077661  0  4.025396  0  0  -0.019112  -0.057837  0  3.984856  0
C  C34  1  0.59816054  0.35259896  0.85328399  1  0  -0.071131  0  3.727053  0  0  -0.10106  0  3.979822  0  0  -0.100115  0  3.999621  0  0  -0.084742  -0.101105  0  3.966006  0
C  C35  1  0.40184281  0.14739787  0.35328373  1  0  -0.07122  0  3.727058  0  0  -0.101122  0  3.979821  0  0  -0.100179  0  3.999623  0  0  -0.08478  -0.101154  0  3.965989  0
C  C36  1  0.40183991  0.64739995  0.14671705  1  0  -0.071214  0  3.72712  0  0  -0.101154  0  3.979955  0  0  -0.100208  0  3.999758  0  0  -0.084806  -0.101199  0  3.966141  0
C  C37  1  0.59815946  0.85259994  0.64671397  1  0  -0.071119  0  3.726901  0  0  -0.101123  0  3.979691  0  0  -0.100187  0  3.999499  0  0  -0.084798  -0.101157  0  3.965861  0
C  C38  1  0.74868054  0.28568321  0.79979276  1  0  -0.059562  0  3.74143  0  0  -0.069346  0  3.994853  0  0  -0.074436  0  4.017738  0  0  -0.086248  -0.066098  0  3.979192  0
C  C39  1  0.25131576  0.21431227  0.29979447  1  0  -0.059581  0  3.741329  0  0  -0.069373  0  3.99479  0  0  -0.074463  0  4.017675  0  0  -0.08627  -0.066123  0  3.979126  0
C  C40  1  0.25132159  0.71431350  0.20020996  1  0  -0.059633  0  3.741321  0  0  -0.069438  0  3.994765  0  0  -0.074527  0  4.017652  0  0  -0.086266  -0.066192  0  3.979111  0
C  C41  1  0.74868065  0.78568553  0.70020547  1  0  -0.059632  0  3.741382  0  0  -0.069421  0  3.994868  0  0  -0.074511  0  4.017756  0  0  -0.086242  -0.066174  0  3.97921  0
C  C42  1  0.41233572  0.44925695  0.83048868  1  0  0.009813  0  3.682688  0  0  0.040737  0  3.93984  0  0  0.039195  0  3.965246  0  0  -0.049467  0.041371  0  3.922597  0
C  C43  1  0.58767022  0.05074200  0.33048692  1  0  0.00982  0  3.682722  0  0  0.040706  0  3.939942  0  0  0.039165  0  3.965349  0  0  -0.049479  0.041339  0  3.92269  0
C  C44  1  0.58766291  0.55074307  0.16951348  1  0  0.009805  0  3.682826  0  0  0.040668  0  3.940049  0  0  0.039122  0  3.965464  0  0  -0.049514  0.041304  0  3.922802  0
C  C45  1  0.41232632  0.94925691  0.66951078  1  0  0.009697  0  3.682748  0  0  0.040612  0  3.939938  0  0  0.039071  0  3.965343  0  0  -0.049502  0.041248  0  3.922682  0
I  I46  1  0.21130731  0.56435297  0.91156230  1  0  0.054199  0  1.431547  0  0  0.033946  0  1.750921  0  0  0.029928  0  1.741104  0  0  0.150868  0.037329  0  1.757887  0
I  I47  1  0.78871183  0.93565476  0.41156021  1  0  0.054192  0  1.431491  0  0  0.033972  0  1.75088  0  0  0.029954  0  1.741064  0  0  0.150847  0.037348  0  1.757836  0
I  I48  1  0.78870851  0.43566034  0.08843708  1  0  0.054262  0  1.431497  0  0  0.034035  0  1.750878  0  0  0.030022  0  1.741061  0  0  0.150866  0.037412  0  1.757841  0
I  I49  1  0.21128561  0.06433530  0.58843694  1  0  0.054259  0  1.431586  0  0  0.034028  0  1.750954  0  0  0.030012  0  1.741138  0  0  0.150863  0.037401  0  1.75791  0
O  O50  1  0.27974014  0.49879316  0.60123540  1  0  -0.670086  0  2.065328  0  0  -0.656558  0  2.344296  0  0  -0.692291  0  2.33456  0  0  -0.371155  -0.630545  0  2.349899  0
O  O51  1  0.72025482  0.00121139  0.10123228  1  0  -0.670217  0  2.065083  0  0  -0.656588  0  2.344143  0  0  -0.692337  0  2.33439  0  0  -0.371186  -0.630567  0  2.349743  0
O  O52  1  0.72027657  0.50121130  0.39876843  1  0  -0.670062  0  2.06519  0  0  -0.656515  0  2.344191  0  0  -0.692258  0  2.334433  0  0  -0.371164  -0.630487  0  2.349815  0
O  O53  1  0.27973197  0.99878751  0.89876710  1  0  -0.670107  0  2.065232  0  0  -0.656503  0  2.344243  0  0  -0.692254  0  2.334495  0  0  -0.371116  -0.630472  0  2.34985  0
O  O54  1  0.93059620  0.68705870  0.52423307  1  0  -0.712696  0  1.591856  0  0  -0.709798  0  1.891356  0  0  -0.732802  0  1.876635  0  0  -0.756849  -0.695559  0  1.902425  0
O  O55  1  0.06939417  0.81294617  0.02423126  1  0  -0.712854  0  1.591968  0  0  -0.7098  0  1.891524  0  0  -0.73282  0  1.876789  0  0  -0.756958  -0.695545  0  1.902613  0
O  O56  1  0.06942871  0.31294909  0.47576909  1  0  -0.713  0  1.591267  0  0  -0.710125  0  1.890703  0  0  -0.733139  0  1.875987  0  0  -0.756725  -0.695879  0  1.90177  0
O  O57  1  0.93058171  0.18705935  0.97576589  1  0  -0.71322  0  1.590971  0  0  -0.710225  0  1.890478  0  0  -0.733261  0  1.875745  0  0  -0.756684  -0.695956  0  1.901558  0
O  O58  1  0.66853079  0.41237227  0.57607177  1  0  -0.696849  0  2.118184  0  0  -0.686607  0  2.410879  0  0  -0.722883  0  2.39982  0  0  -0.383289  -0.660123  0  2.41727  0
O  O59  1  0.33145873  0.08763216  0.07607097  1  0  -0.696994  0  2.118114  0  0  -0.68665  0  2.410909  0  0  -0.72295  0  2.39984  0  0  -0.383302  -0.660154  0  2.417292  0
O  O60  1  0.33147878  0.58763771  0.42392983  1  0  -0.696891  0  2.118198  0  0  -0.686627  0  2.410936  0  0  -0.72292  0  2.399862  0  0  -0.383283  -0.660123  0  2.417344  0
O  O61  1  0.66852987  0.91236563  0.92392506  1  0  -0.697059  0  2.11822  0  0  -0.686758  0  2.411008  0  0  -0.723057  0  2.399939  0  0  -0.383348  -0.660253  0  2.417403  0
