# generated using pymatgen
data_Ag2HC5O4
_symmetry_space_group_name_H-M   'P 1'
_cell_length_a   6.66510702
_cell_length_b   9.05576685
_cell_length_c   18.92576725
_cell_angle_alpha   89.99999435
_cell_angle_beta   89.99979454
_cell_angle_gamma   100.85543276
_symmetry_Int_Tables_number   1
_chemical_formula_structural   Ag2HC5O4
_chemical_formula_sum   'Ag16 H8 C40 O32'
_cell_volume   1121.87378269
_cell_formula_units_Z   8
loop_
 _symmetry_equiv_pos_site_id
 _symmetry_equiv_pos_as_xyz
  1  'x, y, z'
loop_
 _atom_site_type_symbol
 _atom_site_label
 _atom_site_symmetry_multiplicity
 _atom_site_fract_x
 _atom_site_fract_y
 _atom_site_fract_z
 _atom_site_occupancy
 _atom_site_hle17_bader_spin_density
 _atom_site_hle17_ddec_charge
 _atom_site_hle17_ddec_spin_density
 _atom_site_hle17_ddec_sum_bond_order
 _atom_site_hle17_magmom
 _atom_site_hse06_10hf_bader_charge
 _atom_site_hse06_10hf_bader_spin_density
 _atom_site_hse06_10hf_ddec_charge
 _atom_site_hse06_10hf_ddec_spin_density
 _atom_site_hse06_10hf_ddec_sum_bond_order
 _atom_site_hse06_10hf_magmom
 _atom_site_hse06_bader_spin_density
 _atom_site_hse06_ddec_charge
 _atom_site_hse06_ddec_spin_density
 _atom_site_hse06_ddec_sum_bond_order
 _atom_site_hse06_magmom
 _atom_site_pbe_bader_spin_density
 _atom_site_pbe_cm5_charge
 _atom_site_pbe_ddec_charge
 _atom_site_pbe_ddec_spin_density
 _atom_site_pbe_ddec_sum_bond_order
 _atom_site_pbe_magmom
Ag  Ag0  1  0.83976414  0.30899666  0.24103857  1  0  0.639561  0  1.488619  0  0.677222  0  0.533138  0  1.958586  0  0  0.565692  0  1.893425  0  0  0.429782  0.510137  0  2.004105  0
Ag  Ag1  1  0.66023746  0.19099474  0.74103902  1  0  0.639585  0  1.488567  0  0.677417  0  0.533164  0  1.958537  0  0  0.565715  0  1.893367  0  0  0.429765  0.510171  0  2.004052  0
Ag  Ag2  1  0.16023480  0.69100887  0.75896145  1  0  0.639606  0  1.488517  0  0.67723  0  0.533158  0  1.958482  0  0  0.565718  0  1.893316  0  0  0.429768  0.510156  0  2.004001  0
Ag  Ag3  1  0.33976054  0.80899616  0.25896258  1  0  0.639524  0  1.488662  0  0.677378  0  0.5331  0  1.95863  0  0  0.565655  0  1.893462  0  0  0.429769  0.510106  0  2.004146  0
Ag  Ag4  1  0.90741260  0.00473229  0.25749757  1  0  0.673951  0  1.403253  0  0.700257  0  0.570466  0  1.854021  0  0  0.60077  0  1.794536  0  0  0.44238  0.549133  0  1.895605  0
Ag  Ag5  1  0.59258733  0.49525909  0.75749863  1  0  0.674  0  1.403099  0  0.700283  0  0.570506  0  1.853854  0  0  0.600811  0  1.794369  0  0  0.442369  0.549166  0  1.895445  0
Ag  Ag6  1  0.09259114  0.99527433  0.74250033  1  0  0.673959  0  1.403261  0  0.700252  0  0.570456  0  1.854031  0  0  0.600762  0  1.794545  0  0  0.442352  0.549118  0  1.895619  0
Ag  Ag7  1  0.40741098  0.50473293  0.24250298  1  0  0.673983  0  1.403208  0  0.700256  0  0.570496  0  1.85395  0  0  0.600801  0  1.794472  0  0  0.442381  0.549161  0  1.895537  0
Ag  Ag8  1  0.06117331  0.87408742  0.10823017  1  0  0.660375  0  1.385907  0  0.656507  0  0.546182  0  1.839668  0  0  0.581975  0  1.777701  0  0  0.454793  0.520677  0  1.883205  0
Ag  Ag9  1  0.43882839  0.62590768  0.60822657  1  0  0.660427  0  1.385793  0  0.65654  0  0.546237  0  1.839569  0  0  0.582037  0  1.777597  0  0  0.454806  0.520725  0  1.88311  0
Ag  Ag10  1  0.93882443  0.12591361  0.89177461  1  0  0.660403  0  1.385836  0  0.656649  0  0.546239  0  1.839611  0  0  0.58204  0  1.777631  0  0  0.454785  0.520724  0  1.883153  0
Ag  Ag11  1  0.56117054  0.37409222  0.39177239  1  0  0.660411  0  1.38585  0  0.656531  0  0.546217  0  1.839632  0  0  0.582019  0  1.777656  0  0  0.454809  0.520703  0  1.883178  0
Ag  Ag12  1  0.88384522  0.57060746  0.15137982  1  0  0.615049  0  1.327381  0  0.649739  0  0.484404  0  1.799233  0  0  0.529405  0  1.726977  0  0  0.411357  0.452048  0  1.850336  0
Ag  Ag13  1  0.61614365  0.92938576  0.65138032  1  0  0.615047  0  1.327393  0  0.649773  0  0.484413  0  1.799233  0  0  0.529414  0  1.726981  0  0  0.411355  0.452058  0  1.850335  0
Ag  Ag14  1  0.11614381  0.42938914  0.84861598  1  0  0.615016  0  1.327337  0  0.649737  0  0.484388  0  1.799165  0  0  0.529384  0  1.726908  0  0  0.411341  0.452034  0  1.850267  0
Ag  Ag15  1  0.38384508  0.07060971  0.34862076  1  0  0.615057  0  1.327414  0  0.649736  0  0.484418  0  1.799257  0  0  0.529418  0  1.727006  0  0  0.411381  0.452069  0  1.850361  0
H  H16  1  0.75111267  0.35680678  0.48339762  1  0  0.068799  0  1.047409  0  0.108833  0  0.076369  0  1.131651  0  0  0.080594  0  1.124872  0  0  0.084381  0.073338  0  1.136468  0
H  H17  1  0.74887946  0.14317524  0.98340060  1  0  0.068808  0  1.047403  0  0.108973  0  0.076347  0  1.131699  0  0  0.080566  0  1.124931  0  0  0.084392  0.073317  0  1.136516  0
H  H18  1  0.24889469  0.64320770  0.51659870  1  0  0.068843  0  1.047358  0  0.108704  0  0.076402  0  1.131621  0  0  0.080636  0  1.124824  0  0  0.084361  0.073369  0  1.13644  0
H  H19  1  0.25109693  0.85679666  0.01659783  1  0  0.068812  0  1.047385  0  0.108665  0  0.076407  0  1.131587  0  0  0.080637  0  1.124797  0  0  0.084372  0.073356  0  1.136428  0
H  H20  1  0.23948639  0.10335005  0.48193064  1  0  0.101411  0  0.966853  0  0.112438  0  0.108035  0  1.041266  0  0  0.112075  0  1.036153  0  0  0.103132  0.105026  0  1.045089  0
H  H21  1  0.26052596  0.39665176  0.98193730  1  0  0.10156  0  0.966763  0  0.112575  0  0.108179  0  1.041168  0  0  0.112226  0  1.036046  0  0  0.103244  0.105164  0  1.045002  0
H  H22  1  0.76051827  0.89666558  0.51806357  1  0  0.101408  0  0.966836  0  0.112392  0  0.108043  0  1.041231  0  0  0.112085  0  1.036119  0  0  0.103149  0.105029  0  1.045059  0
H  H23  1  0.73948616  0.60335255  0.01807012  1  0  0.101469  0  0.966784  0  0.112556  0  0.108065  0  1.041213  0  0  0.112104  0  1.036099  0  0  0.103173  0.105054  0  1.045039  0
C  C24  1  0.87630423  0.31432286  0.50843008  1  0  -0.019757  0  3.691413  0  0.022717  0  -0.055903  0  3.932823  0  0  -0.051761  0  3.951637  0  0  -0.06762  -0.058325  0  3.920093  0
C  C25  1  0.62369504  0.18566785  0.00843255  1  0  -0.019845  0  3.691718  0  0.022279  0  -0.05605  0  3.933243  0  0  -0.051909  0  3.952061  0  0  -0.06773  -0.058477  0  3.920514  0
C  C26  1  0.12370253  0.68568938  0.49156677  1  0  -0.019633  0  3.691394  0  0.022715  0  -0.055757  0  3.932802  0  0  -0.051617  0  3.951604  0  0  -0.067486  -0.058188  0  3.920085  0
C  C27  1  0.37628887  0.81431527  0.99156906  1  0  -0.019639  0  3.691473  0  0.022989  0  -0.05579  0  3.932888  0  0  -0.051646  0  3.951687  0  0  -0.067497  -0.058184  0  3.920163  0
C  C28  1  0.91583119  0.35594554  0.57861004  1  0  -0.085881  0  3.715103  0  -0.021368  0  -0.067553  0  3.951085  0  0  -0.077967  0  3.973858  0  0  -0.015419  -0.061074  0  3.936245  0
C  C29  1  0.58417243  0.14404726  0.07861308  1  0  -0.085991  0  3.715465  0  -0.021838  0  -0.067515  0  3.951403  0  0  -0.077931  0  3.974188  0  0  -0.015366  -0.061035  0  3.93656  0
C  C30  1  0.08417824  0.64405992  0.42138734  1  0  -0.086244  0  3.715297  0  -0.021336  0  -0.067892  0  3.951285  0  0  -0.078301  0  3.97406  0  0  -0.015579  -0.061412  0  3.936442  0
C  C31  1  0.41581987  0.85593917  0.92138746  1  0  -0.086131  0  3.715273  0  -0.020914  0  -0.067778  0  3.951278  0  0  -0.078188  0  3.974056  0  0  -0.015527  -0.061296  0  3.93643  0
C  C32  1  0.07322122  0.30430625  0.61541066  1  0  -0.035443  0  3.612459  0  -0.079502  0  -0.031229  0  3.850682  0  0  -0.029272  0  3.865303  0  0  0.009591  -0.032737  0  3.841636  0
C  C33  1  0.42678991  0.19569397  0.11541539  1  0  -0.035494  0  3.612542  0  -0.079205  0  -0.031386  0  3.850908  0  0  -0.029392  0  3.865461  0  0  0.009518  -0.032889  0  3.841861  0
C  C34  1  0.92678521  0.69569923  0.38458565  1  0  -0.035413  0  3.612393  0  -0.079783  0  -0.031163  0  3.850673  0  0  -0.029213  0  3.8653  0  0  0.009598  -0.032669  0  3.841626  0
C  C35  1  0.57320871  0.80429917  0.88458833  1  0  -0.035464  0  3.612548  0  -0.080141  0  -0.031252  0  3.850852  0  0  -0.029287  0  3.865463  0  0  0.009558  -0.032761  0  3.841802  0
C  C36  1  0.18947335  0.21369760  0.57828449  1  0  -0.065791  0  3.681948  0  0.047513  0  -0.048526  0  3.917719  0  0  -0.058156  0  3.939366  0  0  -0.010281  -0.042587  0  3.903587  0
C  C37  1  0.31053877  0.28630493  0.07828989  1  0  -0.065553  0  3.681737  0  0.047793  0  -0.048331  0  3.917532  0  0  -0.057964  0  3.939188  0  0  -0.010221  -0.042396  0  3.903398  0
C  C38  1  0.81053698  0.78631122  0.42171025  1  0  -0.065623  0  3.681857  0  0.047797  0  -0.048536  0  3.917798  0  0  -0.058165  0  3.939447  0  0  -0.010278  -0.042598  0  3.903662  0
C  C39  1  0.68945925  0.71369160  0.92171330  1  0  -0.065848  0  3.68212  0  0.047705  0  -0.048651  0  3.917962  0  0  -0.058283  0  3.93961  0  0  -0.010311  -0.042708  0  3.903821  0
C  C40  1  0.14694871  0.17506173  0.50754498  1  0  -0.035305  0  3.659062  0  -0.048931  0  -0.072293  0  3.91003  0  0  -0.067116  0  3.926251  0  0  -0.062687  -0.07534  0  3.898966  0
C  C41  1  0.35305995  0.32493645  0.00755244  1  0  -0.03561  0  3.658923  0  -0.049152  0  -0.07257  0  3.909915  0  0  -0.067401  0  3.926143  0  0  -0.062822  -0.075624  0  3.89887  0
C  C42  1  0.85305713  0.82494713  0.49244764  1  0  -0.035298  0  3.658825  0  -0.049137  0  -0.072227  0  3.909847  0  0  -0.067045  0  3.926046  0  0  -0.062722  -0.075285  0  3.898806  0
C  C43  1  0.64694048  0.67506344  0.99245287  1  0  -0.035257  0  3.659089  0  -0.049089  0  -0.072123  0  3.909998  0  0  -0.066956  0  3.926242  0  0  -0.062677  -0.075176  0  3.898974  0
C  C44  1  0.98847927  0.22474886  0.47151420  1  0  -0.066376  0  3.735177  0  0.053183  0  -0.039194  0  3.963628  0  0  -0.049846  0  3.986721  0  0  -0.01534  -0.032444  0  3.948262  0
C  C45  1  0.51152381  0.27524550  0.97151907  1  0  -0.066145  0  3.73479  0  0.053599  0  -0.038965  0  3.963245  0  0  -0.049621  0  3.986349  0  0  -0.015235  -0.03221  0  3.947871  0
C  C46  1  0.01152897  0.77525773  0.52848159  1  0  -0.066371  0  3.735042  0  0.053328  0  -0.039231  0  3.963541  0  0  -0.049889  0  3.986649  0  0  -0.015313  -0.032474  0  3.948165  0
C  C47  1  0.48846792  0.72474994  0.02848465  1  0  -0.066468  0  3.735313  0  0.05291  0  -0.039347  0  3.963859  0  0  -0.050005  0  3.986963  0  0  -0.015403  -0.03262  0  3.948518  0
C  C48  1  0.93871576  0.18597619  0.39601082  1  0  0.676284  0  3.828904  0  1.560896  0  0.620483  0  4.104625  0  0  0.658283  0  4.100638  0  0  0.215566  0.594297  0  4.106747  0
C  C49  1  0.56128244  0.31402510  0.89601404  1  0  0.676282  0  3.828992  0  1.560787  0  0.620555  0  4.10461  0  0  0.658359  0  4.10062  0  0  0.215578  0.594368  0  4.106736  0
C  C50  1  0.06128859  0.81403268  0.60398655  1  0  0.676405  0  3.828958  0  1.561145  0  0.620619  0  4.104687  0  0  0.658417  0  4.100695  0  0  0.215566  0.594432  0  4.106814  0
C  C51  1  0.43871349  0.68597482  0.10398915  1  0  0.676476  0  3.828754  0  1.560904  0  0.620652  0  4.104517  0  0  0.658452  0  4.100522  0  0  0.2156  0.594473  0  4.106644  0
C  C52  1  0.78608067  0.45694792  0.61086561  1  0  0.633428  0  3.921428  0  1.601866  0  0.581436  0  4.205552  0  0  0.616654  0  4.203332  0  0  0.198529  0.557395  0  4.206164  0
C  C53  1  0.71392230  0.04304369  0.11087061  1  0  0.633726  0  3.921374  0  1.601313  0  0.581575  0  4.20571  0  0  0.616788  0  4.203496  0  0  0.198642  0.557534  0  4.206323  0
C  C54  1  0.21392426  0.54305756  0.38913335  1  0  0.633579  0  3.921386  0  1.601732  0  0.581552  0  4.205548  0  0  0.616765  0  4.203332  0  0  0.198584  0.557513  0  4.20616  0
C  C55  1  0.28607060  0.95694498  0.88913152  1  0  0.633614  0  3.921122  0  1.601823  0  0.581571  0  4.205304  0  0  0.616782  0  4.203094  0  0  0.198592  0.55753  0  4.205917  0
C  C56  1  0.11726823  0.34967569  0.69181546  1  0  0.705137  0  3.844973  0  1.652495  0  0.643037  0  4.130169  0  0  0.682513  0  4.120996  0  0  0.209596  0.615535  0  4.135782  0
C  C57  1  0.38274240  0.15032552  0.19181919  1  0  0.704938  0  3.845011  0  1.652382  0  0.64288  0  4.13019  0  0  0.682356  0  4.121012  0  0  0.209468  0.615369  0  4.135814  0
C  C58  1  0.88273641  0.65032867  0.30818244  1  0  0.705065  0  3.844998  0  1.652424  0  0.642914  0  4.130302  0  0  0.682405  0  4.121107  0  0  0.209539  0.615405  0  4.135924  0
C  C59  1  0.61726192  0.84967208  0.80818347  1  0  0.705072  0  3.844798  0  1.65241  0  0.642931  0  4.130094  0  0  0.682403  0  4.120925  0  0  0.20952  0.615431  0  4.135705  0
C  C60  1  0.35728855  0.15332851  0.61459203  1  0  0.634866  0  3.907471  0  1.610125  0  0.579456  0  4.192317  0  0  0.615442  0  4.190144  0  0  0.195643  0.554818  0  4.192903  0
C  C61  1  0.14272859  0.34667730  0.11459763  1  0  0.634592  0  3.907556  0  1.610461  0  0.579307  0  4.192287  0  0  0.615288  0  4.190121  0  0  0.195647  0.55467  0  4.192871  0
C  C62  1  0.64272477  0.84667466  0.38540324  1  0  0.634377  0  3.907818  0  1.610285  0  0.579131  0  4.19252  0  0  0.615116  0  4.190351  0  0  0.195552  0.554491  0  4.193098  0
C  C63  1  0.85727392  0.65331919  0.88540608  1  0  0.634757  0  3.907376  0  1.610389  0  0.579353  0  4.192229  0  0  0.615339  0  4.190058  0  0  0.195578  0.554714  0  4.192814  0
O  O64  1  0.79074367  0.23307462  0.36552972  1  0  -0.658244  0  2.239095  0  -1.157841  0  -0.563464  0  2.527947  0  0  -0.600782  0  2.514937  0  0  -0.329516  -0.53714  0  2.536039  0
O  O65  1  0.70925815  0.26692782  0.86553116  1  0  -0.658269  0  2.239183  0  -1.157814  0  -0.563532  0  2.528041  0  0  -0.600845  0  2.515003  0  0  -0.329515  -0.537198  0  2.536111  0
O  O66  1  0.20925407  0.76692642  0.63446713  1  0  -0.658439  0  2.239299  0  -1.157935  0  -0.563632  0  2.528101  0  0  -0.60097  0  2.515142  0  0  -0.329571  -0.537293  0  2.536154  0
O  O67  1  0.29074169  0.73307545  0.13447044  1  0  -0.658273  0  2.239063  0  -1.157921  0  -0.563471  0  2.527909  0  0  -0.600803  0  2.514927  0  0  -0.329515  -0.537151  0  2.536002  0
O  O68  1  0.04437827  0.10459543  0.36278579  1  0  -0.639716  0  2.182847  0  -1.157309  0  -0.551269  0  2.477265  0  0  -0.588398  0  2.464035  0  0  -0.319688  -0.525025  0  2.485676  0
O  O69  1  0.45562367  0.39540780  0.86279167  1  0  -0.639702  0  2.182903  0  -1.157387  0  -0.551289  0  2.47731  0  0  -0.588417  0  2.46407  0  0  -0.319663  -0.525046  0  2.485727  0
O  O70  1  0.95561948  0.89541124  0.63721264  1  0  -0.639697  0  2.182812  0  -1.157534  0  -0.551253  0  2.477221  0  0  -0.588384  0  2.463991  0  0  -0.319642  -0.52501  0  2.485633  0
O  O71  1  0.54437678  0.60459772  0.13721363  1  0  -0.639825  0  2.182916  0  -1.157273  0  -0.551358  0  2.477341  0  0  -0.588484  0  2.464109  0  0  -0.319687  -0.525114  0  2.485752  0
O  O72  1  0.64389475  0.48847665  0.57175553  1  0  -0.599192  0  2.115796  0  -1.14674  0  -0.518151  0  2.389048  0  0  -0.553653  0  2.381536  0  0  -0.319396  -0.493112  0  2.393303  0
O  O73  1  0.85610384  0.01151395  0.07175982  1  0  -0.599246  0  2.115912  0  -1.147002  0  -0.51813  0  2.389233  0  0  -0.553628  0  2.38172  0  0  -0.319417  -0.493093  0  2.393488  0
O  O74  1  0.35610778  0.51152548  0.42824343  1  0  -0.599243  0  2.115736  0  -1.146637  0  -0.518179  0  2.389008  0  0  -0.553682  0  2.381496  0  0  -0.319434  -0.49314  0  2.393262  0
O  O75  1  0.14388277  0.98847365  0.92824231  1  0  -0.599171  0  2.115628  0  -1.146758  0  -0.5181  0  2.388899  0  0  -0.553603  0  2.381389  0  0  -0.319362  -0.493063  0  2.393152  0
O  O76  1  0.82761998  0.50427638  0.67328102  1  0  -0.637068  0  2.173848  0  -1.177421  0  -0.566379  0  2.458285  0  0  -0.596842  0  2.445251  0  0  -0.323689  -0.544836  0  2.466458  0
O  O77  1  0.67237315  0.99571676  0.17328553  1  0  -0.63719  0  2.173784  0  -1.176834  0  -0.566489  0  2.458334  0  0  -0.596951  0  2.4453  0  0  -0.323783  -0.544951  0  2.466511  0
O  O78  1  0.17237444  0.49571792  0.32671953  1  0  -0.637085  0  2.173846  0  -1.177434  0  -0.566393  0  2.4583  0  0  -0.596855  0  2.445269  0  0  -0.323712  -0.544855  0  2.466476  0
O  O79  1  0.32761979  0.00428318  0.82671766  1  0  -0.637217  0  2.173744  0  -1.177562  0  -0.566498  0  2.45819  0  0  -0.59696  0  2.445161  0  0  -0.323787  -0.544957  0  2.466364  0
O  O80  1  0.24933854  0.46815199  0.70324266  1  0  -0.673395  0  2.260107  0  -1.187279  0  -0.585557  0  2.553181  0  0  -0.621067  0  2.536836  0  0  -0.3328  -0.560467  0  2.563757  0
O  O81  1  0.25066267  0.03184814  0.20324867  1  0  -0.673339  0  2.260106  0  -1.18716  0  -0.585479  0  2.553125  0  0  -0.620991  0  2.536781  0  0  -0.332759  -0.560391  0  2.563707  0
O  O82  1  0.75065829  0.53184567  0.29675578  1  0  -0.673361  0  2.260061  0  -1.187261  0  -0.585489  0  2.553145  0  0  -0.621004  0  2.536793  0  0  -0.332767  -0.560395  0  2.563722  0
O  O83  1  0.74934045  0.96815060  0.79675769  1  0  -0.673374  0  2.260045  0  -1.187282  0  -0.585535  0  2.55315  0  0  -0.621043  0  2.536808  0  0  -0.332797  -0.560447  0  2.563726  0
O  O84  1  0.01823935  0.27221767  0.74158841  1  0  -0.663508  0  2.19599  0  -1.165365  0  -0.575062  0  2.489324  0  0  -0.611701  0  2.472659  0  0  -0.323601  -0.549132  0  2.500018  0
O  O85  1  0.48176505  0.22777900  0.24159412  1  0  -0.663404  0  2.195908  0  -1.165511  0  -0.574939  0  2.489143  0  0  -0.611613  0  2.472561  0  0  -0.323581  -0.549002  0  2.499838  0
O  O86  1  0.98175896  0.72777435  0.25840685  1  0  -0.663416  0  2.195987  0  -1.165499  0  -0.574969  0  2.489382  0  0  -0.611608  0  2.472707  0  0  -0.323592  -0.549034  0  2.500076  0
O  O87  1  0.51824048  0.77222310  0.75840748  1  0  -0.663395  0  2.195848  0  -1.165356  0  -0.574929  0  2.489192  0  0  -0.611584  0  2.472574  0  0  -0.323529  -0.548996  0  2.499881  0
O  O88  1  0.37762029  0.18392474  0.68082922  1  0  -0.652849  0  2.240693  0  -1.163232  0  -0.568089  0  2.531147  0  0  -0.602286  0  2.517853  0  0  -0.325602  -0.544048  0  2.539355  0
O  O89  1  0.12239616  0.31608095  0.18083591  1  0  -0.652746  0  2.240891  0  -1.163349  0  -0.568056  0  2.531333  0  0  -0.60225  0  2.518039  0  0  -0.32561  -0.544008  0  2.539538  0
O  O90  1  0.62238552  0.81607285  0.31916498  1  0  -0.652647  0  2.240874  0  -1.163392  0  -0.567949  0  2.531273  0  0  -0.602144  0  2.517977  0  0  -0.325593  -0.543904  0  2.539476  0
O  O91  1  0.87760246  0.68391219  0.81916727  1  0  -0.652853  0  2.240745  0  -1.163189  0  -0.568064  0  2.531179  0  0  -0.60226  0  2.517883  0  0  -0.325568  -0.54402  0  2.539387  0
O  O92  1  0.46067635  0.07466580  0.57993234  1  0  -0.576411  0  2.025633  0  -1.148788  0  -0.500421  0  2.278555  0  0  -0.534628  0  2.271003  0  0  -0.309072  -0.476213  0  2.282893  0
O  O93  1  0.03934385  0.42533892  0.07993754  1  0  -0.576307  0  2.025658  0  -1.148706  0  -0.50035  0  2.278541  0  0  -0.534562  0  2.271001  0  0  -0.309075  -0.476131  0  2.282847  0
O  O94  1  0.53933548  0.92534301  0.42005976  1  0  -0.576203  0  2.025777  0  -1.14865  0  -0.500235  0  2.278645  0  0  -0.534451  0  2.271102  0  0  -0.308993  -0.476027  0  2.282979  0
O  O95  1  0.96066496  0.57465865  0.92006617  1  0  -0.576299  0  2.025578  0  -1.14879  0  -0.500308  0  2.278507  0  0  -0.534522  0  2.270962  0  0  -0.309031  -0.476104  0  2.282843  0
