# generated using pymatgen
data_Tb2ZnH20C32(NO5)4
_symmetry_space_group_name_H-M   'P 1'
_cell_length_a   12.56950057
_cell_length_b   13.28668033
_cell_length_c   15.30877038
_cell_angle_alpha   115.74063017
_cell_angle_beta   114.23138132
_cell_angle_gamma   89.95665484
_symmetry_Int_Tables_number   1
_chemical_formula_structural   Tb2ZnH20C32(NO5)4
_chemical_formula_sum   'Tb4 Zn2 H40 C64 N8 O40'
_cell_volume   2050.45596556
_cell_formula_units_Z   2
loop_
 _symmetry_equiv_pos_site_id
 _symmetry_equiv_pos_as_xyz
  1  'x, y, z'
loop_
 _atom_site_type_symbol
 _atom_site_label
 _atom_site_symmetry_multiplicity
 _atom_site_fract_x
 _atom_site_fract_y
 _atom_site_fract_z
 _atom_site_occupancy
 _atom_site_pbe_bader_charge
 _atom_site_pbe_bader_spin_density
 _atom_site_pbe_cm5_charge
 _atom_site_pbe_ddec_charge
 _atom_site_pbe_ddec_spin_density
 _atom_site_pbe_ddec_sum_bond_order
 _atom_site_pbe_magmom
Tb  Tb0  1  0.73579921  0.41249594  0.69313365  1  2.165214  0  1.519587  2.030439  0  2.12746  0
Tb  Tb1  1  0.04262013  0.58751931  0.30704771  1  2.16526  0  1.519604  2.031505  0  2.126809  0
Tb  Tb2  1  0.23603767  0.28069185  0.69324751  1  2.166808  0  1.518887  2.030695  0  2.12698  0
Tb  Tb3  1  0.54211768  0.71960922  0.30676037  1  2.169947  0  1.519024  2.031073  0  2.126011  0
Zn  Zn4  1  0.87984358  0.49985716  0.00014579  1  1.368875  0  0.739072  1.039954  0  2.098245  0
Zn  Zn5  1  0.37975588  0.49993953  0.99978610  1  1.368124  0  0.738567  1.038752  0  2.100955  0
H  H6  1  0.92267192  0.17782058  0.97899277  1  0.148119  0  0.110442  0.112582  0  1.040286  0
H  H7  1  0.94329205  0.82163665  0.02093841  1  0.106935  0  0.110283  0.112733  0  1.039647  0
H  H8  1  0.42287538  0.80120337  0.97915754  1  0.109119  0  0.110412  0.112416  0  1.041434  0
H  H9  1  0.44358618  0.19921398  0.02090665  1  0.097088  0  0.109993  0.111656  0  1.041152  0
H  H10  1  0.71029943  0.07222333  0.63717352  1  0.111722  0  0.116816  0.123916  0  0.996564  0
H  H11  1  0.07288400  0.92771441  0.36290035  1  0.113301  0  0.116804  0.123922  0  0.996737  0
H  H12  1  0.21049205  0.56512391  0.63729449  1  0.125081  0  0.116951  0.124196  0  0.996197  0
H  H13  1  0.57283643  0.43523963  0.36281493  1  0.119314  0  0.116651  0.123856  0  0.996273  0
H  H14  1  0.84519326  0.22538900  0.64721125  1  0.617507  0  0.32715  0.410618  0  0.888093  0
H  H15  1  0.19771794  0.77494624  0.35297916  1  0.616281  0  0.327544  0.411192  0  0.886299  0
H  H16  1  0.34542653  0.42177296  0.64732095  1  0.643744  0  0.327576  0.411478  0  0.888578  0
H  H17  1  0.69752611  0.57829833  0.35251056  1  0.645513  0  0.327581  0.411525  0  0.88839  0
H  H18  1  0.75362723  0.21466866  0.53362361  1  0.650117  0  0.302344  0.391067  0  0.947005  0
H  H19  1  0.21945391  0.78557851  0.46647843  1  0.647962  0  0.302744  0.392062  0  0.945795  0
H  H20  1  0.25375734  0.31889710  0.53381081  1  0.653381  0  0.302656  0.391933  0  0.945723  0
H  H21  1  0.71936381  0.68093454  0.46616913  1  0.658533  0  0.30312  0.393076  0  0.944142  0
H  H22  1  0.53944300  0.22896441  0.54659989  1  0.636942  0  0.313326  0.406026  0  0.905979  0
H  H23  1  0.99222607  0.77079271  0.45353935  1  0.623083  0  0.312949  0.405173  0  0.907436  0
H  H24  1  0.03921467  0.31773776  0.54680912  1  0.641916  0  0.313614  0.406326  0  0.90526  0
H  H25  1  0.49222068  0.68272176  0.45329679  1  0.639173  0  0.313277  0.405749  0  0.906593  0
H  H26  1  0.46517077  0.30511545  0.60448239  1  0.653887  0  0.306966  0.428731  0  0.885461  0
H  H27  1  0.86017825  0.69461136  0.39557417  1  0.656829  0  0.306626  0.428264  0  0.886071  0
H  H28  1  0.96517988  0.29918776  0.60466950  1  0.65807  0  0.307112  0.428361  0  0.885901  0
H  H29  1  0.36017274  0.70125027  0.39568980  1  0.664198  0  0.306814  0.42805  0  0.886514  0
H  H30  1  0.68704605  0.79986868  0.87851474  1  0.131683  0  0.115273  0.121064  0  1.017159  0
H  H31  1  0.80896817  0.19985168  0.12178368  1  0.141986  0  0.115635  0.121622  0  1.016396  0
H  H32  1  0.18649574  0.07836127  0.87798865  1  0.134301  0  0.115307  0.120977  0  1.017657  0
H  H33  1  0.30777333  0.92143326  0.12126200  1  0.128863  0  0.115735  0.122235  0  1.015692  0
H  H34  1  0.66834575  0.59348344  0.02769452  1  0.102375  0  0.110931  0.115947  0  1.019543  0
H  H35  1  0.64135657  0.40658898  0.97286504  1  0.100606  0  0.110986  0.115291  0  1.020517  0
H  H36  1  0.16886489  0.43426759  0.02781427  1  0.119333  0  0.111014  0.116098  0  1.018845  0
H  H37  1  0.14076275  0.56563452  0.97178560  1  0.116249  0  0.110939  0.115402  0  1.018956  0
H  H38  1  0.77776868  0.81970816  0.74640877  1  0.116773  0  0.119301  0.132254  0  0.989914  0
H  H39  1  0.03190528  0.17995523  0.25339135  1  0.154318  0  0.119339  0.132117  0  0.990094  0
H  H40  1  0.27818281  0.92683315  0.74664407  1  0.131792  0  0.119437  0.132141  0  0.990055  0
H  H41  1  0.53205150  0.07348792  0.25339182  1  0.136353  0  0.119448  0.13223  0  0.991027  0
H  H42  1  0.68478378  0.95443953  0.19049540  1  0.125279  0  0.119474  0.130762  0  0.987272  0
H  H43  1  0.49493554  0.04575330  0.80986991  1  0.122223  0  0.119437  0.130345  0  0.988214  0
H  H44  1  0.18471469  0.23593041  0.19023457  1  0.126006  0  0.119457  0.130823  0  0.986848  0
H  H45  1  0.99423950  0.76364434  0.80889741  1  0.134851  0  0.119521  0.130774  0  0.988051  0
C  C46  1  0.64678907  0.75397191  0.19553864  1  1.531095  0  0.189475  0.578329  0  4.216047  0
C  C47  1  0.45189775  0.24635954  0.80502599  1  1.532711  0  0.189831  0.579116  0  4.212339  0
C  C48  1  0.14714010  0.44170805  0.19559297  1  1.523209  0  0.18977  0.578082  0  4.214035  0
C  C49  1  0.95145140  0.55816360  0.80404518  1  1.535705  0  0.189552  0.579173  0  4.213823  0
C  C50  1  0.67442011  0.84181868  0.56518208  1  1.571922  0  0.217539  0.596253  0  4.200101  0
C  C51  1  0.10993685  0.15815039  0.43483464  1  1.584613  0  0.21739  0.596455  0  4.198055  0
C  C52  1  0.17474402  0.72347648  0.56535369  1  1.568224  0  0.217209  0.596142  0  4.198954  0
C  C53  1  0.60975135  0.27670228  0.43473534  1  1.56591  0  0.217523  0.597408  0  4.195747  0
C  C54  1  0.73942920  0.93667227  0.67970892  1  0.002695  0  -0.014117  -0.026605  0  3.968132  0
C  C55  1  0.05998076  0.06318121  0.32028626  1  -0.008216  0  -0.014046  -0.026963  0  3.967928  0
C  C56  1  0.23979097  0.74316280  0.67986408  1  0.04051  0  -0.014269  -0.027478  0  3.970109  0
C  C57  1  0.56004244  0.25716074  0.32022466  1  0.006319  0  -0.014833  -0.028493  0  3.970793  0
C  C58  1  0.87142682  0.11083893  0.89529232  1  -0.022152  0  -0.064974  -0.129567  0  3.897973  0
C  C59  1  0.97579235  0.88871853  0.10464708  1  0.008942  0  -0.064539  -0.129178  0  3.899337  0
C  C60  1  0.37164020  0.78444205  0.89545722  1  0.005142  0  -0.064755  -0.128275  0  3.896884  0
C  C61  1  0.47610842  0.21590036  0.10461165  1  0.004648  0  -0.064227  -0.127341  0  3.896911  0
C  C62  1  0.81899881  0.13851974  0.81128826  1  -0.077471  0  -0.016308  -0.044809  0  3.971454  0
C  C63  1  0.00730408  0.86121825  0.18875155  1  0.024366  0  -0.016074  -0.043415  0  3.971918  0
C  C64  1  0.31915825  0.67281776  0.81140559  1  -0.034771  0  -0.016247  -0.044093  0  3.972798  0
C  C65  1  0.50753833  0.32752449  0.18869016  1  0.008088  0  -0.016191  -0.044207  0  3.971744  0
C  C66  1  0.75276528  0.05129102  0.70322672  1  -0.009929  0  -0.059435  -0.073361  0  3.865468  0
C  C67  1  0.04936281  0.94853105  0.29679156  1  -0.049455  0  -0.059829  -0.074311  0  3.865531  0
C  C68  1  0.25301122  0.65204091  0.70336922  1  0.002399  0  -0.059465  -0.073507  0  3.866816  0
C  C69  1  0.54944605  0.34829220  0.29674475  1  -0.026063  0  -0.059624  -0.073712  0  3.867202  0
C  C70  1  0.82833907  0.26095749  0.83565759  1  1.570994  0  0.238467  0.641451  0  4.118124  0
C  C71  1  0.99226014  0.73880209  0.16445733  1  1.566064  0  0.238665  0.641291  0  4.118721  0
C  C72  1  0.32845350  0.57469065  0.83568332  1  1.571951  0  0.237466  0.638659  0  4.120298  0
C  C73  1  0.49236321  0.42564175  0.16438032  1  1.567546  0  0.238083  0.640103  0  4.12032  0
C  C74  1  0.85516247  0.99576279  0.87173447  1  0.334565  0  0.087078  0.153493  0  4.061322  0
C  C75  1  0.98338864  0.00376059  0.12815774  1  0.274084  0  0.0869  0.152896  0  4.061789  0
C  C76  1  0.35545994  0.87597183  0.87186759  1  0.427924  0  0.086667  0.152751  0  4.061248  0
C  C77  1  0.48367622  0.12437214  0.12815015  1  0.370669  0  0.087035  0.153247  0  4.061191  0
C  C78  1  0.68394705  0.79139359  0.94506807  1  -0.052381  0  -0.056456  -0.125079  0  3.857108  0
C  C79  1  0.73941211  0.20844164  0.05527319  1  -0.068392  0  -0.056832  -0.125552  0  3.856487  0
C  C80  1  0.18363349  0.15343153  0.94468529  1  -0.051609  0  -0.05659  -0.124209  0  3.856608  0
C  C81  1  0.23831664  0.84636247  0.05462451  1  -0.019171  0  -0.057662  -0.127881  0  3.855621  0
C  C82  1  0.67471219  0.67590022  0.02921316  1  -0.031467  0  -0.062637  -0.077406  0  3.891321  0
C  C83  1  0.64605893  0.32411548  0.97125474  1  -0.017031  0  -0.063227  -0.077175  0  3.892759  0
C  C84  1  0.17487655  0.35325995  0.02915099  1  -0.000416  0  -0.062779  -0.077749  0  3.891364  0
C  C85  1  0.14545653  0.64658963  0.97035702  1  0.013062  0  -0.06282  -0.076429  0  3.889683  0
C  C86  1  0.78998149  0.90900175  0.76435461  1  0.019978  0  -0.055254  -0.124655  0  3.86819  0
C  C87  1  0.02592003  0.09068433  0.23554714  1  -0.013831  0  -0.055278  -0.124237  0  3.867944  0
C  C88  1  0.29036093  0.85544034  0.76451556  1  -0.16293  0  -0.055277  -0.123972  0  3.867272  0
C  C89  1  0.52611815  0.14489845  0.23554074  1  -0.072446  0  -0.055368  -0.124588  0  3.86931  0
C  C90  1  0.68277828  0.68595149  0.94490470  1  0.035084  0  -0.01427  -0.030052  0  3.979296  0
C  C91  1  0.73838998  0.31389157  0.05549724  1  0.052791  0  -0.01398  -0.029936  0  3.979347  0
C  C92  1  0.18264324  0.25878121  0.94466061  1  -0.019624  0  -0.01404  -0.030265  0  3.979531  0
C  C93  1  0.23748173  0.74109423  0.05479765  1  -0.013186  0  -0.013987  -0.029056  0  3.978171  0
C  C94  1  0.67215529  0.77137214  0.11595258  1  0.030699  0  -0.009933  -0.010659  0  3.960771  0
C  C95  1  0.55682624  0.22882872  0.88455211  1  -0.010399  0  -0.009585  -0.011047  0  3.959949  0
C  C96  1  0.17231098  0.34452864  0.11584427  1  0.004417  0  -0.009769  -0.009799  0  3.959826  0
C  C97  1  0.05627249  0.65524374  0.88354506  1  -0.026457  0  -0.010271  -0.011987  0  3.961306  0
C  C98  1  0.68619586  0.88805850  0.03478842  1  0.371008  0  0.090449  0.155344  0  4.047709  0
C  C99  1  0.65192371  0.11190227  0.96549416  1  0.3518  0  0.090156  0.154732  0  4.047172  0
C  C100  1  0.18592222  0.14651164  0.03441744  1  0.355846  0  0.090386  0.154618  0  4.047613  0
C  C101  1  0.15100945  0.85319435  0.96476869  1  0.336046  0  0.090502  0.155992  0  4.042297  0
C  C102  1  0.68351431  0.87883005  0.12164231  1  -0.030869  0  -0.053421  -0.12653  0  3.861863  0
C  C103  1  0.56249038  0.12127191  0.87871262  1  -0.007926  0  -0.052851  -0.124587  0  3.862426  0
C  C104  1  0.18346491  0.24265703  0.12137923  1  0.002007  0  -0.052913  -0.125946  0  3.864387  0
C  C105  1  0.06179488  0.75700425  0.87783640  1  0.001953  0  -0.052614  -0.125434  0  3.86317  0
C  C106  1  0.68955324  0.58362067  0.85601479  1  1.506991  0  0.212576  0.605874  0  4.150052  0
C  C107  1  0.83390478  0.41620849  0.14437598  1  1.502283  0  0.212894  0.605654  0  4.150101  0
C  C108  1  0.18941010  0.27220969  0.85578762  1  1.507838  0  0.212629  0.605066  0  4.149174  0
C  C109  1  0.33308594  0.72779172  0.14378350  1  1.504977  0  0.212689  0.604975  0  4.149768  0
N  N110  1  0.69111022  0.99923553  0.04504486  1  -0.450193  0  -0.139147  -0.117353  0  3.278264  0
N  N111  1  0.64639164  0.00069860  0.95524107  1  -0.46962  0  -0.139148  -0.117613  0  3.278337  0
N  N112  1  0.19055815  0.04543260  0.04446530  1  -0.460902  0  -0.138952  -0.116489  0  3.27847  0
N  N113  1  0.14565711  0.95420776  0.95461031  1  -0.451064  0  -0.139928  -0.119479  0  3.278195  0
N  N114  1  0.89717314  0.95934601  0.95146952  1  -0.455953  0  -0.144821  -0.124253  0  3.299875  0
N  N115  1  0.94579668  0.04012352  0.04837571  1  -0.480731  0  -0.143704  -0.123489  0  3.300485  0
N  N116  1  0.39752591  0.99208560  0.95156271  1  -0.464294  0  -0.14425  -0.12422  0  3.300881  0
N  N117  1  0.44601768  0.00822885  0.04844895  1  -0.506597  0  -0.143932  -0.123574  0  3.300114  0
O  O118  1  0.60650696  0.65078942  0.17009135  1  -1.173053  0  -0.401752  -0.659028  0  2.233993  0
O  O119  1  0.43663188  0.34953267  0.83069771  1  -1.178192  0  -0.401671  -0.659964  0  2.233989  0
O  O120  1  0.10675628  0.51948325  0.17019971  1  -1.178903  0  -0.401952  -0.659395  0  2.233842  0
O  O121  1  0.93661630  0.48061227  0.82973460  1  -1.180651  0  -0.402127  -0.659177  0  2.231672  0
O  O122  1  0.65688866  0.83852999  0.28305960  1  -1.167876  0  -0.385494  -0.61062  0  2.11791  0
O  O123  1  0.37488513  0.16185939  0.71720806  1  -1.168993  0  -0.38532  -0.610534  0  2.116999  0
O  O124  1  0.15748028  0.44475281  0.28320812  1  -1.162572  0  -0.385711  -0.610851  0  2.117107  0
O  O125  1  0.87410020  0.55499412  0.71643427  1  -1.167198  0  -0.385462  -0.610762  0  2.118504  0
O  O126  1  0.88474637  0.33795709  0.93579302  1  -1.164092  0  -0.301256  -0.551351  0  2.354769  0
O  O127  1  0.94874259  0.66173252  0.06435668  1  -1.161483  0  -0.301162  -0.551013  0  2.354539  0
O  O128  1  0.38489612  0.59774885  0.93579830  1  -1.157068  0  -0.300614  -0.549752  0  2.35599  0
O  O129  1  0.44872587  0.40246323  0.06423104  1  -1.157801  0  -0.300849  -0.549937  0  2.356584  0
O  O130  1  0.63639955  0.86639252  0.48705320  1  -1.191619  0  -0.402278  -0.656479  0  2.20538  0
O  O131  1  0.15022257  0.13366098  0.51302161  1  -1.190941  0  -0.40193  -0.655841  0  2.204325  0
O  O132  1  0.13682767  0.62080231  0.48726098  1  -1.190197  0  -0.40164  -0.655311  0  2.205685  0
O  O133  1  0.64972671  0.37932650  0.51292099  1  -1.191468  0  -0.401664  -0.655536  0  2.20411  0
O  O134  1  0.66287137  0.73902368  0.55038999  1  -1.186154  0  -0.32323  -0.588855  0  2.130096  0
O  O135  1  0.11335310  0.26094638  0.44958108  1  -1.184957  0  -0.323301  -0.589004  0  2.129563  0
O  O136  1  0.16301951  0.81149673  0.55055244  1  -1.185931  0  -0.323352  -0.589021  0  2.129028  0
O  O137  1  0.61322404  0.18858807  0.44940937  1  -1.182727  0  -0.323038  -0.589022  0  2.128597  0
O  O138  1  0.72854722  0.49960233  0.87305979  1  -1.191676  0  -0.363251  -0.665341  0  2.373713  0
O  O139  1  0.85569982  0.50019041  0.12723564  1  -1.192314  0  -0.363876  -0.665929  0  2.373954  0
O  O140  1  0.22825550  0.37333213  0.87287209  1  -1.185336  0  -0.363531  -0.665004  0  2.372318  0
O  O141  1  0.35520117  0.62675174  0.12673424  1  -1.192289  0  -0.362877  -0.66446  0  2.37376  0
O  O142  1  0.83275156  0.26091170  0.60052137  1  -1.247111  0  -0.585585  -0.798694  0  2.051361  0
O  O143  1  0.23185041  0.73936647  0.39964028  1  -1.243181  0  -0.585497  -0.799722  0  2.049346  0
O  O144  1  0.33295281  0.33951690  0.60066052  1  -1.277065  0  -0.586204  -0.800557  0  2.051483  0
O  O145  1  0.73169697  0.66051941  0.39935227  1  -1.283986  0  -0.585916  -0.800837  0  2.051376  0
O  O146  1  0.54620430  0.29032739  0.61584162  1  -1.275332  0  -0.643529  -0.856731  0  1.991553  0
O  O147  1  0.92990741  0.70938401  0.38430221  1  -1.263385  0  -0.643141  -0.855831  0  1.992191  0
O  O148  1  0.04615599  0.32542468  0.61601159  1  -1.284723  0  -0.643442  -0.856395  0  1.99124  0
O  O149  1  0.42973086  0.67494092  0.38413803  1  -1.286412  0  -0.643864  -0.8564  0  1.992077  0
O  O150  1  0.65795947  0.57580803  0.76287180  1  -1.156973  0  -0.370569  -0.591143  0  2.114317  0
O  O151  1  0.89540897  0.42413506  0.23754818  1  -1.158429  0  -0.370357  -0.59067  0  2.115713  0
O  O152  1  0.15803671  0.18689913  0.76266023  1  -1.161891  0  -0.370611  -0.590814  0  2.114611  0
O  O153  1  0.39443518  0.81311083  0.23693908  1  -1.162302  0  -0.37065  -0.591235  0  2.114329  0
O  O154  1  0.77835030  0.27948652  0.75514606  1  -1.200241  0  -0.399785  -0.666817  0  2.394823  0
O  O155  1  0.02264853  0.72040453  0.24504078  1  -1.198177  0  -0.40041  -0.66749  0  2.396168  0
O  O156  1  0.27840922  0.47568292  0.75512804  1  -1.20697  0  -0.399275  -0.665901  0  2.395411  0
O  O157  1  0.52269156  0.52466205  0.24487773  1  -1.206901  0  -0.399847  -0.667072  0  2.396831  0
