# generated using pymatgen
data_Dy2H20C28N2O17
_symmetry_space_group_name_H-M   'P 1'
_cell_length_a   10.25457091
_cell_length_b   12.07861868
_cell_length_c   12.97550000
_cell_angle_alpha   74.64782446
_cell_angle_beta   76.14963061
_cell_angle_gamma   71.20797060
_symmetry_Int_Tables_number   1
_chemical_formula_structural   Dy2H20C28N2O17
_chemical_formula_sum   'Dy4 H40 C56 N4 O34'
_cell_volume   1446.14197221
_cell_formula_units_Z   2
loop_
 _symmetry_equiv_pos_site_id
 _symmetry_equiv_pos_as_xyz
  1  'x, y, z'
loop_
 _atom_site_type_symbol
 _atom_site_label
 _atom_site_symmetry_multiplicity
 _atom_site_fract_x
 _atom_site_fract_y
 _atom_site_fract_z
 _atom_site_occupancy
 _atom_site_hle17_bader_spin_density
 _atom_site_hle17_ddec_charge
 _atom_site_hle17_ddec_spin_density
 _atom_site_hle17_ddec_sum_bond_order
 _atom_site_hle17_magmom
 _atom_site_hse06_10hf_bader_spin_density
 _atom_site_hse06_10hf_ddec_charge
 _atom_site_hse06_10hf_ddec_spin_density
 _atom_site_hse06_10hf_ddec_sum_bond_order
 _atom_site_hse06_10hf_magmom
 _atom_site_hse06_bader_spin_density
 _atom_site_hse06_ddec_charge
 _atom_site_hse06_ddec_spin_density
 _atom_site_hse06_ddec_sum_bond_order
 _atom_site_hse06_magmom
 _atom_site_pbe_bader_charge
 _atom_site_pbe_bader_spin_density
 _atom_site_pbe_cm5_charge
 _atom_site_pbe_ddec_charge
 _atom_site_pbe_ddec_spin_density
 _atom_site_pbe_ddec_sum_bond_order
 _atom_site_pbe_magmom
Dy  Dy0  1  0.19491360  0.71988601  0.55125203  1  0  2.254526  0  1.616064  0  0  2.109684  0  2.090108  0  0  2.236438  0  1.901317  0  2.183389  0  1.503174  2.074495  0  2.121103  0
Dy  Dy1  1  0.80508450  0.28011340  0.44874910  1  0  2.254523  0  1.616011  0  0  2.109673  0  2.090072  0  0  2.236437  0  1.901253  0  2.183396  0  1.503213  2.074446  0  2.121119  0
Dy  Dy2  1  0.79345490  0.77981026  0.39282238  1  0  2.235375  0  1.641066  0  0  2.08771  0  2.117601  0  0  2.215333  0  1.928229  0  2.175215  0  1.498217  2.049732  0  2.151304  0
Dy  Dy3  1  0.20654492  0.22019004  0.60717666  1  0  2.235386  0  1.641137  0  0  2.087715  0  2.117665  0  0  2.215333  0  1.928305  0  2.175195  0  1.498186  2.049738  0  2.151366  0
H  H4  1  0.10976263  0.57957829  0.42635047  1  0  0.44832  0  0.847337  0  0  0.416  0  0.913119  0  0  0.426629  0  0.897885  0  0.650474  0  0.307072  0.408679  0  0.923806  0
H  H5  1  0.89023518  0.42042201  0.57365049  1  0  0.448319  0  0.847343  0  0  0.416001  0  0.913123  0  0  0.426628  0  0.897893  0  0.650484  0  0.307068  0.408679  0  0.923812  0
H  H6  1  0.26233477  0.50877050  0.44310554  1  0  0.453733  0  0.802208  0  0  0.431177  0  0.862487  0  0  0.440414  0  0.8499  0  0.631307  0  0.325115  0.42493  0  0.869898  0
H  H7  1  0.73766404  0.49122980  0.55689523  1  0  0.453733  0  0.802193  0  0  0.431175  0  0.862477  0  0  0.440412  0  0.849899  0  0.631301  0  0.325114  0.424928  0  0.869889  0
H  H8  1  0.30926492  0.46673089  0.64263625  1  0  0.440616  0  0.86085  0  0  0.410184  0  0.923082  0  0  0.422041  0  0.906099  0  0.679793  0  0.299369  0.402034  0  0.934895  0
H  H9  1  0.69073489  0.53326941  0.35736432  1  0  0.440592  0  0.86088  0  0  0.410126  0  0.923157  0  0  0.421984  0  0.906173  0  0.679793  0  0.299353  0.40198  0  0.934963  0
H  H10  1  0.31722492  0.53893228  0.72927044  1  0  0.435694  0  0.867728  0  0  0.403722  0  0.932863  0  0  0.415784  0  0.915637  0  0.652889  0  0.292398  0.395199  0  0.945226  0
H  H11  1  0.68277719  0.46106712  0.27073069  1  0  0.435716  0  0.867709  0  0  0.403746  0  0.932842  0  0  0.41581  0  0.915611  0  0.652901  0  0.292416  0.395222  0  0.945205  0
H  H12  1  0.70837148  0.00700288  0.46916089  1  0  0.448465  0  0.833663  0  0  0.42188  0  0.8942  0  0  0.432791  0  0.878458  0  0.64349  0  0.312306  0.414417  0  0.905131  0
H  H13  1  0.29162934  0.99299742  0.53083872  1  0  0.448453  0  0.833679  0  0  0.421865  0  0.894221  0  0  0.432777  0  0.878477  0  0.643474  0  0.312294  0.414403  0  0.905152  0
H  H14  1  0.86838599  0.97071220  0.45182020  1  0  0.450105  0  0.839284  0  0  0.421966  0  0.898019  0  0  0.432106  0  0.883535  0  0.644856  0  0.313753  0.414907  0  0.908336  0
H  H15  1  0.13161411  0.02928721  0.54817977  1  0  0.450123  0  0.839245  0  0  0.421981  0  0.897994  0  0  0.432122  0  0.883509  0  0.644848  0  0.313754  0.414924  0  0.908306  0
H  H16  1  0.97332836  0.25251639  0.08645350  1  0  0.105768  0  0.958247  0  0  0.116467  0  1.018716  0  0  0.119901  0  1.016305  0  0.099278  0  0.107854  0.114071  0  1.020308  0
H  H17  1  0.02667418  0.74748481  0.91354788  1  0  0.105773  0  0.958245  0  0  0.116471  0  1.018717  0  0  0.119904  0  1.016305  0  0.099284  0  0.107856  0.114075  0  1.020308  0
H  H18  1  0.14170208  0.18045793  0.92459591  1  0  0.119765  0  0.969181  0  0  0.126499  0  1.032058  0  0  0.130972  0  1.028734  0  0.151448  0  0.108275  0.123331  0  1.034497  0
H  H19  1  0.85829759  0.81953970  0.07540304  1  0  0.119764  0  0.969193  0  0  0.126495  0  1.032076  0  0  0.130967  0  1.028756  0  0.151581  0  0.108258  0.123328  0  1.034516  0
H  H20  1  0.30163676  0.97331807  0.95348871  1  0  0.105704  0  0.963865  0  0  0.114025  0  1.028321  0  0  0.116938  0  1.027039  0  0.066454  0  0.105125  0.11192  0  1.029286  0
H  H21  1  0.69835990  0.02667955  0.04651159  1  0  0.105685  0  0.963822  0  0  0.114067  0  1.028214  0  0  0.116981  0  1.026928  0  0.066672  0  0.105132  0.111962  0  1.029179  0
H  H22  1  0.63746213  0.67905509  0.18970580  1  0  0.143237  0  0.940567  0  0  0.152888  0  0.997361  0  0  0.157175  0  0.995798  0  0.133065  0  0.119559  0.15002  0  0.998292  0
H  H23  1  0.36253797  0.32094432  0.81029572  1  0  0.143232  0  0.940599  0  0  0.152874  0  0.997403  0  0  0.157187  0  0.995805  0  0.13309  0  0.119543  0.150006  0  0.998332  0
H  H24  1  0.46542009  0.87879394  0.15839448  1  0  0.089506  0  0.953958  0  0  0.099932  0  1.017264  0  0  0.102167  0  1.015524  0  0.129106  0  0.123503  0.098249  0  1.018578  0
H  H25  1  0.53458044  0.12120726  0.84160574  1  0  0.089541  0  0.953959  0  0  0.099967  0  1.017263  0  0  0.102202  0  1.015523  0  0.129126  0  0.123514  0.098284  0  1.018578  0
H  H26  1  0.16741749  0.73771526  0.11348569  1  0  0.100096  0  0.928529  0  0  0.111362  0  0.988258  0  0  0.113625  0  0.986296  0  0.122694  0  0.12861  0.109699  0  0.989586  0
H  H27  1  0.83258304  0.26228593  0.88651376  1  0  0.100092  0  0.928533  0  0  0.111338  0  0.988283  0  0  0.1136  0  0.986325  0  0.122693  0  0.128615  0.109693  0  0.989596  0
H  H28  1  0.32906827  0.53134695  0.13730277  1  0  0.108317  0  1.013201  0  0  0.115656  0  1.079734  0  0  0.117448  0  1.082701  0  0.088235  0  0.100977  0.114384  0  1.077845  0
H  H29  1  0.67093384  0.46865246  0.86269914  1  0  0.10833  0  1.013184  0  0  0.115668  0  1.079721  0  0  0.11746  0  1.082687  0  0.088587  0  0.100981  0.114396  0  1.077833  0
H  H30  1  0.99362930  0.63166885  0.06659992  1  0  0.097579  0  0.975811  0  0  0.107772  0  1.040283  0  0  0.110532  0  1.03871  0  0.086907  0  0.107305  0.105868  0  1.04131  0
H  H31  1  0.00637022  0.36833235  0.93339972  1  0  0.097611  0  0.975804  0  0  0.107808  0  1.040267  0  0  0.110568  0  1.038695  0  0.08684  0  0.107313  0.105904  0  1.041295  0
H  H32  1  0.17648187  0.51233581  0.94023871  1  0  0.11493  0  0.93438  0  0  0.125724  0  0.989083  0  0  0.129276  0  0.987303  0  0.135796  0  0.112796  0.123227  0  0.990398  0
H  H33  1  0.82351665  0.48766538  0.05976035  1  0  0.114929  0  0.934378  0  0  0.125723  0  0.989077  0  0  0.12927  0  0.987307  0  0.135806  0  0.112799  0.123229  0  0.990383  0
H  H34  1  0.34327378  0.32456413  0.01959512  1  0  0.098222  0  0.979669  0  0  0.106248  0  1.045767  0  0  0.108427  0  1.046117  0  0.112809  0  0.103798  0.104654  0  1.045688  0
H  H35  1  0.65672503  0.67543618  0.98040488  1  0  0.098209  0  0.979676  0  0  0.106234  0  1.045773  0  0  0.108414  0  1.046121  0  0.112797  0  0.103788  0.10464  0  1.045693  0
H  H36  1  0.40047149  0.94028331  0.32341810  1  0  0.133279  0  0.953517  0  0  0.141326  0  1.016072  0  0  0.145394  0  1.014089  0  0.102806  0  0.11624  0.138348  0  1.017532  0
H  H37  1  0.59952932  0.05971699  0.67658306  1  0  0.133302  0  0.953561  0  0  0.141346  0  1.016112  0  0  0.145414  0  1.01413  0  0.102775  0  0.116251  0.138367  0  1.017574  0
H  H38  1  0.21659726  0.12829679  0.28686240  1  0  0.106243  0  0.941683  0  0  0.11463  0  1.004732  0  0  0.117168  0  1.002252  0  0.145828  0  0.130914  0.112909  0  1.006104  0
H  H39  1  0.78340155  0.87170351  0.71313836  1  0  0.106247  0  0.941665  0  0  0.114623  0  1.004717  0  0  0.11716  0  1.002237  0  0.145836  0  0.130894  0.112907  0  1.006082  0
H  H40  1  0.50797155  0.32731382  0.17384235  1  0  0.111015  0  0.958312  0  0  0.115406  0  1.025955  0  0  0.119924  0  1.021027  0  0.212238  0  0.125468  0.112005  0  1.029477  0
H  H41  1  0.49202697  0.67268737  0.82615748  1  0  0.110969  0  0.958352  0  0  0.115426  0  1.025922  0  0  0.119943  0  1.020994  0  0.212037  0  0.125476  0.112033  0  1.029435  0
H  H42  1  0.70504412  0.14563202  0.20487787  1  0  0.140594  0  0.932853  0  0  0.150858  0  0.988171  0  0  0.154626  0  0.987064  0  0.104919  0  0.118814  0.148454  0  0.98857  0
H  H43  1  0.29495440  0.85436917  0.79512196  1  0  0.140666  0  0.932802  0  0  0.150927  0  0.988122  0  0  0.154696  0  0.987013  0  0.104907  0  0.118842  0.148524  0  0.988519  0
C  C44  1  0.10046087  0.87747180  0.31626001  1  0  0.746933  0  3.866397  0  0  0.696498  0  4.165825  0  0  0.733896  0  4.154958  0  1.637381  0  0.23925  0.671446  0  4.175576  0
C  C45  1  0.89953665  0.12252940  0.68373847  1  0  0.746987  0  3.866074  0  0  0.696453  0  4.165699  0  0  0.733848  0  4.154837  0  1.637582  0  0.239243  0.671409  0  4.175434  0
C  C46  1  0.94095863  0.14292253  0.28876741  1  0  0.628063  0  3.946448  0  0  0.579242  0  4.243859  0  0  0.611786  0  4.244015  0  1.555419  0  0.194126  0.556749  0  4.247863  0
C  C47  1  0.05904219  0.85707777  0.71123298  1  0  0.628092  0  3.946406  0  0  0.579257  0  4.243829  0  0  0.611804  0  4.243983  0  1.555313  0  0.19411  0.556765  0  4.247838  0
C  C48  1  0.11706384  0.96813135  0.21146629  1  0  -0.095895  0  3.645103  0  0  -0.092215  0  3.884247  0  0  -0.093048  0  3.898385  0  -0.025514  0  0.007726  -0.091382  0  3.873562  0
C  C49  1  0.88293698  0.03186895  0.78853410  1  0  -0.09591  0  3.645049  0  0  -0.092216  0  3.884232  0  0  -0.093049  0  3.898369  0  -0.025497  0  0.007712  -0.091387  0  3.873545  0
C  C50  1  0.03203107  0.08694148  0.19638902  1  0  -0.071813  0  3.724871  0  0  -0.056347  0  3.961371  0  0  -0.062749  0  3.981  0  -0.003621  0  -0.011525  -0.051629  0  3.946677  0
C  C51  1  0.96796874  0.91305882  0.80361079  1  0  -0.071833  0  3.724909  0  0  -0.05635  0  3.961392  0  0  -0.062753  0  3.98102  0  -0.003513  0  -0.011523  -0.051632  0  3.946697  0
C  C52  1  0.04164054  0.16162725  0.09337011  1  0  -0.067013  0  3.726172  0  0  -0.09609  0  3.979755  0  0  -0.095309  0  3.998971  0  -0.073168  0  -0.081404  -0.096297  0  3.966214  0
C  C53  1  0.95836128  0.83837306  0.90663009  1  0  -0.067001  0  3.726209  0  0  -0.096079  0  3.97978  0  0  -0.095297  0  3.998996  0  -0.073215  0  -0.081387  -0.096286  0  3.966239  0
C  C54  1  0.13586832  0.12232929  0.00485920  1  0  -0.063017  0  3.741949  0  0  -0.075052  0  3.99426  0  0  -0.077876  0  4.013071  0  -0.045807  0  -0.087298  -0.073318  0  3.981617  0
C  C55  1  0.86413049  0.87767101  0.99514080  1  0  -0.063045  0  3.74198  0  0  -0.075082  0  3.994307  0  0  -0.07791  0  4.01312  0  -0.045864  0  -0.087294  -0.073351  0  3.981666  0
C  C56  1  0.22519263  0.00673488  0.02042522  1  0  -0.114678  0  3.731245  0  0  -0.139121  0  3.984827  0  0  -0.138955  0  4.002659  0  0.0192  0  -0.081454  -0.139075  0  3.972855  0
C  C57  1  0.77480518  0.99326542  0.97957497  1  0  -0.114646  0  3.731195  0  0  -0.139139  0  3.984766  0  0  -0.138971  0  4.002595  0  0.018942  0  -0.081465  -0.139092  0  3.972793  0
C  C58  1  0.21525182  0.93189665  0.12256639  1  0  0.125843  0  3.767881  0  0  0.112293  0  4.023947  0  0  0.114541  0  4.047228  0  0.278142  0  0.088884  0.11068  0  4.00807  0
C  C59  1  0.78474800  0.06810365  0.87743419  1  0  0.125847  0  3.767884  0  0  0.112299  0  4.023952  0  0  0.114548  0  4.047234  0  0.278139  0  0.088896  0.110685  0  4.008076  0
C  C60  1  0.53506982  0.68731847  0.17304663  1  0  -0.246045  0  3.678184  0  0  -0.261895  0  3.933507  0  0  -0.274354  0  3.949513  0  -0.015963  0  -0.098147  -0.253742  0  3.922216  0
C  C61  1  0.46492999  0.31268183  0.82695549  1  0  -0.245973  0  3.678218  0  0  -0.261802  0  3.933527  0  0  -0.27428  0  3.949522  0  -0.01602  0  -0.098122  -0.253649  0  3.922235  0
C  C62  1  0.44206781  0.79779227  0.15629321  1  0  0.09895  0  3.676057  0  0  0.054221  0  3.932798  0  0  0.066627  0  3.945741  0  0.298686  0  0.044819  0.046405  0  3.923628  0
C  C63  1  0.55793300  0.20220804  0.84370717  1  0  0.098887  0  3.676142  0  0  0.054145  0  3.932889  0  0  0.066547  0  3.945845  0  0.298689  0  0.044818  0.046328  0  3.923718  0
C  C64  1  0.27270045  0.71771520  0.12999811  1  0  0.104778  0  3.673102  0  0  0.061407  0  3.926432  0  0  0.07331  0  3.940741  0  0.32762  0  0.047523  0.053773  0  3.916644  0
C  C65  1  0.72729937  0.28228510  0.87000324  1  0  0.10481  0  3.673186  0  0  0.061448  0  3.92654  0  0  0.073355  0  3.940843  0  0.327657  0  0.047511  0.053795  0  3.916747  0
C  C66  1  0.36211665  0.60553334  0.14407221  1  0  -0.24191  0  3.702891  0  0  -0.259985  0  3.957711  0  0  -0.273034  0  3.977096  0  0.039961  0  -0.103093  -0.251567  0  3.944551  0
C  C67  1  0.63788316  0.39446696  0.85592913  1  0  -0.241932  0  3.702907  0  0  -0.260004  0  3.957745  0  0  -0.273055  0  3.977128  0  0.039626  0  -0.103075  -0.251588  0  3.944591  0
C  C68  1  0.49848847  0.58254060  0.16990010  1  0  0.435421  0  3.869123  0  0  0.419887  0  4.130808  0  0  0.444581  0  4.135417  0  0.857162  0  0.117247  0.403586  0  4.126698  0
C  C69  1  0.50151264  0.41745881  0.83010200  1  0  0.43536  0  3.869146  0  0  0.419795  0  4.130869  0  0  0.444489  0  4.13548  0  0.85715  0  0.117188  0.403495  0  4.126755  0
C  C70  1  0.47690726  0.79861056  0.50559682  1  0  0.553621  0  3.945729  0  0  0.5095  0  4.243266  0  0  0.539146  0  4.241315  0  1.611464  0  0.215905  0.489068  0  4.24975  0
C  C71  1  0.52310130  0.20139063  0.49440111  1  0  0.553804  0  3.945381  0  0  0.509629  0  4.242976  0  0  0.539277  0  4.24102  0  1.61151  0  0.215934  0.489221  0  4.249424  0
C  C72  1  0.51745048  0.68875228  0.45331229  1  0  0.560512  0  3.923996  0  0  0.515086  0  4.220949  0  0  0.545012  0  4.218574  0  1.573159  0  0.221956  0.494501  0  4.227832  0
C  C73  1  0.48256038  0.31124802  0.54668542  1  0  0.560458  0  3.923983  0  0  0.515034  0  4.220965  0  0  0.544957  0  4.218591  0  1.573203  0  0.221923  0.494442  0  4.227844  0
C  C74  1  0.95737994  0.59793907  0.27774303  1  0  0.656751  0  3.900158  0  0  0.605796  0  4.196356  0  0  0.638965  0  4.195686  0  1.561704  0  0.20614  0.582737  0  4.201028  0
C  C75  1  0.04261929  0.40206302  0.72225567  1  0  0.656796  0  3.900049  0  0  0.605864  0  4.196218  0  0  0.639033  0  4.195546  0  1.561728  0  0.206167  0.582803  0  4.20089  0
C  C76  1  0.12747702  0.34660546  0.37495993  1  0  0.733158  0  3.872097  0  0  0.680322  0  4.175207  0  0  0.717206  0  4.166752  0  1.643532  0  0.234622  0.655545  0  4.184346  0
C  C77  1  0.87251877  0.65339484  0.62503910  1  0  0.73314  0  3.8723  0  0  0.680359  0  4.175299  0  0  0.717246  0  4.166841  0  1.643554  0  0.234616  0.655583  0  4.184439  0
C  C78  1  0.14393301  0.40160295  0.25550334  1  0  -0.090114  0  3.629439  0  0  -0.08545  0  3.868005  0  0  -0.086491  0  3.881491  0  -0.019707  0  0.01257  -0.084442  0  3.857783  0
C  C79  1  0.85606408  0.59839646  0.74449643  1  0  -0.090206  0  3.629512  0  0  -0.085515  0  3.868032  0  0  -0.086558  0  3.881519  0  -0.019709  0  0.012562  -0.08451  0  3.85781  0
C  C80  1  0.05456031  0.51087610  0.21050825  1  0  -0.053817  0  3.690119  0  0  -0.037589  0  3.92241  0  0  -0.043115  0  3.941258  0  -0.017963  0  -0.000855  -0.03372  0  3.908963  0
C  C81  1  0.94543850  0.48912420  0.78949098  1  0  -0.053701  0  3.689993  0  0  -0.037475  0  3.922263  0  0  -0.043  0  3.941114  0  -0.017975  0  -0.000791  -0.033599  0  3.908806  0
C  C82  1  0.06602712  0.54788800  0.09775216  1  0  -0.067509  0  3.73026  0  0  -0.094499  0  3.980257  0  0  -0.09406  0  3.999442  0  0.021241  0  -0.075927  -0.094765  0  3.966984  0
C  C83  1  0.93397169  0.45211230  0.90224784  1  0  -0.067686  0  3.730264  0  0  -0.094691  0  3.980285  0  0  -0.094253  0  3.999471  0  0.021347  0  -0.076001  -0.094959  0  3.967011  0
C  C84  1  0.16707768  0.48162820  0.02788876  1  0  -0.04886  0  3.74697  0  0  -0.062118  0  4.000185  0  0  -0.064302  0  4.019544  0  -0.035994  0  -0.079942  -0.060691  0  3.987138  0
C  C85  1  0.83292012  0.51837210  0.97211143  1  0  -0.048834  0  3.746893  0  0  -0.062082  0  4.000095  0  0  -0.064266  0  4.019453  0  -0.035987  0  -0.079933  -0.060655  0  3.987049  0
C  C86  1  0.26053540  0.37707634  0.07177516  1  0  -0.120577  0  3.73814  0  0  -0.145627  0  3.995133  0  0  -0.146339  0  4.013799  0  -0.073988  0  -0.080039  -0.145105  0  3.982556  0
C  C87  1  0.73946240  0.62292396  0.92822426  1  0  -0.120537  0  3.737921  0  0  -0.145576  0  3.994941  0  0  -0.146287  0  4.013603  0  -0.073991  0  -0.079998  -0.145054  0  3.982364  0
C  C88  1  0.24934445  0.33857435  0.18413341  1  0  0.130423  0  3.732878  0  0  0.11637  0  3.987387  0  0  0.11984  0  4.008837  0  0.262143  0  0.09434  0.114128  0  3.972372  0
C  C89  1  0.75065364  0.66142506  0.81586617  1  0  0.130539  0  3.732647  0  0  0.116416  0  3.987237  0  0  0.119887  0  4.008687  0  0.262137  0  0.094308  0.114173  0  3.972223  0
C  C90  1  0.43070458  0.02237277  0.28707772  1  0  -0.245807  0  3.670329  0  0  -0.266414  0  3.931974  0  0  -0.279146  0  3.947461  0  0.024413  0  -0.095589  -0.258031  0  3.920774  0
C  C91  1  0.56929495  0.97762843  0.71292192  1  0  -0.245837  0  3.670427  0  0  -0.266433  0  3.932069  0  0  -0.279165  0  3.947556  0  0.024205  0  -0.095585  -0.258051  0  3.920872  0
C  C92  1  0.32641482  0.12608221  0.26763620  1  0  0.125586  0  3.629582  0  0  0.081185  0  3.886412  0  0  0.093513  0  3.900532  0  0.341262  0  0.058944  0.073485  0  3.876147  0
C  C93  1  0.67358428  0.87391720  0.73236319  1  0  0.125598  0  3.629609  0  0  0.081228  0  3.886414  0  0  0.093557  0  3.900534  0  0.341698  0  0.058964  0.073525  0  3.876146  0
C  C94  1  0.49137553  0.23841593  0.20183206  1  0  0.10739  0  3.624587  0  0  0.064755  0  3.878957  0  0  0.076308  0  3.891445  0  0.302642  0  0.052664  0.057523  0  3.870721  0
C  C95  1  0.50862328  0.76158437  0.79816794  1  0  0.107455  0  3.624471  0  0  0.064775  0  3.878832  0  0  0.076327  0  3.891325  0  0.303184  0  0.052674  0.057536  0  3.870591  0
C  C96  1  0.59924524  0.13722482  0.21984617  1  0  -0.229954  0  3.665209  0  0  -0.24874  0  3.92238  0  0  -0.260495  0  3.937416  0  0.017063  0  -0.090677  -0.241104  0  3.911233  0
C  C97  1  0.40075328  0.86277638  0.78015366  1  0  -0.230006  0  3.665054  0  0  -0.248783  0  3.92227  0  0  -0.260537  0  3.937302  0  0.01694  0  -0.090696  -0.241146  0  3.911124  0
C  C98  1  0.57456710  0.02216015  0.26080316  1  0  0.465104  0  3.862727  0  0  0.451476  0  4.121946  0  0  0.476948  0  4.128745  0  0.797128  0  0.124029  0.435033  0  4.118113  0
C  C99  1  0.42543372  0.97784015  0.73919646  1  0  0.465115  0  3.862713  0  0  0.451432  0  4.12201  0  0  0.476905  0  4.128809  0  0.797248  0  0.124008  0.434988  0  4.118177  0
N  N100  1  0.31116825  0.81370084  0.13662622  1  0  -0.09528  0  3.605516  0  0  -0.004991  0  3.817336  0  0  -0.022626  0  3.843739  0  -1.259841  0  -0.225592  0.006719  0  3.798986  0
N  N101  1  0.68883357  0.18629947  0.86337321  1  0  -0.095314  0  3.605662  0  0  -0.005013  0  3.817467  0  0  -0.02265  0  3.843872  0  -1.2599  0  -0.225607  0.006699  0  3.799117  0
N  N102  1  0.35574738  0.23288617  0.22277343  1  0  -0.081303  0  3.57406  0  0  0.008701  0  3.784672  0  0  -0.008187  0  3.810125  0  -1.23703  0  -0.215816  0.019711  0  3.766963  0
N  N103  1  0.64425043  0.76711413  0.77722598  1  0  -0.081425  0  3.574042  0  0  0.00858  0  3.784689  0  0  -0.008309  0  3.810141  0  -1.237574  0  -0.215836  0.01959  0  3.766983  0
O  O104  1  0.18568012  0.85207955  0.38061922  1  0  -0.70025  0  1.98377  0  0  -0.656653  0  2.240368  0  0  -0.692887  0  2.225498  0  -1.181465  0  -0.375408  -0.639023  0  2.247385  0
O  O105  1  0.81432199  0.14791986  0.61938191  1  0  -0.700266  0  1.983833  0  0  -0.65662  0  2.240468  0  0  -0.692851  0  2.225591  0  -1.181676  0  -0.375407  -0.638987  0  2.247484  0
O  O106  1  0.00305542  0.82959333  0.32771154  1  0  -0.758498  0  2.05638  0  0  -0.70892  0  2.323083  0  0  -0.748771  0  2.308786  0  -1.191716  0  -0.3925  -0.689887  0  2.330998  0
O  O107  1  0.99694712  0.17040787  0.67228753  1  0  -0.758496  0  2.056131  0  0  -0.708884  0  2.322893  0  0  -0.748736  0  2.308598  0  -1.191723  0  -0.392477  -0.689853  0  2.330801  0
O  O108  1  0.95201587  0.08929721  0.38711516  1  0  -0.683116  0  1.984246  0  0  -0.626173  0  2.215302  0  0  -0.657224  0  2.205049  0  -1.170782  0  -0.346448  -0.609709  0  2.221403  0
O  O109  1  0.04798624  0.91070220  0.61288444  1  0  -0.683114  0  1.984272  0  0  -0.626154  0  2.215315  0  0  -0.657204  0  2.205065  0  -1.170745  0  -0.346419  -0.609694  0  2.221418  0
O  O110  1  0.86088034  0.24804255  0.26654177  1  0  -0.66837  0  1.980032  0  0  -0.621168  0  2.219794  0  0  -0.654077  0  2.211235  0  -1.177418  0  -0.375268  -0.604104  0  2.224587  0
O  O111  1  0.13912076  0.75195686  0.73345801  1  0  -0.668404  0  1.980002  0  0  -0.621203  0  2.219775  0  0  -0.654111  0  2.211216  0  -1.177428  0  -0.375284  -0.604143  0  2.224568  0
O  O112  1  0.58044148  0.47729462  0.18728205  1  0  -0.561069  0  1.929819  0  0  -0.508189  0  2.131273  0  0  -0.530635  0  2.123148  0  -1.155814  0  -0.306226  -0.492229  0  2.136053  0
O  O113  1  0.41955905  0.52270658  0.81271894  1  0  -0.561052  0  1.929833  0  0  -0.508141  0  2.131267  0  0  -0.530589  0  2.123148  0  -1.155817  0  -0.306201  -0.49218  0  2.136044  0
O  O114  1  0.35091053  0.82849095  0.55372952  1  0  -0.689417  0  2.11021  0  0  -0.634678  0  2.353332  0  0  -0.669857  0  2.343912  0  -1.188726  0  -0.366417  -0.617162  0  2.357985  0
O  O115  1  0.64908798  0.17151025  0.44627108  1  0  -0.689449  0  2.110392  0  0  -0.634709  0  2.353553  0  0  -0.669886  0  2.344129  0  -1.188821  0  -0.36644  -0.617196  0  2.358193  0
O  O116  1  0.56775690  0.85191071  0.49428137  1  0  -0.615654  0  2.078501  0  0  -0.571056  0  2.328148  0  0  -0.602799  0  2.320088  0  -1.15255  0  -0.356772  -0.554787  0  2.331945  0
O  O117  1  0.43224206  0.14808602  0.50571639  1  0  -0.615823  0  2.078059  0  0  -0.571141  0  2.327655  0  0  -0.602888  0  2.319593  0  -1.152537  0  -0.356779  -0.554864  0  2.33141  0
O  O118  1  0.42444755  0.63919522  0.46055669  1  0  -0.621042  0  2.062261  0  0  -0.575085  0  2.306203  0  0  -0.606715  0  2.295636  0  -1.154846  0  -0.356874  -0.559504  0  2.311341  0
O  O119  1  0.57554710  0.36080240  0.53944321  1  0  -0.620904  0  2.062553  0  0  -0.574945  0  2.306494  0  0  -0.606579  0  2.295943  0  -1.155026  0  -0.356772  -0.559363  0  2.311634  0
O  O120  1  0.64356718  0.65893264  0.40449532  1  0  -0.68199  0  2.141954  0  0  -0.623808  0  2.384711  0  0  -0.658563  0  2.374292  0  -1.191376  0  -0.356243  -0.605923  0  2.390043  0
O  O121  1  0.35643092  0.34106677  0.59550503  1  0  -0.682082  0  2.141604  0  0  -0.623911  0  2.384353  0  0  -0.658671  0  2.373945  0  -1.191157  0  -0.356314  -0.606024  0  2.389689  0
O  O122  1  0.96540928  0.58234317  0.37788503  1  0  -0.687644  0  2.026295  0  0  -0.62637  0  2.25887  0  0  -0.65829  0  2.249078  0  -1.173547  0  -0.345534  -0.609125  0  2.264968  0
O  O123  1  0.03459125  0.41765803  0.62211288  1  0  -0.687683  0  2.026259  0  0  -0.626433  0  2.258841  0  0  -0.65835  0  2.249047  0  -1.173597  0  -0.345575  -0.609187  0  2.264938  0
O  O124  1  0.87305573  0.69099456  0.23239252  1  0  -0.683984  0  1.979103  0  0  -0.638423  0  2.225931  0  0  -0.670986  0  2.215698  0  -1.184297  0  -0.367428  -0.621449  0  2.231737  0
O  O125  1  0.12694408  0.30900575  0.76760651  1  0  -0.68399  0  1.979051  0  0  -0.638439  0  2.225876  0  0  -0.671003  0  2.215645  0  -1.184247  0  -0.367414  -0.621465  0  2.231682  0
O  O126  1  0.02713990  0.29963999  0.41400477  1  0  -0.759914  0  2.070104  0  0  -0.709513  0  2.344041  0  0  -0.752485  0  2.332229  0  -1.204633  0  -0.396714  -0.690352  0  2.351521  0
O  O127  1  0.97285934  0.70036210  0.58599470  1  0  -0.759928  0  2.070036  0  0  -0.709541  0  2.343937  0  0  -0.752515  0  2.332127  0  -1.204593  0  -0.396708  -0.690386  0  2.351414  0
O  O128  1  0.21945659  0.34071658  0.42736786  1  0  -0.692262  0  2.026278  0  0  -0.646598  0  2.275961  0  0  -0.680365  0  2.263213  0  -1.17422  0  -0.36517  -0.629048  0  2.282659  0
O  O129  1  0.78054380  0.65928194  0.57263151  1  0  -0.692239  0  2.026519  0  0  -0.646592  0  2.276169  0  0  -0.680356  0  2.26341  0  -1.174298  0  -0.365157  -0.629041  0  2.282867  0
O  O130  1  0.67582580  0.92578175  0.27182706  1  0  -0.723953  0  2.034653  0  0  -0.672227  0  2.288532  0  0  -0.709898  0  2.274268  0  -1.187838  0  -0.431435  -0.654351  0  2.293426  0
O  O131  1  0.32417544  0.07422034  0.72817203  1  0  -0.723975  0  2.034636  0  0  -0.672226  0  2.288531  0  0  -0.709895  0  2.274269  0  -1.187835  0  -0.431449  -0.65435  0  2.293423  0
O  O132  1  0.19572329  0.58737892  0.44271035  1  0  -0.899738  0  1.859802  0  0  -0.853672  0  2.067141  0  0  -0.881882  0  2.03226  0  -1.247919  0  -0.636223  -0.840554  0  2.085491  0
O  O133  1  0.80427581  0.41262049  0.55729212  1  0  -0.899749  0  1.859788  0  0  -0.853679  0  2.067108  0  0  -0.881888  0  2.032235  0  -1.247919  0  -0.636222  -0.840554  0  2.085461  0
O  O134  1  0.26695512  0.54297911  0.66933532  1  0  -0.948262  0  1.883637  0  0  -0.898963  0  2.092715  0  0  -0.931775  0  2.052446  0  -1.32206  0  -0.675517  -0.884054  0  2.11635  0
O  O135  1  0.73304598  0.45702030  0.33066523  1  0  -0.948255  0  1.883659  0  0  -0.898924  0  2.092793  0  0  -0.931737  0  2.052517  0  -1.322074  0  -0.6755  -0.884006  0  2.116425  0
O  O136  1  0.78912965  0.93509838  0.47285726  1  0  -0.90482  0  1.887712  0  0  -0.860196  0  2.090549  0  0  -0.889466  0  2.054416  0  -1.254532  0  -0.643852  -0.846465  0  2.111704  0
O  O137  1  0.21087117  0.06490193  0.52714235  1  0  -0.904828  0  1.887708  0  0  -0.860208  0  2.090564  0  0  -0.889476  0  2.054428  0  -1.254518  0  -0.643858  -0.846477  0  2.111716  0
