# generated using pymatgen
data_Ag2H13C24(O2F7)2
_symmetry_space_group_name_H-M   'P 1'
_cell_length_a   10.80692822
_cell_length_b   11.10359018
_cell_length_c   12.43765159
_cell_angle_alpha   102.19103334
_cell_angle_beta   99.12522707
_cell_angle_gamma   115.00305087
_symmetry_Int_Tables_number   1
_chemical_formula_structural   Ag2H13C24(O2F7)2
_chemical_formula_sum   'Ag4 H26 C48 O8 F28'
_cell_volume   1269.29480358
_cell_formula_units_Z   2
loop_
 _symmetry_equiv_pos_site_id
 _symmetry_equiv_pos_as_xyz
  1  'x, y, z'
loop_
 _atom_site_type_symbol
 _atom_site_label
 _atom_site_symmetry_multiplicity
 _atom_site_fract_x
 _atom_site_fract_y
 _atom_site_fract_z
 _atom_site_occupancy
 _atom_site_hle17_bader_spin_density
 _atom_site_hle17_ddec_charge
 _atom_site_hle17_ddec_spin_density
 _atom_site_hle17_ddec_sum_bond_order
 _atom_site_hle17_magmom
 _atom_site_hse06_10hf_bader_spin_density
 _atom_site_hse06_10hf_ddec_charge
 _atom_site_hse06_10hf_ddec_spin_density
 _atom_site_hse06_10hf_ddec_sum_bond_order
 _atom_site_hse06_10hf_magmom
 _atom_site_hse06_bader_spin_density
 _atom_site_hse06_ddec_charge
 _atom_site_hse06_ddec_spin_density
 _atom_site_hse06_ddec_sum_bond_order
 _atom_site_hse06_magmom
 _atom_site_pbe_bader_spin_density
 _atom_site_pbe_cm5_charge
 _atom_site_pbe_ddec_charge
 _atom_site_pbe_ddec_spin_density
 _atom_site_pbe_ddec_sum_bond_order
 _atom_site_pbe_magmom
Ag  Ag0  1  0.88767933  0.57296043  0.43271246  1  0  0.608624  0  1.360053  0  0  0.509808  0  1.784191  0  0  0.535891  0  1.735567  0  0  0.451725  0.491318  0  1.81773  0
Ag  Ag1  1  0.11231944  0.42703801  0.56728677  1  0  0.608641  0  1.36004  0  0  0.509836  0  1.784158  0  0  0.535918  0  1.735534  0  0  0.45175  0.491355  0  1.817704  0
Ag  Ag2  1  0.68862760  0.63789461  0.53982761  1  0  0.606635  0  1.385601  0  0  0.505395  0  1.816941  0  0  0.531308  0  1.769025  0  0  0.451044  0.48761  0  1.850787  0
Ag  Ag3  1  0.31137312  0.36210592  0.46017148  1  0  0.606637  0  1.385593  0  0  0.505396  0  1.816941  0  0  0.531309  0  1.769024  0  0  0.451042  0.487617  0  1.850793  0
H  H4  1  0.79495816  0.74983791  0.30364520  1  0  0.115236  0  0.937612  0  0  0.124583  0  0.995626  0  0  0.127495  0  0.994607  0  0  0.103347  0.122458  0  0.996607  0
H  H5  1  0.20504256  0.25016262  0.69635470  1  0  0.115248  0  0.937558  0  0  0.124592  0  0.995577  0  0  0.127503  0  0.994558  0  0  0.103351  0.122467  0  0.996554  0
H  H6  1  0.69098060  0.83706169  0.44291659  1  0  0.101632  0  0.989557  0  0  0.107179  0  1.057477  0  0  0.108345  0  1.0604  0  0  0.097503  0.106368  0  1.055262  0
H  H7  1  0.30901960  0.16293778  0.55708383  1  0  0.101595  0  0.989543  0  0  0.107183  0  1.057429  0  0  0.10835  0  1.060349  0  0  0.097514  0.106373  0  1.055207  0
H  H8  1  0.06293810  0.96092441  0.71681063  1  0  0.103441  0  0.930885  0  0  0.11417  0  0.989476  0  0  0.11746  0  0.987903  0  0  0.100104  0.111664  0  0.990913  0
H  H9  1  0.93706211  0.03907507  0.28318899  1  0  0.10342  0  0.930828  0  0  0.114149  0  0.989427  0  0  0.11744  0  0.987854  0  0  0.100089  0.111648  0  0.990866  0
H  H10  1  0.17064557  0.88184644  0.57586087  1  0  0.097027  0  0.97778  0  0  0.107182  0  1.039819  0  0  0.10876  0  1.041007  0  0  0.098816  0.106017  0  1.038945  0
H  H11  1  0.82935464  0.11815304  0.42413875  1  0  0.09703  0  0.977785  0  0  0.107179  0  1.039828  0  0  0.108758  0  1.041015  0  0  0.098821  0.106017  0  1.038953  0
H  H12  1  0.16360066  0.79843093  0.36519689  1  0  0.086944  0  0.945801  0  0  0.101279  0  1.010479  0  0  0.101968  0  1.011803  0  0  0.091857  0.10122  0  1.008728  0
H  H13  1  0.83639912  0.20156960  0.63480288  1  0  0.086943  0  0.94578  0  0  0.101294  0  1.010449  0  0  0.101984  0  1.011774  0  0  0.091876  0.101238  0  1.0087  0
H  H14  1  0.01393480  0.76210897  0.25683176  1  0  0.091481  0  0.939069  0  0  0.104026  0  1.003845  0  0  0.105993  0  1.002375  0  0  0.089001  0.102561  0  1.005002  0
H  H15  1  0.98606541  0.23789051  0.74316786  1  0  0.091522  0  0.939014  0  0  0.104059  0  1.003812  0  0  0.106031  0  1.002335  0  0  0.089011  0.102593  0  1.004971  0
H  H16  1  0.72144049  0.97699072  0.63815494  1  0  0.086529  0  0.947086  0  0  0.098693  0  1.0141  0  0  0.099508  0  1.015419  0  0  0.091273  0.098315  0  1.012659  0
H  H17  1  0.27855930  0.02300981  0.36184482  1  0  0.086536  0  0.947104  0  0  0.098718  0  1.014101  0  0  0.099534  0  1.015416  0  0  0.091274  0.098338  0  1.012656  0
H  H18  1  0.86515475  0.01789019  0.75425356  1  0  0.093119  0  0.924944  0  0  0.107911  0  0.983412  0  0  0.109945  0  0.98179  0  0  0.092542  0.106309  0  0.984696  0
H  H19  1  0.13484546  0.98210929  0.24574606  1  0  0.093135  0  0.924934  0  0  0.107928  0  0.983405  0  0  0.109962  0  0.981784  0  0  0.092545  0.106323  0  0.984691  0
H  H20  1  0.59079061  0.97315342  0.19847499  1  0  0.103476  0  0.951576  0  0  0.111919  0  1.014897  0  0  0.11555  0  1.012591  0  0  0.094455  0.109259  0  1.016792  0
H  H21  1  0.40920867  0.02684607  0.80152370  1  0  0.103481  0  0.951574  0  0  0.111924  0  1.014896  0  0  0.115555  0  1.01259  0  0  0.09446  0.109262  0  1.016789  0
H  H22  1  0.38006512  0.61062705  0.30522530  1  0  0.107716  0  0.969093  0  0  0.115647  0  1.03504  0  0  0.118969  0  1.033778  0  0  0.094911  0.112988  0  1.036699  0
H  H23  1  0.61993322  0.38937244  0.69477406  1  0  0.107732  0  0.969077  0  0  0.115651  0  1.035042  0  0  0.118973  0  1.033779  0  0  0.094917  0.112992  0  1.0367  0
H  H24  1  0.48104604  0.71578475  0.16174847  1  0  0.091457  0  0.96627  0  0  0.096515  0  1.036686  0  0  0.100181  0  1.033803  0  0  0.088273  0.093874  0  1.038789  0
H  H25  1  0.51895273  0.28421369  0.83824995  1  0  0.091455  0  0.966263  0  0  0.096505  0  1.036682  0  0  0.100183  0  1.033786  0  0  0.088278  0.093856  0  1.038788  0
H  H26  1  0.32583576  0.63803229  0.49221089  1  0  0.082365  0  0.99042  0  0  0.089146  0  1.066887  0  0  0.093825  0  1.06193  0  0  0.089014  0.0856  0  1.07103  0
H  H27  1  0.67416258  0.36196720  0.50778847  1  0  0.082374  0  0.990423  0  0  0.089145  0  1.066898  0  0  0.093826  0  1.06194  0  0  0.089012  0.085596  0  1.07104  0
H  H28  1  0.66360566  0.21053018  0.32646025  1  0  0.105151  0  0.973484  0  0  0.113061  0  1.039638  0  0  0.116486  0  1.037728  0  0  0.094682  0.110657  0  1.041058  0
H  H29  1  0.33639361  0.78946930  0.67353924  1  0  0.105219  0  0.97348  0  0  0.113087  0  1.039665  0  0  0.116512  0  1.037756  0  0  0.094701  0.110686  0  1.041086  0
C  C30  1  0.85320784  0.79178329  0.39427819  1  0  -0.117636  0  3.729362  0  0  -0.130603  0  3.973937  0  0  -0.132108  0  3.993325  0  0  -0.095942  -0.129628  0  3.960816  0
C  C31  1  0.14679237  0.20821618  0.60572224  1  0  -0.117635  0  3.729291  0  0  -0.130603  0  3.973888  0  0  -0.13211  0  3.993276  0  0  -0.095949  -0.129624  0  3.960758  0
C  C32  1  0.79111222  0.83719788  0.47515039  1  0  -0.183917  0  3.828171  0  0  -0.189132  0  4.078942  0  0  -0.194204  0  4.099545  0  0  -0.131738  -0.185833  0  4.064876  0
C  C33  1  0.20888849  0.16280264  0.52485030  1  0  -0.183896  0  3.828126  0  0  -0.189165  0  4.0789  0  0  -0.194237  0  4.099503  0  0  -0.13177  -0.185864  0  4.064823  0
C  C34  1  0.87224344  0.91330379  0.59063483  1  0  0.099025  0  3.71434  0  0  0.122216  0  3.949852  0  0  0.124256  0  3.972551  0  0  -0.016151  0.120306  0  3.934768  0
C  C35  1  0.12775634  0.08669674  0.40936493  1  0  0.099047  0  3.714401  0  0  0.122276  0  3.949856  0  0  0.124315  0  3.972558  0  0  -0.01609  0.12037  0  3.934768  0
C  C36  1  0.00302200  0.91362968  0.62645766  1  0  -0.098904  0  3.694795  0  0  -0.121868  0  3.945859  0  0  -0.125606  0  3.96692  0  0  -0.093728  -0.119248  0  3.931875  0
C  C37  1  0.99697820  0.08636979  0.37354276  1  0  -0.09886  0  3.694832  0  0  -0.121843  0  3.945881  0  0  -0.125579  0  3.966937  0  0  -0.093719  -0.119224  0  3.931904  0
C  C38  1  0.06357358  0.86818206  0.54709005  1  0  -0.099704  0  3.704706  0  0  -0.114249  0  3.950357  0  0  -0.114691  0  3.970364  0  0  -0.092767  -0.11433  0  3.936899  0
C  C39  1  0.93642663  0.13181741  0.45291038  1  0  -0.099685  0  3.704817  0  0  -0.114222  0  3.950457  0  0  -0.114662  0  3.970464  0  0  -0.092741  -0.114301  0  3.937003  0
C  C40  1  0.99607429  0.81932251  0.42750510  1  0  0.051239  0  3.772652  0  0  0.078702  0  4.010483  0  0  0.077152  0  4.033487  0  0  -0.039523  0.079678  0  3.99481  0
C  C41  1  0.00392499  0.18067698  0.57249439  1  0  0.051238  0  3.772619  0  0  0.078707  0  4.010454  0  0  0.077155  0  4.03346  0  0  -0.039502  0.079682  0  3.994786  0
C  C42  1  0.08315040  0.83146363  0.34249898  1  0  -0.143838  0  3.595765  0  0  -0.18983  0  3.852281  0  0  -0.190762  0  3.864368  0  0  -0.158275  -0.189103  0  3.843693  0
C  C43  1  0.91685031  0.16853689  0.65750171  1  0  -0.143878  0  3.595674  0  0  -0.189896  0  3.852212  0  0  -0.190834  0  3.864301  0  0  -0.158311  -0.189168  0  3.843625  0
C  C44  1  0.83634594  0.01327850  0.66426360  1  0  -0.145004  0  3.594894  0  0  -0.187766  0  3.847876  0  0  -0.189024  0  3.859462  0  0  -0.157961  -0.186672  0  3.8398  0
C  C45  1  0.16365478  0.98672202  0.33573710  1  0  -0.145081  0  3.59498  0  0  -0.187877  0  3.847947  0  0  -0.189135  0  3.859532  0  0  -0.158021  -0.186788  0  3.83987  0
C  C46  1  0.55495843  0.40188866  0.29845317  1  0  0.557078  0  3.962507  0  0  0.504902  0  4.25364  0  0  0.53615  0  4.252519  0  0  0.196977  0.483426  0  4.254512  0
C  C47  1  0.44504084  0.59811082  0.70154713  1  0  0.557163  0  3.962411  0  0  0.504967  0  4.253585  0  0  0.536209  0  4.252471  0  0  0.197011  0.483496  0  4.254452  0
C  C48  1  0.92096742  0.57895463  0.68869615  1  0  0.557678  0  3.96122  0  0  0.504798  0  4.25096  0  0  0.535834  0  4.249932  0  0  0.199245  0.483833  0  4.25104  0
C  C49  1  0.07903381  0.42104695  0.31130321  1  0  0.557498  0  3.961501  0  0  0.50475  0  4.251045  0  0  0.535773  0  4.250008  0  0  0.199209  0.483788  0  4.251117  0
C  C50  1  0.43470037  0.28271201  0.19150205  1  0  0.338078  0  3.620219  0  0  0.290619  0  3.926677  0  0  0.304061  0  3.916747  0  0  0.194661  0.280842  0  3.934149  0
C  C51  1  0.56529890  0.71728747  0.80849824  1  0  0.338026  0  3.620133  0  0  0.290569  0  3.926599  0  0  0.304009  0  3.916674  0  0  0.194646  0.280791  0  3.934069  0
C  C52  1  0.40034846  0.33908520  0.09227126  1  0  0.277929  0  3.695296  0  0  0.217915  0  4.014106  0  0  0.231874  0  4.003282  0  0  0.191268  0.207883  0  4.022297  0
C  C53  1  0.59965081  0.66091428  0.90772823  1  0  0.278034  0  3.695136  0  0  0.218009  0  4.013972  0  0  0.23197  0  4.003146  0  0  0.191278  0.207977  0  4.022163  0
C  C54  1  0.27355575  0.23118641  0.98505263  1  0  0.692403  0  3.698938  0  0  0.606528  0  4.060328  0  0  0.636576  0  4.032921  0  0  0.295713  0.585246  0  4.079786  0
C  C55  1  0.72644446  0.76881307  0.01494699  1  0  0.692378  0  3.698858  0  0  0.606497  0  4.060273  0  0  0.636541  0  4.032865  0  0  0.295709  0.585209  0  4.07972  0
C  C56  1  0.99689633  0.58490356  0.80915435  1  0  0.332565  0  3.632704  0  0  0.292638  0  3.929169  0  0  0.30576  0  3.91926  0  0  0.19375  0.282757  0  3.937127  0
C  C57  1  0.00310438  0.41509696  0.19084634  1  0  0.332583  0  3.632812  0  0  0.29255  0  3.929375  0  0  0.305746  0  3.919344  0  0  0.193758  0.28268  0  3.937307  0
C  C58  1  0.11621885  0.73629064  0.87880155  1  0  0.277306  0  3.685254  0  0  0.218425  0  4.00188  0  0  0.232382  0  3.99101  0  0  0.191187  0.208287  0  4.010382  0
C  C59  1  0.88378136  0.26370883  0.12119887  1  0  0.277345  0  3.685299  0  0  0.218502  0  4.001898  0  0  0.232426  0  3.991041  0  0  0.191192  0.20836  0  4.010399  0
C  C60  1  0.19990559  0.75735801  0.00170704  1  0  0.695755  0  3.706138  0  0  0.609121  0  4.067344  0  0  0.638842  0  4.041007  0  0  0.296087  0.588005  0  4.086203  0
C  C61  1  0.80009317  0.24264042  0.99829299  1  0  0.695672  0  3.706287  0  0  0.60907  0  4.067417  0  0  0.6388  0  4.041075  0  0  0.296089  0.587964  0  4.086259  0
C  C62  1  0.54771066  0.92738354  0.26210435  1  0  -0.117876  0  3.725029  0  0  -0.140341  0  3.980719  0  0  -0.142821  0  4.000985  0  0  -0.096918  -0.138708  0  3.966842  0
C  C63  1  0.45229005  0.07261698  0.73789554  1  0  -0.117846  0  3.725019  0  0  -0.14031  0  3.980705  0  0  -0.142792  0  4.000976  0  0  -0.096891  -0.138676  0  3.966822  0
C  C64  1  0.55439335  0.01601852  0.36452605  1  0  0.05333  0  3.825798  0  0  0.067904  0  4.059502  0  0  0.06797  0  4.083618  0  0  -0.014738  0.067954  0  4.042285  0
C  C65  1  0.44560406  0.98398098  0.63547238  1  0  0.053291  0  3.825803  0  0  0.06787  0  4.059505  0  0  0.067936  0  4.08362  0  0  -0.014778  0.067919  0  4.042293  0
C  C66  1  0.49656092  0.95615065  0.44754995  1  0  -0.026399  0  3.738089  0  0  -0.014961  0  3.95519  0  0  -0.01654  0  3.978878  0  0  -0.005085  -0.013432  0  3.938081  0
C  C67  1  0.50343929  0.04384882  0.55244967  1  0  -0.026351  0  3.73814  0  0  -0.014935  0  3.955248  0  0  -0.016513  0  3.978935  0  0  -0.005066  -0.013408  0  3.938142  0
C  C68  1  0.43218844  0.80800390  0.42517162  1  0  0.045549  0  3.836402  0  0  0.062292  0  4.063228  0  0  0.062246  0  4.087451  0  0  -0.014991  0.062749  0  4.045634  0
C  C69  1  0.56781032  0.19199452  0.57482920  1  0  0.045541  0  3.836468  0  0  0.06229  0  4.063293  0  0  0.062245  0  4.087515  0  0  -0.015007  0.062746  0  4.045701  0
C  C70  1  0.42825172  0.72340823  0.32170981  1  0  -0.119509  0  3.712094  0  0  -0.138096  0  3.959426  0  0  -0.140489  0  3.979231  0  0  -0.09703  -0.13657  0  3.946221  0
C  C71  1  0.57174569  0.27659127  0.67828863  1  0  -0.119529  0  3.712035  0  0  -0.13811  0  3.959362  0  0  -0.140503  0  3.979169  0  0  -0.097018  -0.136584  0  3.946156  0
C  C72  1  0.48579517  0.78308243  0.24156657  1  0  -0.064482  0  3.792863  0  0  -0.083339  0  4.055828  0  0  -0.084463  0  4.076407  0  0  -0.102017  -0.082439  0  4.041941  0
C  C73  1  0.51420317  0.21691705  0.75843280  1  0  -0.064446  0  3.792794  0  0  -0.083297  0  4.055765  0  0  -0.084433  0  4.07634  0  0  -0.10202  -0.08239  0  4.041877  0
C  C74  1  0.37493545  0.75113437  0.50996424  1  0  -0.112599  0  3.766629  0  0  -0.129613  0  4.017335  0  0  -0.132045  0  4.037858  0  0  -0.097186  -0.127841  0  4.003594  0
C  C75  1  0.62506144  0.24886408  0.49003473  1  0  -0.112612  0  3.766597  0  0  -0.12962  0  4.017316  0  0  -0.132053  0  4.037838  0  0  -0.097184  -0.127849  0  4.003568  0
C  C76  1  0.61892117  0.16498745  0.38949971  1  0  -0.124936  0  3.762179  0  0  -0.146133  0  4.014979  0  0  -0.148504  0  4.035357  0  0  -0.098024  -0.144363  0  4.000946  0
C  C77  1  0.38107810  0.83501203  0.61049978  1  0  -0.124961  0  3.762243  0  0  -0.146124  0  4.015057  0  0  -0.148495  0  4.035434  0  0  -0.098001  -0.144355  0  4.001033  0
O  O78  1  0.67797875  0.43614057  0.28892134  1  0  -0.558061  0  2.10594  0  0  -0.512784  0  2.371969  0  0  -0.539684  0  2.361848  0  0  -0.311631  -0.494094  0  2.378317  0
O  O79  1  0.32202052  0.56385891  0.71107896  1  0  -0.558082  0  2.105895  0  0  -0.512795  0  2.371928  0  0  -0.539696  0  2.361814  0  0  -0.311634  -0.494103  0  2.378278  0
O  O80  1  0.51560722  0.44999983  0.38041588  1  0  -0.590957  0  2.164243  0  0  -0.526476  0  2.450144  0  0  -0.556322  0  2.438626  0  0  -0.32081  -0.505866  0  2.458617  0
O  O81  1  0.48439205  0.54999965  0.61958361  1  0  -0.59102  0  2.164212  0  0  -0.526528  0  2.450122  0  0  -0.556374  0  2.438611  0  0  -0.320819  -0.505922  0  2.458608  0
O  O82  1  0.82247802  0.61021722  0.68824539  1  0  -0.559175  0  2.118843  0  0  -0.514181  0  2.39166  0  0  -0.541225  0  2.382187  0  0  -0.31056  -0.495519  0  2.397412  0
O  O83  1  0.17752219  0.38978226  0.31175424  1  0  -0.559125  0  2.118916  0  0  -0.514162  0  2.391648  0  0  -0.541209  0  2.38218  0  0  -0.310565  -0.495504  0  2.397405  0
O  O84  1  0.96934665  0.54708847  0.60682496  1  0  -0.593466  0  2.168934  0  0  -0.528501  0  2.454951  0  0  -0.558609  0  2.443383  0  0  -0.322939  -0.507305  0  2.461802  0
O  O85  1  0.03065754  0.45291728  0.39317562  1  0  -0.593402  0  2.169006  0  0  -0.528487  0  2.454972  0  0  -0.558589  0  2.443392  0  0  -0.322905  -0.507294  0  2.461829  0
F  F86  1  0.31175501  0.21465861  0.22058728  1  0  -0.203015  0  1.2314  0  0  -0.160864  0  1.405902  0  0  -0.169384  0  1.392439  0  0  -0.098214  -0.1545  0  1.415037  0
F  F87  1  0.68824519  0.78534086  0.77941395  1  0  -0.203017  0  1.231382  0  0  -0.160874  0  1.405891  0  0  -0.169391  0  1.392428  0  0  -0.098218  -0.154501  0  1.415021  0
F  F88  1  0.47614032  0.18534853  0.14998377  1  0  -0.197288  0  1.211812  0  0  -0.159523  0  1.378954  0  0  -0.167876  0  1.365969  0  0  -0.103678  -0.153474  0  1.387957  0
F  F89  1  0.52385997  0.81465305  0.85001627  1  0  -0.19727  0  1.211746  0  0  -0.1595  0  1.378878  0  0  -0.167851  0  1.365896  0  0  -0.103654  -0.153442  0  1.387881  0
F  F90  1  0.37025974  0.44454596  0.13429257  1  0  -0.168854  0  1.238794  0  0  -0.123623  0  1.401528  0  0  -0.13205  0  1.389011  0  0  -0.080789  -0.117387  0  1.410104  0
F  F91  1  0.62974004  0.55545457  0.86570720  1  0  -0.168895  0  1.238812  0  0  -0.123635  0  1.40153  0  0  -0.132061  0  1.389013  0  0  -0.080779  -0.1174  0  1.410104  0
F  F92  1  0.51802645  0.39263103  0.05405401  1  0  -0.165871  0  1.228947  0  0  -0.14186  0  1.408439  0  0  -0.149256  0  1.394501  0  0  -0.094455  -0.136243  0  1.417891  0
F  F93  1  0.48197468  0.60736843  0.94594814  1  0  -0.165899  0  1.228907  0  0  -0.14189  0  1.408408  0  0  -0.149282  0  1.394467  0  0  -0.094466  -0.136273  0  1.417862  0
F  F94  1  0.25994752  0.29758295  0.90718969  1  0  -0.228916  0  1.161826  0  0  -0.189728  0  1.320653  0  0  -0.201074  0  1.306089  0  0  -0.091101  -0.18309  0  1.332586  0
F  F95  1  0.74005414  0.70241758  0.09280953  1  0  -0.22883  0  1.161843  0  0  -0.189666  0  1.320699  0  0  -0.201023  0  1.306144  0  0  -0.091048  -0.183015  0  1.33262  0
F  F96  1  0.29823377  0.12583735  0.93495533  1  0  -0.228193  0  1.196614  0  0  -0.193315  0  1.36669  0  0  -0.202797  0  1.349398  0  0  -0.087978  -0.186284  0  1.378633  0
F  F97  1  0.70176601  0.87416318  0.06504443  1  0  -0.228223  0  1.19662  0  0  -0.19333  0  1.3667  0  0  -0.20281  0  1.349407  0  0  -0.087995  -0.18629  0  1.378637  0
F  F98  1  0.14961902  0.17580229  0.01154131  1  0  -0.210749  0  1.200874  0  0  -0.182666  0  1.3708  0  0  -0.191046  0  1.352566  0  0  -0.090642  -0.176429  0  1.383397  0
F  F99  1  0.85038077  0.82419825  0.98845765  1  0  -0.210796  0  1.200828  0  0  -0.182709  0  1.370767  0  0  -0.191086  0  1.352529  0  0  -0.090668  -0.176469  0  1.383359  0
F  F100  1  0.90118241  0.54213162  0.87087820  1  0  -0.189329  0  1.203157  0  0  -0.162434  0  1.373451  0  0  -0.170069  0  1.359911  0  0  -0.10597  -0.156818  0  1.382916  0
F  F101  1  0.09881594  0.45786787  0.12912036  1  0  -0.189312  0  1.203187  0  0  -0.1624  0  1.373515  0  0  -0.170052  0  1.359949  0  0  -0.10596  -0.156788  0  1.382976  0
F  F102  1  0.05761730  0.49791101  0.79903995  1  0  -0.201469  0  1.223753  0  0  -0.161295  0  1.394434  0  0  -0.169258  0  1.380162  0  0  -0.099746  -0.155328  0  1.404326  0
F  F103  1  0.94238147  0.50208743  0.20095927  1  0  -0.201439  0  1.223752  0  0  -0.161248  0  1.394471  0  0  -0.169229  0  1.380169  0  0  -0.09975  -0.155288  0  1.404358  0
F  F104  1  0.05798328  0.82456678  0.88984318  1  0  -0.169568  0  1.225333  0  0  -0.141762  0  1.399996  0  0  -0.149948  0  1.386712  0  0  -0.096638  -0.13577  0  1.40916  0
F  F105  1  0.94201641  0.17543163  0.11015778  1  0  -0.169622  0  1.225323  0  0  -0.141825  0  1.399983  0  0  -0.150009  0  1.386708  0  0  -0.096662  -0.13583  0  1.409149  0
F  F106  1  0.21337733  0.77809128  0.81799726  1  0  -0.179139  0  1.225173  0  0  -0.13641  0  1.39038  0  0  -0.144632  0  1.377422  0  0  -0.087562  -0.130441  0  1.399382  0
F  F107  1  0.78662288  0.22190819  0.18200316  1  0  -0.179105  0  1.225217  0  0  -0.136395  0  1.39043  0  0  -0.144615  0  1.37748  0  0  -0.087534  -0.130423  0  1.399431  0
F  F108  1  0.30195646  0.89260958  0.04798525  1  0  -0.219689  0  1.17611  0  0  -0.193156  0  1.349119  0  0  -0.202426  0  1.332262  0  0  -0.095371  -0.186507  0  1.360825  0
F  F109  1  0.69804229  0.10738884  0.95201637  1  0  -0.219682  0  1.176163  0  0  -0.193158  0  1.349161  0  0  -0.202429  0  1.3323  0  0  -0.095389  -0.186507  0  1.360862  0
F  F110  1  0.11266469  0.72899766  0.07034276  1  0  -0.225876  0  1.178469  0  0  -0.189815  0  1.342201  0  0  -0.19898  0  1.325188  0  0  -0.092063  -0.183213  0  1.353905  0
F  F111  1  0.88733306  0.27099867  0.92965752  1  0  -0.22584  0  1.178541  0  0  -0.189785  0  1.342258  0  0  -0.198952  0  1.325246  0  0  -0.092048  -0.183184  0  1.353959  0
F  F112  1  0.26236888  0.67474469  0.99838163  1  0  -0.214409  0  1.20687  0  0  -0.178293  0  1.374382  0  0  -0.188935  0  1.358666  0  0  -0.085297  -0.170823  0  1.385511  0
F  F113  1  0.73763039  0.32525478  0.00162027  1  0  -0.214382  0  1.206876  0  0  -0.178276  0  1.37437  0  0  -0.188918  0  1.358654  0  0  -0.085292  -0.170807  0  1.385494  0
