# generated using pymatgen
data_CdH14C14S2N2O5
_symmetry_space_group_name_H-M   'P 1'
_cell_length_a   6.60044396
_cell_length_b   11.19848268
_cell_length_c   11.96040656
_cell_angle_alpha   85.33858706
_cell_angle_beta   73.96063335
_cell_angle_gamma   72.81772083
_symmetry_Int_Tables_number   1
_chemical_formula_structural   CdH14C14S2N2O5
_chemical_formula_sum   'Cd2 H28 C28 S4 N4 O10'
_cell_volume   811.71898012
_cell_formula_units_Z   2
loop_
 _symmetry_equiv_pos_site_id
 _symmetry_equiv_pos_as_xyz
  1  'x, y, z'
loop_
 _atom_site_type_symbol
 _atom_site_label
 _atom_site_symmetry_multiplicity
 _atom_site_fract_x
 _atom_site_fract_y
 _atom_site_fract_z
 _atom_site_occupancy
 _atom_site_hle17_bader_spin_density
 _atom_site_hle17_ddec_charge
 _atom_site_hle17_ddec_spin_density
 _atom_site_hle17_ddec_sum_bond_order
 _atom_site_hle17_magmom
 _atom_site_hse06_10hf_bader_spin_density
 _atom_site_hse06_10hf_ddec_charge
 _atom_site_hse06_10hf_ddec_spin_density
 _atom_site_hse06_10hf_ddec_sum_bond_order
 _atom_site_hse06_10hf_magmom
 _atom_site_hse06_bader_spin_density
 _atom_site_hse06_ddec_charge
 _atom_site_hse06_ddec_spin_density
 _atom_site_hse06_ddec_sum_bond_order
 _atom_site_hse06_magmom
 _atom_site_pbe_bader_spin_density
 _atom_site_pbe_cm5_charge
 _atom_site_pbe_ddec_charge
 _atom_site_pbe_ddec_spin_density
 _atom_site_pbe_ddec_sum_bond_order
 _atom_site_pbe_magmom
Cd  Cd0  1  0.93432375  0.75000352  0.74999570  1  0  1.128067  0  1.655011  0  0  0.933612  0  2.091571  0  0  0.990386  0  2.041524  0  0  0.772987  0.893445  0  2.125654  0
Cd  Cd1  1  0.06567780  0.24999588  0.25000634  1  0  1.128103  0  1.655004  0  0  0.933686  0  2.09156  0  0  0.990457  0  2.041512  0  0  0.773011  0.893526  0  2.125646  0
H  H2  1  0.50787556  0.77449649  0.68608096  1  0  0.443589  0  0.848796  0  0  0.409867  0  0.916876  0  0  0.421619  0  0.899598  0  0  0.29237  0.401487  0  0.929189  0
H  H3  1  0.46823577  0.72574423  0.81404840  1  0  0.44237  0  0.850332  0  0  0.408269  0  0.919012  0  0  0.420086  0  0.901658  0  0  0.291602  0.399902  0  0.931259  0
H  H4  1  0.49211276  0.22551037  0.31392342  1  0  0.443615  0  0.848758  0  0  0.409889  0  0.916851  0  0  0.421641  0  0.899573  0  0  0.292366  0.401508  0  0.929164  0
H  H5  1  0.53176641  0.27425705  0.18595341  1  0  0.442311  0  0.850394  0  0  0.408236  0  0.919041  0  0  0.420054  0  0.901685  0  0  0.291586  0.399871  0  0.931286  0
H  H6  1  0.01297793  0.69709625  0.41417045  1  0  0.124292  0  0.971239  0  0  0.132201  0  1.033518  0  0  0.13639  0  1.031843  0  0  0.103868  0.129108  0  1.035058  0
H  H7  1  0.62453504  0.80297749  0.08522405  1  0  0.125365  0  0.970387  0  0  0.132718  0  1.033258  0  0  0.136892  0  1.031602  0  0  0.103664  0.129641  0  1.034792  0
H  H8  1  0.98701255  0.30291262  0.58582009  1  0  0.124172  0  0.971423  0  0  0.132141  0  1.033616  0  0  0.13633  0  1.031946  0  0  0.103851  0.12905  0  1.035151  0
H  H9  1  0.37545644  0.19701999  0.91478383  1  0  0.125421  0  0.970531  0  0  0.132828  0  1.03332  0  0  0.137006  0  1.031656  0  0  0.103689  0.129753  0  1.034854  0
H  H10  1  0.18202865  0.47163377  0.35390543  1  0  0.077781  0  0.939832  0  0  0.087342  0  1.003737  0  0  0.089833  0  1.001309  0  0  0.114229  0.085504  0  1.00548  0
H  H11  1  0.50748741  0.02833971  0.14564847  1  0  0.077141  0  0.941268  0  0  0.086852  0  1.004784  0  0  0.089275  0  1.00246  0  0  0.114281  0.085012  0  1.006532  0
H  H12  1  0.81795070  0.52837213  0.64610205  1  0  0.077645  0  0.939802  0  0  0.087235  0  1.003706  0  0  0.089728  0  1.001275  0  0  0.114245  0.085443  0  1.005399  0
H  H13  1  0.49249825  0.97165683  0.85436037  1  0  0.077188  0  0.941099  0  0  0.086883  0  1.004639  0  0  0.089304  0  1.002309  0  0  0.114272  0.085011  0  1.006421  0
H  H14  1  0.61052752  0.45212412  0.28637172  1  0  0.083457  0  0.954289  0  0  0.088406  0  1.025567  0  0  0.091593  0  1.021964  0  0  0.113408  0.086174  0  1.027966  0
H  H15  1  0.84870539  0.04785597  0.21414002  1  0  0.083954  0  0.953299  0  0  0.08915  0  1.024206  0  0  0.092373  0  1.020588  0  0  0.113742  0.086794  0  1.026819  0
H  H16  1  0.38949069  0.54788293  0.71361305  1  0  0.083644  0  0.954219  0  0  0.088512  0  1.02556  0  0  0.091732  0  1.021923  0  0  0.113435  0.086278  0  1.027963  0
H  H17  1  0.15128795  0.95214722  0.78585715  1  0  0.083965  0  0.953403  0  0  0.08915  0  1.024311  0  0  0.092374  0  1.02069  0  0  0.113754  0.086792  0  1.026925  0
H  H18  1  0.41925514  0.67295721  0.34087741  1  0  0.104802  0  0.975906  0  0  0.114322  0  1.040146  0  0  0.117126  0  1.040155  0  0  0.102526  0.112304  0  1.040398  0
H  H19  1  0.93315177  0.82719948  0.15945573  1  0  0.10337  0  0.976797  0  0  0.1128  0  1.041312  0  0  0.115533  0  1.041392  0  0  0.101879  0.1107  0  1.041678  0
H  H20  1  0.58075974  0.32704706  0.65910471  1  0  0.104841  0  0.975905  0  0  0.114365  0  1.040132  0  0  0.117168  0  1.040143  0  0  0.102571  0.112332  0  1.040399  0
H  H21  1  0.06684821  0.17279991  0.84054822  1  0  0.103455  0  0.976766  0  0  0.112877  0  1.041284  0  0  0.115611  0  1.04136  0  0  0.101908  0.110775  0  1.041647  0
H  H22  1  0.26923390  0.86702967  0.35681361  1  0  0.114518  0  0.968494  0  0  0.125171  0  1.034758  0  0  0.126397  0  1.036159  0  0  0.098349  0.124378  0  1.033849  0
H  H23  1  0.99305429  0.63310361  0.14304457  1  0  0.115059  0  0.966671  0  0  0.124956  0  1.033753  0  0  0.126213  0  1.035114  0  0  0.098171  0.12411  0  1.032882  0
H  H24  1  0.73073490  0.13297528  0.64319555  1  0  0.114483  0  0.968377  0  0  0.125062  0  1.034751  0  0  0.126289  0  1.036153  0  0  0.098259  0.124268  0  1.033838  0
H  H25  1  0.00696605  0.36689291  0.85696567  1  0  0.115079  0  0.966667  0  0  0.124989  0  1.033765  0  0  0.126249  0  1.035126  0  0  0.098214  0.124143  0  1.032888  0
H  H26  1  0.23849348  0.99472892  0.44280642  1  0  0.151556  0  0.955381  0  0  0.16145  0  1.019477  0  0  0.165005  0  1.01758  0  0  0.109583  0.158878  0  1.021025  0
H  H27  1  0.17633393  0.50526528  0.05736369  1  0  0.151487  0  0.955722  0  0  0.161228  0  1.020055  0  0  0.164775  0  1.01818  0  0  0.109651  0.158682  0  1.021492  0
H  H28  1  0.76150236  0.00525371  0.55719095  1  0  0.151585  0  0.955353  0  0  0.161458  0  1.019453  0  0  0.165017  0  1.01755  0  0  0.109571  0.158884  0  1.021002  0
H  H29  1  0.82367646  0.49474160  0.94263900  1  0  0.151512  0  0.955608  0  0  0.161318  0  1.019873  0  0  0.16487  0  1.017998  0  0  0.10973  0.158772  0  1.021306  0
C  C30  1  0.92152222  0.64594070  0.38340845  1  0  -0.178972  0  3.710185  0  0  -0.196546  0  3.961864  0  0  -0.205317  0  3.980859  0  0  -0.096016  -0.190598  0  3.949076  0
C  C31  1  0.45105275  0.85410095  0.11614640  1  0  -0.1805  0  3.713297  0  0  -0.197844  0  3.964828  0  0  -0.206587  0  3.983878  0  0  -0.09659  -0.192291  0  3.952325  0
C  C32  1  0.07846576  0.35406999  0.61658569  1  0  -0.178933  0  3.710014  0  0  -0.19657  0  3.961772  0  0  -0.205343  0  3.980764  0  0  -0.096137  -0.190624  0  3.948997  0
C  C33  1  0.54893279  0.14589267  0.88387436  1  0  -0.180499  0  3.712881  0  0  -0.197881  0  3.964313  0  0  -0.206622  0  3.983364  0  0  -0.096622  -0.192332  0  3.951796  0
C  C34  1  0.01340213  0.52099067  0.35223939  1  0  0.127039  0  3.744417  0  0  0.095885  0  3.999702  0  0  0.10437  0  4.017668  0  0  0.039214  0.090458  0  3.987182  0
C  C35  1  0.38663074  0.97899536  0.14747294  1  0  0.128945  0  3.742709  0  0  0.098038  0  3.997939  0  0  0.106553  0  4.015788  0  0  0.039676  0.092532  0  3.985754  0
C  C36  1  0.98659532  0.47901999  0.64775833  1  0  0.127256  0  3.744183  0  0  0.096063  0  3.999542  0  0  0.104552  0  4.017502  0  0  0.039217  0.090596  0  3.987021  0
C  C37  1  0.61337255  0.02099746  0.85253347  1  0  0.128894  0  3.742725  0  0  0.097984  0  3.997923  0  0  0.106502  0  4.015771  0  0  0.039734  0.092505  0  3.985743  0
C  C38  1  0.69387597  0.50938311  0.31572947  1  0  0.137791  0  3.721737  0  0  0.106856  0  3.974087  0  0  0.11617  0  3.990419  0  0  0.042759  0.100752  0  3.963023  0
C  C39  1  0.01885643  0.99071214  0.18450292  1  0  0.135117  0  3.721754  0  0  0.104105  0  3.974482  0  0  0.113338  0  3.990812  0  0  0.040626  0.098096  0  3.963318  0
C  C40  1  0.30613879  0.49061823  0.68426458  1  0  0.137537  0  3.721886  0  0  0.106672  0  3.974188  0  0  0.115957  0  3.990515  0  0  0.042725  0.100568  0  3.963118  0
C  C41  1  0.98114578  0.00928908  0.81550475  1  0  0.134974  0  3.721596  0  0  0.103967  0  3.974317  0  0  0.113201  0  3.990648  0  0  0.040536  0.097958  0  3.963156  0
C  C42  1  0.58789772  0.63369074  0.34627060  1  0  -0.18214  0  3.739129  0  0  -0.19945  0  3.987016  0  0  -0.208459  0  4.008106  0  0  -0.098911  -0.193868  0  3.973175  0
C  C43  1  0.06787746  0.86644993  0.15390341  1  0  -0.179397  0  3.737972  0  0  -0.196836  0  3.985904  0  0  -0.20574  0  4.007033  0  0  -0.097816  -0.191118  0  3.971949  0
C  C44  1  0.41212660  0.36631356  0.65370757  1  0  -0.182044  0  3.738985  0  0  -0.19933  0  3.986808  0  0  -0.208342  0  4.007911  0  0  -0.098959  -0.193741  0  3.972971  0
C  C45  1  0.93211450  0.13355597  0.84610382  1  0  -0.179425  0  3.738099  0  0  -0.196888  0  3.986011  0  0  -0.205791  0  4.007142  0  0  -0.097844  -0.19117  0  3.972048  0
C  C46  1  0.70341085  0.70604788  0.37936691  1  0  0.086877  0  3.782054  0  0  0.102112  0  4.037451  0  0  0.110575  0  4.056524  0  0  0.008574  0.096398  0  4.024453  0
C  C47  1  0.28901542  0.79400160  0.12049290  1  0  0.0856  0  3.782805  0  0  0.101525  0  4.037131  0  0  0.109864  0  4.056396  0  0  0.008983  0.095968  0  4.024095  0
C  C48  1  0.29657584  0.29395914  0.62062182  1  0  0.086842  0  3.781752  0  0  0.102035  0  4.037229  0  0  0.1105  0  4.056302  0  0  0.008681  0.096323  0  4.024224  0
C  C49  1  0.71099123  0.20599392  0.87952451  1  0  0.085486  0  3.782626  0  0  0.10147  0  4.036873  0  0  0.109803  0  4.056148  0  0  0.008991  0.095928  0  4.023815  0
C  C50  1  0.30909084  0.89246871  0.43310705  1  0  -0.332037  0  3.661466  0  0  -0.362216  0  3.912991  0  0  -0.367499  0  3.918684  0  0  -0.161377  -0.35878  0  3.909151  0
C  C51  1  0.13486946  0.60752949  0.06682149  1  0  -0.332158  0  3.660599  0  0  -0.361056  0  3.911731  0  0  -0.366386  0  3.917503  0  0  -0.160823  -0.357596  0  3.907913  0
C  C52  1  0.69091081  0.10752427  0.56688203  1  0  -0.331926  0  3.661202  0  0  -0.36205  0  3.912762  0  0  -0.367332  0  3.918454  0  0  -0.161216  -0.358603  0  3.908902  0
C  C53  1  0.86512421  0.39246992  0.93318092  1  0  -0.33226  0  3.66069  0  0  -0.361191  0  3.911802  0  0  -0.366536  0  3.917595  0  0  -0.160936  -0.357728  0  3.907976  0
C  C54  1  0.19610363  0.83320078  0.54273539  1  0  0.700924  0  3.881603  0  0  0.653496  0  4.178394  0  0  0.686749  0  4.172757  0  0  0.194654  0.630944  0  4.181497  0
C  C55  1  0.07212373  0.66650197  0.95715920  1  0  0.6985  0  3.882393  0  0  0.649924  0  4.180785  0  0  0.68321  0  4.175153  0  0  0.193515  0.62741  0  4.183688  0
C  C56  1  0.80388952  0.16679968  0.45725448  1  0  0.700965  0  3.881832  0  0  0.653505  0  4.178655  0  0  0.686757  0  4.173019  0  0  0.194735  0.630948  0  4.181755  0
C  C57  1  0.92786840  0.33350674  0.04284782  1  0  0.698272  0  3.882482  0  0  0.649692  0  4.180917  0  0  0.682979  0  4.175289  0  0  0.193391  0.627179  0  4.18382  0
S  S58  1  0.59925434  0.86528696  0.41057011  1  0  0.077872  0  2.466068  0  0  0.076579  0  2.806129  0  0  0.071571  0  2.806902  0  0  0.044878  0.080547  0  2.805353  0
S  S59  1  0.37529529  0.63474250  0.08917237  1  0  0.078749  0  2.466628  0  0  0.076967  0  2.806493  0  0  0.072036  0  2.807364  0  0  0.044788  0.080711  0  2.805613  0
S  S60  1  0.40073185  0.13472106  0.58941111  1  0  0.077775  0  2.466053  0  0  0.076497  0  2.806106  0  0  0.071486  0  2.806885  0  0  0.04478  0.080462  0  2.805323  0
S  S61  1  0.62471458  0.36526543  0.91081779  1  0  0.078831  0  2.466731  0  0  0.077021  0  2.8066  0  0  0.072096  0  2.807481  0  0  0.044794  0.080759  0  2.805712  0
N  N62  1  0.90373453  0.45302000  0.31740930  1  0  -0.348934  0  3.262545  0  0  -0.269087  0  3.524566  0  0  -0.289651  0  3.542313  0  0  -0.341747  -0.254989  0  3.512219  0
N  N63  1  0.17403841  0.04700645  0.18262531  1  0  -0.347801  0  3.260276  0  0  -0.268508  0  3.523114  0  0  -0.289059  0  3.540838  0  0  -0.341016  -0.254593  0  3.510826  0
N  N64  1  0.09627191  0.54698222  0.68259180  1  0  -0.348924  0  3.262627  0  0  -0.269053  0  3.524583  0  0  -0.28962  0  3.542341  0  0  -0.341689  -0.25496  0  3.51226  0
N  N65  1  0.82595515  0.95299003  0.81738902  1  0  -0.347637  0  3.260308  0  0  -0.26831  0  3.523088  0  0  -0.28886  0  3.540816  0  0  -0.340955  -0.254395  0  3.510787  0
O  O66  1  0.28811604  0.79726840  0.62440153  1  0  -0.675094  0  2.033159  0  0  -0.611426  0  2.272252  0  0  -0.640234  0  2.263816  0  0  -0.324696  -0.591129  0  2.277095  0
O  O67  1  0.20978822  0.70236125  0.87537087  1  0  -0.674575  0  2.036712  0  0  -0.610096  0  2.275838  0  0  -0.639073  0  2.267722  0  0  -0.324604  -0.589822  0  2.28057  0
O  O68  1  0.71187922  0.20274035  0.37560083  1  0  -0.675079  0  2.033482  0  0  -0.611404  0  2.272611  0  0  -0.640213  0  2.264183  0  0  -0.324692  -0.591111  0  2.277462  0
O  O69  1  0.79020398  0.29763171  0.12462133  1  0  -0.674425  0  2.036759  0  0  -0.61  0  2.275991  0  0  -0.638976  0  2.267871  0  0  -0.32458  -0.589724  0  2.280724  0
O  O70  1  0.00429995  0.82687456  0.54756113  1  0  -0.648527  0  1.96038  0  0  -0.586122  0  2.197663  0  0  -0.614965  0  2.190111  0  0  -0.329624  -0.565978  0  2.202227  0
O  O71  1  0.87881389  0.67273153  0.95235930  1  0  -0.647268  0  1.959353  0  0  -0.584358  0  2.196779  0  0  -0.613128  0  2.189224  0  0  -0.328635  -0.563971  0  2.201072  0
O  O72  1  0.99570492  0.17312765  0.45244105  1  0  -0.648629  0  1.960233  0  0  -0.586192  0  2.197493  0  0  -0.615039  0  2.189947  0  0  -0.329699  -0.566062  0  2.202099  0
O  O73  1  0.12118642  0.32726408  0.04764904  1  0  -0.647188  0  1.959412  0  0  -0.584284  0  2.196833  0  0  -0.613049  0  2.189273  0  0  -0.328565  -0.563912  0  2.201171  0
O  O74  1  0.58075532  0.75034138  0.75013696  1  0  -0.85688  0  1.814963  0  0  -0.790346  0  2.012977  0  0  -0.811904  0  1.974891  0  0  -0.59615  -0.775247  0  2.039444  0
O  O75  1  0.41924354  0.24965710  0.24986471  1  0  -0.856822  0  1.814966  0  0  -0.790328  0  2.012969  0  0  -0.811873  0  1.974858  0  0  -0.596122  -0.775224  0  2.039431  0
