# generated using pymatgen
data_AgBH8C4(SF2)2
_symmetry_space_group_name_H-M   'P 1'
_cell_length_a   7.70101792
_cell_length_b   7.70102000
_cell_length_c   14.04292442
_cell_angle_alpha   89.99994366
_cell_angle_beta   90.00006686
_cell_angle_gamma   90.00002592
_symmetry_Int_Tables_number   1
_chemical_formula_structural   AgBH8C4(SF2)2
_chemical_formula_sum   'Ag4 B4 H32 C16 S8 F16'
_cell_volume   832.82536469
_cell_formula_units_Z   4
loop_
 _symmetry_equiv_pos_site_id
 _symmetry_equiv_pos_as_xyz
  1  'x, y, z'
loop_
 _atom_site_type_symbol
 _atom_site_label
 _atom_site_symmetry_multiplicity
 _atom_site_fract_x
 _atom_site_fract_y
 _atom_site_fract_z
 _atom_site_occupancy
 _atom_site_hle17_bader_spin_density
 _atom_site_hle17_ddec_charge
 _atom_site_hle17_ddec_spin_density
 _atom_site_hle17_ddec_sum_bond_order
 _atom_site_hle17_magmom
 _atom_site_hse06_10hf_bader_spin_density
 _atom_site_hse06_10hf_ddec_charge
 _atom_site_hse06_10hf_ddec_spin_density
 _atom_site_hse06_10hf_ddec_sum_bond_order
 _atom_site_hse06_10hf_magmom
 _atom_site_hse06_bader_spin_density
 _atom_site_hse06_ddec_charge
 _atom_site_hse06_ddec_spin_density
 _atom_site_hse06_ddec_sum_bond_order
 _atom_site_hse06_magmom
 _atom_site_pbe_bader_spin_density
 _atom_site_pbe_cm5_charge
 _atom_site_pbe_ddec_charge
 _atom_site_pbe_ddec_spin_density
 _atom_site_pbe_ddec_sum_bond_order
 _atom_site_pbe_magmom
Ag  Ag0  1  0.49999860  0.00000052  0.99999985  1  0  0.380546  0  1.491265  0  0  0.234056  0  1.936437  0  0  0.262316  0  1.895109  0  0  0.356  0.213764  0  1.965422  0
Ag  Ag1  1  0.99999962  0.50000108  0.50000003  1  0  0.380545  0  1.491264  0  0  0.234051  0  1.936444  0  0  0.262317  0  1.895112  0  0  0.356  0.213754  0  1.965435  0
Ag  Ag2  1  0.50000089  0.99999967  0.50000044  1  0  0.380534  0  1.491273  0  0  0.234042  0  1.936453  0  0  0.262308  0  1.895118  0  0  0.355997  0.213744  0  1.965444  0
Ag  Ag3  1  0.00000015  0.50000063  0.99999987  1  0  0.380541  0  1.491264  0  0  0.234055  0  1.936439  0  0  0.262313  0  1.895112  0  0  0.356002  0.21376  0  1.965423  0
B  B4  1  0.50000063  0.99999989  0.24999910  1  0  1.224608  0  2.865836  0  0  1.051731  0  3.258668  0  0  1.091801  0  3.208855  0  0  0.02029  1.023354  0  3.294187  0
B  B5  1  0.99999858  0.50000085  0.75000208  1  0  1.224594  0  2.865847  0  0  1.051726  0  3.258643  0  0  1.091803  0  3.208815  0  0  0.020258  1.023354  0  3.294142  0
B  B6  1  0.49999986  0.99999814  0.75000037  1  0  1.224638  0  2.865845  0  0  1.051768  0  3.258647  0  0  1.091844  0  3.208818  0  0  0.020307  1.023395  0  3.294152  0
B  B7  1  0.00000038  0.49999978  0.24999907  1  0  1.224707  0  2.865748  0  0  1.051862  0  3.258471  0  0  1.091943  0  3.208633  0  0  0.0203  1.023481  0  3.294004  0
H  H8  1  0.15163099  0.94320611  0.16346859  1  0  0.128902  0  0.913634  0  0  0.147615  0  0.966202  0  0  0.148883  0  0.965536  0  0  0.112437  0.146588  0  0.966818  0
H  H9  1  0.05679193  0.15162998  0.66346791  1  0  0.128897  0  0.913653  0  0  0.147611  0  0.966233  0  0  0.14888  0  0.965566  0  0  0.112441  0.146584  0  0.966847  0
H  H10  1  0.94320738  0.84836906  0.66346800  1  0  0.12891  0  0.913648  0  0  0.147621  0  0.966225  0  0  0.148889  0  0.965556  0  0  0.112443  0.146593  0  0.966839  0
H  H11  1  0.44320945  0.65162906  0.33653101  1  0  0.128904  0  0.913654  0  0  0.147616  0  0.96623  0  0  0.148887  0  0.965565  0  0  0.112435  0.146589  0  0.966844  0
H  H12  1  0.84836985  0.05679252  0.16346834  1  0  0.128888  0  0.913673  0  0  0.147602  0  0.96625  0  0  0.148872  0  0.965584  0  0  0.112426  0.146574  0  0.966868  0
H  H13  1  0.34836922  0.44320685  0.83653088  1  0  0.128883  0  0.913642  0  0  0.147598  0  0.966218  0  0  0.148866  0  0.965556  0  0  0.11243  0.146571  0  0.96683  0
H  H14  1  0.65163046  0.55679318  0.83653237  1  0  0.128894  0  0.913676  0  0  0.147606  0  0.966247  0  0  0.148876  0  0.965584  0  0  0.112437  0.146579  0  0.96686  0
H  H15  1  0.55679306  0.34836796  0.33653184  1  0  0.128872  0  0.913687  0  0  0.147609  0  0.966229  0  0  0.14888  0  0.965562  0  0  0.112434  0.146582  0  0.966846  0
H  H16  1  0.84836797  0.05679452  0.83653043  1  0  0.128881  0  0.913582  0  0  0.147599  0  0.966158  0  0  0.148866  0  0.965495  0  0  0.112419  0.146573  0  0.966769  0
H  H17  1  0.94320833  0.84837065  0.33653112  1  0  0.128878  0  0.913672  0  0  0.147591  0  0.966247  0  0  0.148861  0  0.965583  0  0  0.112428  0.146564  0  0.966862  0
H  H18  1  0.05679288  0.15163287  0.33653102  1  0  0.128884  0  0.913655  0  0  0.147597  0  0.966229  0  0  0.148865  0  0.965562  0  0  0.112428  0.14657  0  0.966845  0
H  H19  1  0.55678952  0.34837027  0.66346873  1  0  0.128878  0  0.913673  0  0  0.147598  0  0.966248  0  0  0.148868  0  0.965582  0  0  0.112426  0.14657  0  0.966862  0
H  H20  1  0.15162911  0.94320811  0.83653139  1  0  0.128866  0  0.913689  0  0  0.147578  0  0.966265  0  0  0.148849  0  0.965599  0  0  0.112414  0.14655  0  0.966877  0
H  H21  1  0.65163104  0.55679378  0.16346886  1  0  0.128888  0  0.91366  0  0  0.147603  0  0.966229  0  0  0.148872  0  0.965565  0  0  0.112429  0.146576  0  0.966845  0
H  H22  1  0.34836981  0.44320746  0.16346808  1  0  0.128887  0  0.913683  0  0  0.147594  0  0.966257  0  0  0.148862  0  0.965592  0  0  0.112429  0.146568  0  0.966874  0
H  H23  1  0.44320720  0.65163137  0.66346790  1  0  0.128903  0  0.913656  0  0  0.147619  0  0.966222  0  0  0.148886  0  0.965556  0  0  0.112438  0.146591  0  0.966837  0
H  H24  1  0.14025173  0.14334459  0.10094408  1  0  0.096588  0  0.979503  0  0  0.107327  0  1.052225  0  0  0.108559  0  1.051667  0  0  0.089607  0.106374  0  1.052718  0
H  H25  1  0.85665496  0.14025251  0.60094344  1  0  0.096566  0  0.979525  0  0  0.10731  0  1.052253  0  0  0.108542  0  1.051695  0  0  0.089596  0.106357  0  1.052744  0
H  H26  1  0.14334422  0.85974924  0.60094373  1  0  0.096597  0  0.979514  0  0  0.107335  0  1.052239  0  0  0.108568  0  1.051679  0  0  0.089608  0.106382  0  1.052732  0
H  H27  1  0.64334539  0.64025004  0.39905580  1  0  0.096606  0  0.979526  0  0  0.107355  0  1.052223  0  0  0.108588  0  1.051673  0  0  0.089626  0.106403  0  1.052714  0
H  H28  1  0.85974768  0.85665675  0.10094483  1  0  0.096577  0  0.979547  0  0  0.107327  0  1.05226  0  0  0.108561  0  1.051703  0  0  0.089617  0.106375  0  1.052753  0
H  H29  1  0.35974705  0.64334522  0.89905555  1  0  0.09657  0  0.979521  0  0  0.107315  0  1.05224  0  0  0.108544  0  1.051695  0  0  0.089601  0.106363  0  1.052729  0
H  H30  1  0.64025146  0.35665729  0.89905572  1  0  0.096571  0  0.979571  0  0  0.107308  0  1.052295  0  0  0.108544  0  1.051737  0  0  0.089601  0.106356  0  1.052782  0
H  H31  1  0.35665206  0.35974687  0.39905579  1  0  0.096633  0  0.979441  0  0  0.107365  0  1.052165  0  0  0.108594  0  1.051618  0  0  0.089623  0.106414  0  1.052655  0
H  H32  1  0.85974723  0.85665474  0.89905565  1  0  0.096582  0  0.979518  0  0  0.107322  0  1.052246  0  0  0.108552  0  1.051697  0  0  0.089598  0.106371  0  1.052734  0
H  H33  1  0.14334401  0.85974942  0.39905558  1  0  0.096559  0  0.979557  0  0  0.1073  0  1.052281  0  0  0.108536  0  1.051725  0  0  0.089598  0.106347  0  1.052772  0
H  H34  1  0.85665474  0.14025269  0.39905529  1  0  0.096596  0  0.9795  0  0  0.107331  0  1.052232  0  0  0.108564  0  1.051676  0  0  0.089616  0.106379  0  1.052725  0
H  H35  1  0.35665487  0.35974929  0.60094393  1  0  0.096555  0  0.979544  0  0  0.107303  0  1.052265  0  0  0.108538  0  1.051706  0  0  0.089599  0.10635  0  1.052757  0
H  H36  1  0.14025128  0.14334388  0.89905491  1  0  0.0966  0  0.979553  0  0  0.10733  0  1.052278  0  0  0.108565  0  1.051723  0  0  0.089618  0.106377  0  1.052763  0
H  H37  1  0.64025191  0.35665541  0.10094489  1  0  0.096593  0  0.97952  0  0  0.107321  0  1.052254  0  0  0.108552  0  1.051702  0  0  0.089613  0.106369  0  1.052746  0
H  H38  1  0.35974750  0.64334464  0.10094473  1  0  0.096602  0  0.979513  0  0  0.107326  0  1.052249  0  0  0.108556  0  1.051696  0  0  0.089613  0.106374  0  1.052742  0
H  H39  1  0.64334820  0.64025246  0.60094395  1  0  0.096615  0  0.979464  0  0  0.107344  0  1.052198  0  0  0.108573  0  1.051643  0  0  0.089623  0.106391  0  1.05269  0
C  C40  1  0.09824037  0.00765866  0.10020067  1  0  -0.136872  0  3.615362  0  0  -0.176932  0  3.871873  0  0  -0.176754  0  3.885304  0  0  -0.149538  -0.176874  0  3.862561  0
C  C41  1  0.99234090  0.09824122  0.60020077  1  0  -0.136867  0  3.615438  0  0  -0.176963  0  3.871981  0  0  -0.176781  0  3.885389  0  0  -0.149545  -0.176904  0  3.862663  0
C  C42  1  0.00765827  0.90176053  0.60020095  1  0  -0.136937  0  3.615495  0  0  -0.177005  0  3.872004  0  0  -0.176836  0  3.885459  0  0  -0.149561  -0.176946  0  3.862687  0
C  C43  1  0.50766072  0.59824259  0.39979849  1  0  -0.136865  0  3.615424  0  0  -0.176958  0  3.871967  0  0  -0.176753  0  3.885307  0  0  -0.149526  -0.176907  0  3.862671  0
C  C44  1  0.90175774  0.99234009  0.10020208  1  0  -0.136869  0  3.615377  0  0  -0.176981  0  3.871937  0  0  -0.176789  0  3.885321  0  0  -0.149538  -0.176924  0  3.862627  0
C  C45  1  0.40175835  0.50765801  0.89979904  1  0  -0.136893  0  3.615405  0  0  -0.176984  0  3.871957  0  0  -0.176789  0  3.885343  0  0  -0.149576  -0.176923  0  3.862631  0
C  C46  1  0.59824276  0.49234061  0.89979839  1  0  -0.136928  0  3.615439  0  0  -0.177011  0  3.87198  0  0  -0.176805  0  3.885328  0  0  -0.149563  -0.176959  0  3.86268  0
C  C47  1  0.49234192  0.40175952  0.39979854  1  0  -0.136963  0  3.615462  0  0  -0.177045  0  3.871985  0  0  -0.176874  0  3.885432  0  0  -0.149568  -0.176987  0  3.86267  0
C  C48  1  0.90175989  0.99234327  0.89979978  1  0  -0.136893  0  3.615453  0  0  -0.176972  0  3.871985  0  0  -0.176793  0  3.885415  0  0  -0.149528  -0.176913  0  3.862655  0
C  C49  1  0.00765936  0.90175681  0.39979825  1  0  -0.136857  0  3.615392  0  0  -0.176953  0  3.871951  0  0  -0.176748  0  3.885291  0  0  -0.149553  -0.176905  0  3.862665  0
C  C50  1  0.99234199  0.09824140  0.39979878  1  0  -0.136933  0  3.615393  0  0  -0.177  0  3.871905  0  0  -0.176825  0  3.885348  0  0  -0.14957  -0.176943  0  3.862592  0
C  C51  1  0.49233954  0.40175675  0.60020124  1  0  -0.136886  0  3.615436  0  0  -0.177015  0  3.872043  0  0  -0.176819  0  3.885412  0  0  -0.149579  -0.176957  0  3.862726  0
C  C52  1  0.09824252  0.00766054  0.89979765  1  0  -0.136853  0  3.615449  0  0  -0.176926  0  3.871981  0  0  -0.176719  0  3.885322  0  0  -0.149519  -0.176888  0  3.862721  0
C  C53  1  0.59824191  0.49234132  0.10020141  1  0  -0.136935  0  3.615533  0  0  -0.177006  0  3.872053  0  0  -0.176812  0  3.885437  0  0  -0.149576  -0.176948  0  3.862741  0
C  C54  1  0.40175880  0.50765873  0.10020205  1  0  -0.136892  0  3.615408  0  0  -0.176943  0  3.871907  0  0  -0.176756  0  3.885313  0  0  -0.149534  -0.176887  0  3.862598  0
C  C55  1  0.50765834  0.59823981  0.60020119  1  0  -0.136969  0  3.61547  0  0  -0.177028  0  3.872007  0  0  -0.176857  0  3.885458  0  0  -0.149582  -0.176969  0  3.86269  0
S  S56  1  0.19843348  0.89665959  0.99999951  1  0  0.040981  0  2.700998  0  0  0.092425  0  3.129182  0  0  0.083212  0  3.120279  0  0  0.007074  0.098825  0  3.135328  0
S  S57  1  0.10334016  0.19843563  0.49999982  1  0  0.041096  0  2.700899  0  0  0.092528  0  3.129131  0  0  0.083317  0  3.120231  0  0  0.007138  0.098927  0  3.135279  0
S  S58  1  0.89665880  0.80156630  0.49999991  1  0  0.041056  0  2.701004  0  0  0.092492  0  3.129221  0  0  0.083282  0  3.120318  0  0  0.007123  0.098892  0  3.13537  0
S  S59  1  0.39666124  0.69843440  0.50000049  1  0  0.041049  0  2.700996  0  0  0.092502  0  3.129182  0  0  0.083291  0  3.120278  0  0  0.007104  0.098901  0  3.135329  0
S  S60  1  0.80156525  0.10334144  0.99999920  1  0  0.04105  0  2.700967  0  0  0.0925  0  3.129167  0  0  0.083287  0  3.120266  0  0  0.007115  0.098902  0  3.135307  0
S  S61  1  0.30156518  0.39665962  0.99999967  1  0  0.041079  0  2.70094  0  0  0.092508  0  3.129154  0  0  0.083293  0  3.120251  0  0  0.007138  0.098909  0  3.135296  0
S  S62  1  0.69843378  0.60334101  0.00000006  1  0  0.04112  0  2.701006  0  0  0.09255  0  3.129222  0  0  0.083336  0  3.120318  0  0  0.007147  0.09895  0  3.135363  0
S  S63  1  0.60333902  0.30156494  0.49999924  1  0  0.041146  0  2.700954  0  0  0.09259  0  3.129184  0  0  0.083379  0  3.120282  0  0  0.007148  0.098988  0  3.135333  0
F  F64  1  0.50025764  0.84984061  0.19159820  1  0  -0.510379  0  1.051135  0  0  -0.445639  0  1.239573  0  0  -0.460806  0  1.217743  0  0  -0.150116  -0.434748  0  1.254798  0
F  F65  1  0.15015762  0.50025133  0.69160016  1  0  -0.510425  0  1.0511  0  0  -0.445675  0  1.239511  0  0  -0.460842  0  1.217679  0  0  -0.150135  -0.434776  0  1.254723  0
F  F66  1  0.84984305  0.49974376  0.69159896  1  0  -0.51041  0  1.051136  0  0  -0.445658  0  1.239542  0  0  -0.460824  0  1.217711  0  0  -0.15013  -0.434762  0  1.254759  0
F  F67  1  0.34984239  0.00025432  0.30840097  1  0  -0.510417  0  1.051103  0  0  -0.445667  0  1.23953  0  0  -0.460833  0  1.217699  0  0  -0.15014  -0.434777  0  1.254758  0
F  F68  1  0.49974197  0.15015927  0.19159768  1  0  -0.510382  0  1.051133  0  0  -0.445639  0  1.239571  0  0  -0.460806  0  1.21774  0  0  -0.150116  -0.434749  0  1.254798  0
F  F69  1  0.99974020  0.34984277  0.80840378  1  0  -0.510356  0  1.051129  0  0  -0.445617  0  1.239552  0  0  -0.460787  0  1.217721  0  0  -0.150101  -0.434736  0  1.254783  0
F  F70  1  0.00025552  0.65015861  0.80840124  1  0  -0.510388  0  1.051205  0  0  -0.445636  0  1.239631  0  0  -0.460805  0  1.217798  0  0  -0.150098  -0.434751  0  1.254858  0
F  F71  1  0.65015616  0.99974796  0.30840151  1  0  -0.510409  0  1.051168  0  0  -0.445654  0  1.239593  0  0  -0.460821  0  1.217763  0  0  -0.150106  -0.434752  0  1.25481  0
F  F72  1  0.49974522  0.15015742  0.80840296  1  0  -0.510421  0  1.051146  0  0  -0.445658  0  1.23955  0  0  -0.46083  0  1.217717  0  0  -0.150146  -0.434778  0  1.254782  0
F  F73  1  0.84984134  0.49974411  0.30839957  1  0  -0.510418  0  1.051122  0  0  -0.445683  0  1.239544  0  0  -0.460853  0  1.217712  0  0  -0.150127  -0.434788  0  1.254769  0
F  F74  1  0.15015592  0.50025297  0.30840434  1  0  -0.51045  0  1.051119  0  0  -0.445688  0  1.239517  0  0  -0.460857  0  1.217685  0  0  -0.150142  -0.434802  0  1.254751  0
F  F75  1  0.65015657  0.99974632  0.69159947  1  0  -0.510397  0  1.05117  0  0  -0.445644  0  1.239583  0  0  -0.460809  0  1.217751  0  0  -0.150104  -0.434751  0  1.254803  0
F  F76  1  0.50025700  0.84984136  0.80840348  1  0  -0.510404  0  1.051141  0  0  -0.445663  0  1.239569  0  0  -0.460832  0  1.217735  0  0  -0.150138  -0.434779  0  1.254797  0
F  F77  1  0.00025876  0.65015786  0.19159809  1  0  -0.510409  0  1.051128  0  0  -0.445677  0  1.239553  0  0  -0.460845  0  1.217719  0  0  -0.150125  -0.434784  0  1.25478  0
F  F78  1  0.99974864  0.34984332  0.19159849  1  0  -0.510429  0  1.051155  0  0  -0.445682  0  1.239565  0  0  -0.46085  0  1.217731  0  0  -0.150099  -0.434779  0  1.254782  0
F  F79  1  0.34984280  0.00025267  0.69159893  1  0  -0.510408  0  1.051165  0  0  -0.445662  0  1.239586  0  0  -0.460828  0  1.217754  0  0  -0.150111  -0.434759  0  1.254796  0
