# generated using pymatgen
data_Er2PH19C11NO16
_symmetry_space_group_name_H-M   'P 1'
_cell_length_a   9.50014064
_cell_length_b   10.41595709
_cell_length_c   12.00668266
_cell_angle_alpha   72.81360193
_cell_angle_beta   69.32763476
_cell_angle_gamma   67.16308260
_symmetry_Int_Tables_number   1
_chemical_formula_structural   Er2PH19C11NO16
_chemical_formula_sum   'Er4 P2 H38 C22 N2 O32'
_cell_volume   1007.01729199
_cell_formula_units_Z   2
loop_
 _symmetry_equiv_pos_site_id
 _symmetry_equiv_pos_as_xyz
  1  'x, y, z'
loop_
 _atom_site_type_symbol
 _atom_site_label
 _atom_site_symmetry_multiplicity
 _atom_site_fract_x
 _atom_site_fract_y
 _atom_site_fract_z
 _atom_site_occupancy
 _atom_site_hle17_bader_spin_density
 _atom_site_hle17_ddec_charge
 _atom_site_hle17_ddec_spin_density
 _atom_site_hle17_ddec_sum_bond_order
 _atom_site_hle17_magmom
 _atom_site_hse06_10hf_bader_spin_density
 _atom_site_hse06_10hf_ddec_charge
 _atom_site_hse06_10hf_ddec_spin_density
 _atom_site_hse06_10hf_ddec_sum_bond_order
 _atom_site_hse06_10hf_magmom
 _atom_site_hse06_bader_spin_density
 _atom_site_hse06_ddec_charge
 _atom_site_hse06_ddec_spin_density
 _atom_site_hse06_ddec_sum_bond_order
 _atom_site_hse06_magmom
 _atom_site_pbe_bader_spin_density
 _atom_site_pbe_cm5_charge
 _atom_site_pbe_ddec_charge
 _atom_site_pbe_ddec_spin_density
 _atom_site_pbe_ddec_sum_bond_order
 _atom_site_pbe_magmom
Er  Er0  1  0.94075533  0.18197130  0.75334083  1  0  2.216034  0  1.655287  0  0  2.06173  0  2.145571  0  0  2.203511  0  1.930801  0  0  1.494593  2.026535  0  2.174615  0
Er  Er1  1  0.05924848  0.81802493  0.24664697  1  0  2.215975  0  1.655343  0  0  2.061655  0  2.14566  0  0  2.203414  0  1.930884  0  0  1.494478  2.026449  0  2.174692  0
Er  Er2  1  0.41562244  0.17107410  0.29101194  1  0  2.276866  0  1.625281  0  0  2.131597  0  2.101823  0  0  2.261965  0  1.902473  0  0  1.5014  2.098258  0  2.129455  0
Er  Er3  1  0.58437874  0.82891670  0.70899127  1  0  2.276842  0  1.625294  0  0  2.131571  0  2.101831  0  0  2.261933  0  1.9025  0  0  1.501374  2.098231  0  2.129454  0
P  P4  1  0.34536000  0.17623674  0.60810223  1  0  1.59647  0  4.883014  0  0  1.446214  0  5.386079  0  0  1.50004  0  5.349311  0  0  0.355895  1.409994  0  5.41559  0
P  P5  1  0.65463132  0.82376889  0.39189665  1  0  1.596367  0  4.883075  0  0  1.446066  0  5.386168  0  0  1.499972  0  5.34929  0  0  0.355812  1.409898  0  5.415621  0
H  H6  1  0.46910115  0.35606262  0.58121006  1  0  0.133925  0  0.911145  0  0  0.149741  0  0.96348  0  0  0.152197  0  0.962039  0  0  0.124806  0.147693  0  0.964923  0
H  H7  1  0.53089352  0.64393977  0.41879788  1  0  0.133936  0  0.91096  0  0  0.149683  0  0.963422  0  0  0.152133  0  0.961984  0  0  0.124785  0.147634  0  0.964861  0
H  H8  1  0.28588449  0.42909978  0.54063886  1  0  0.12908  0  0.924443  0  0  0.142302  0  0.98128  0  0  0.144595  0  0.979979  0  0  0.124424  0.140658  0  0.982012  0
H  H9  1  0.71411284  0.57089838  0.45936940  1  0  0.12899  0  0.924487  0  0  0.142236  0  0.981305  0  0  0.144542  0  0.979992  0  0  0.124391  0.140603  0  0.98203  0
H  H10  1  0.14755793  0.39095737  0.75026068  1  0  0.279415  0  0.882294  0  0  0.265132  0  0.939263  0  0  0.272968  0  0.933676  0  0  0.318957  0.258974  0  0.943753  0
H  H11  1  0.85243600  0.60904396  0.24974690  1  0  0.279388  0  0.882274  0  0  0.265162  0  0.939169  0  0  0.273  0  0.933578  0  0  0.318924  0.259003  0  0.943663  0
H  H12  1  0.46127324  0.31436061  0.79573915  1  0  0.096214  0  0.928689  0  0  0.109436  0  0.990996  0  0  0.111371  0  0.989921  0  0  0.113054  0.108182  0  0.991547  0
H  H13  1  0.53872142  0.68564177  0.20427046  1  0  0.096214  0  0.928714  0  0  0.109451  0  0.991005  0  0  0.111393  0  0.989924  0  0  0.113042  0.108193  0  0.991556  0
H  H14  1  0.35566609  0.19412909  0.82332439  1  0  0.095714  0  0.92787  0  0  0.111005  0  0.984678  0  0  0.11294  0  0.983248  0  0  0.121368  0.109821  0  0.985259  0
H  H15  1  0.64432592  0.80587431  0.17668902  1  0  0.095751  0  0.927881  0  0  0.110985  0  0.984755  0  0  0.112922  0  0.983329  0  0  0.121362  0.109803  0  0.985333  0
H  H16  1  0.12987140  0.32931641  0.96988316  1  0  0.072785  0  0.935942  0  0  0.093381  0  0.993648  0  0  0.093803  0  0.99465  0  0  0.09607  0.093019  0  0.993015  0
H  H17  1  0.87012021  0.67069125  0.03012680  1  0  0.072886  0  0.935856  0  0  0.093446  0  0.993608  0  0  0.093869  0  0.994608  0  0  0.09608  0.093072  0  0.992979  0
H  H18  1  0.30554689  0.27528525  0.01376020  1  0  0.095647  0  0.961262  0  0  0.112036  0  1.021576  0  0  0.113162  0  1.022303  0  0  0.102213  0.111047  0  1.021571  0
H  H19  1  0.69444322  0.72472347  0.98624991  1  0  0.09562  0  0.961259  0  0  0.111988  0  1.021592  0  0  0.113112  0  1.022325  0  0  0.102246  0.110999  0  1.021581  0
H  H20  1  0.14674577  0.53334624  0.02744825  1  0  0.072939  0  0.968886  0  0  0.08739  0  1.038008  0  0  0.088709  0  1.037656  0  0  0.08972  0.086497  0  1.038038  0
H  H21  1  0.85324580  0.46666782  0.97255679  1  0  0.073007  0  0.968811  0  0  0.087447  0  1.037974  0  0  0.088763  0  1.037611  0  0  0.089729  0.086554  0  1.038002  0
H  H22  1  0.33766751  0.51357292  0.92541582  1  0  0.069326  0  0.926487  0  0  0.092759  0  0.979198  0  0  0.093329  0  0.979829  0  0  0.092671  0.092208  0  0.978865  0
H  H23  1  0.66232558  0.48643689  0.07459153  1  0  0.069435  0  0.926516  0  0  0.092887  0  0.9792  0  0  0.093432  0  0.979862  0  0  0.092685  0.092341  0  0.978862  0
H  H24  1  0.13724683  0.70756029  0.83034000  1  0  0.093793  0  0.946147  0  0  0.111825  0  1.003077  0  0  0.113469  0  1.002518  0  0  0.099188  0.110832  0  1.003068  0
H  H25  1  0.86275383  0.29244432  0.16965991  1  0  0.09372  0  0.946225  0  0  0.111801  0  1.003103  0  0  0.113434  0  1.002558  0  0  0.099207  0.110815  0  1.00309  0
H  H26  1  0.02505498  0.59502778  0.85922780  1  0  0.079581  0  0.95839  0  0  0.095011  0  1.024563  0  0  0.096441  0  1.024134  0  0  0.093872  0.094022  0  1.02467  0
H  H27  1  0.97493963  0.40498100  0.14077689  1  0  0.079571  0  0.958357  0  0  0.095004  0  1.024532  0  0  0.096437  0  1.0241  0  0  0.093877  0.09402  0  1.024638  0
H  H28  1  0.17811014  0.61266159  0.64887417  1  0  0.064415  0  0.928241  0  0  0.082475  0  0.988152  0  0  0.083701  0  0.986846  0  0  0.107706  0.081697  0  0.988801  0
H  H29  1  0.82188679  0.38734084  0.35112980  1  0  0.064421  0  0.928174  0  0  0.08252  0  0.98806  0  0  0.08375  0  0.986749  0  0  0.107735  0.081742  0  0.988709  0
H  H30  1  0.36016271  0.56255181  0.68929966  1  0  0.093366  0  0.941967  0  0  0.106368  0  1.006919  0  0  0.10878  0  1.005012  0  0  0.112229  0.104112  0  1.008799  0
H  H31  1  0.63983536  0.43744743  0.31070646  1  0  0.093325  0  0.941889  0  0  0.106305  0  1.006891  0  0  0.108714  0  1.00498  0  0  0.112246  0.104053  0  1.008759  0
H  H32  1  0.86848037  0.30651739  0.52759020  1  0  0.413081  0  0.846677  0  0  0.393702  0  0.908094  0  0  0.402101  0  0.898908  0  0  0.317437  0.387631  0  0.915478  0
H  H33  1  0.13153794  0.69348850  0.47239037  1  0  0.413158  0  0.846696  0  0  0.393783  0  0.908093  0  0  0.402186  0  0.898826  0  0  0.317515  0.387715  0  0.915469  0
H  H34  1  0.04490276  0.21090625  0.48328478  1  0  0.457737  0  0.828366  0  0  0.425411  0  0.893488  0  0  0.437678  0  0.875693  0  0  0.307102  0.416954  0  0.905951  0
H  H35  1  0.95510892  0.78909006  0.51669668  1  0  0.457629  0  0.828427  0  0  0.4253  0  0.893579  0  0  0.437567  0  0.875781  0  0  0.30703  0.416836  0  0.906054  0
H  H36  1  0.67556006  0.09059940  0.40424996  1  0  0.451718  0  0.796233  0  0  0.42975  0  0.856317  0  0  0.439207  0  0.845938  0  0  0.336044  0.42298  0  0.864688  0
H  H37  1  0.32443385  0.90940190  0.59576179  1  0  0.45163  0  0.796459  0  0  0.429684  0  0.856497  0  0  0.439142  0  0.846114  0  0  0.33599  0.422909  0  0.864873  0
H  H38  1  0.76155105  0.10786118  0.26457153  1  0  0.44199  0  0.85465  0  0  0.409875  0  0.920336  0  0  0.420599  0  0.90504  0  0  0.30914  0.402005  0  0.932034  0
H  H39  1  0.23844893  0.89212950  0.73544537  1  0  0.442058  0  0.854565  0  0  0.40988  0  0.920348  0  0  0.420602  0  0.905054  0  0  0.309136  0.402002  0  0.93206  0
H  H40  1  0.57860807  0.15416274  0.03712274  1  0  0.459456  0  0.800775  0  0  0.430215  0  0.869802  0  0  0.441517  0  0.852997  0  0  0.322502  0.422331  0  0.881687  0
H  H41  1  0.42139758  0.84582483  0.96288838  1  0  0.459393  0  0.800821  0  0  0.430136  0  0.869912  0  0  0.441453  0  0.853086  0  0  0.322475  0.422256  0  0.881793  0
H  H42  1  0.67959035  0.23090061  0.05366750  1  0  0.450732  0  0.832779  0  0  0.425145  0  0.88532  0  0  0.435835  0  0.869977  0  0  0.315857  0.41797  0  0.895717  0
H  H43  1  0.32041409  0.76909652  0.94634073  1  0  0.450645  0  0.832894  0  0  0.425062  0  0.885432  0  0  0.435757  0  0.870086  0  0  0.315853  0.417885  0  0.895831  0
C  C44  1  0.34736116  0.35297278  0.60719125  1  0  -0.329924  0  3.517178  0  0  -0.374387  0  3.77403  0  0  -0.377857  0  3.77696  0  0  -0.064037  -0.371277  0  3.770596  0
C  C45  1  0.65263573  0.64702960  0.39281940  1  0  -0.329722  0  3.517025  0  0  -0.37418  0  3.773918  0  0  -0.377675  0  3.776849  0  0  -0.064017  -0.371091  0  3.770468  0
C  C46  1  0.34256203  0.30330753  0.82357734  1  0  -0.002381  0  3.500317  0  0  -0.05774  0  3.751191  0  0  -0.054479  0  3.760378  0  0  -0.059069  -0.059511  0  3.743978  0
C  C47  1  0.65743188  0.69669699  0.17642944  1  0  -0.002469  0  3.50037  0  0  -0.057815  0  3.751259  0  0  -0.05457  0  3.760459  0  0  -0.059087  -0.059587  0  3.744031  0
C  C48  1  0.24538488  0.34648690  0.94502584  1  0  -0.134545  0  3.678345  0  0  -0.175397  0  3.938444  0  0  -0.176674  0  3.951712  0  0  -0.165793  -0.174354  0  3.92917  0
C  C49  1  0.75460901  0.65351759  0.05498346  1  0  -0.134502  0  3.678105  0  0  -0.175327  0  3.938239  0  0  -0.176601  0  3.951495  0  0  -0.165811  -0.174264  0  3.928939  0
C  C50  1  0.22179223  0.50121639  0.94079596  1  0  -0.106066  0  3.680815  0  0  -0.150052  0  3.947741  0  0  -0.150672  0  3.960992  0  0  -0.170082  -0.149381  0  3.938295  0
C  C51  1  0.77820131  0.49878599  0.05921313  1  0  -0.10623  0  3.680791  0  0  -0.150234  0  3.947754  0  0  -0.150829  0  3.960964  0  0  -0.170064  -0.149572  0  3.938302  0
C  C52  1  0.14649879  0.59690093  0.83941319  1  0  -0.137579  0  3.663482  0  0  -0.177698  0  3.925239  0  0  -0.178719  0  3.937053  0  0  -0.170086  -0.17664  0  3.916272  0
C  C53  1  0.85349737  0.40310361  0.16059213  1  0  -0.137499  0  3.663343  0  0  -0.177665  0  3.925186  0  0  -0.178675  0  3.936962  0  0  -0.170152  -0.176612  0  3.916211  0
C  C54  1  0.24143670  0.55152645  0.71830439  1  0  0.008578  0  3.523309  0  0  -0.053384  0  3.786576  0  0  -0.049634  0  3.795658  0  0  -0.059933  -0.055415  0  3.779675  0
C  C55  1  0.75855910  0.44847597  0.28170156  1  0  0.008766  0  3.523136  0  0  -0.053266  0  3.78655  0  0  -0.049502  0  3.795588  0  0  -0.059956  -0.055303  0  3.77965  0
C  C56  1  0.84693937  0.96365244  0.68428277  1  0  0.578403  0  3.897502  0  0  0.533936  0  4.193004  0  0  0.563997  0  4.191569  0  0  0.223029  0.513143  0  4.199482  0
C  C57  1  0.15306358  0.03635547  0.31570152  1  0  0.578644  0  3.898127  0  0  0.534118  0  4.193659  0  0  0.564197  0  4.192213  0  0  0.223127  0.513335  0  4.200128  0
C  C58  1  0.72134219  0.99414083  0.80654598  1  0  0.578952  0  3.910104  0  0  0.536718  0  4.206832  0  0  0.566839  0  4.205526  0  0  0.220153  0.516062  0  4.213083  0
C  C59  1  0.27865656  0.00587232  0.19344482  1  0  0.578697  0  3.910352  0  0  0.536494  0  4.207065  0  0  0.566596  0  4.205784  0  0  0.220119  0.515826  0  4.21333  0
C  C60  1  0.68622754  0.48925098  0.73345591  1  0  0.556259  0  3.953183  0  0  0.515489  0  4.248547  0  0  0.545256  0  4.247111  0  0  0.214293  0.495043  0  4.25479  0
C  C61  1  0.31378083  0.51073892  0.26652972  1  0  0.556494  0  3.953094  0  0  0.515649  0  4.248612  0  0  0.545413  0  4.247175  0  0  0.214244  0.495197  0  4.254852  0
C  C62  1  0.82462844  0.51422813  0.75432300  1  0  0.560516  0  3.935436  0  0  0.518483  0  4.230537  0  0  0.548059  0  4.229309  0  0  0.219193  0.498277  0  4.236577  0
C  C63  1  0.17537391  0.48575952  0.24567568  1  0  0.560515  0  3.93513  0  0  0.518432  0  4.23039  0  0  0.548031  0  4.229151  0  0  0.21922  0.498254  0  4.236397  0
C  C64  1  0.94798942  0.06524969  0.03031286  1  0  0.578322  0  3.894884  0  0  0.531555  0  4.191677  0  0  0.562233  0  4.188968  0  0  0.231746  0.51081  0  4.198284  0
C  C65  1  0.05201554  0.93474983  0.96966131  1  0  0.578343  0  3.894897  0  0  0.531794  0  4.191466  0  0  0.562524  0  4.188707  0  0  0.231965  0.511059  0  4.198062  0
N  N66  1  0.26222793  0.39824612  0.72659911  1  0  -0.064845  0  3.3823  0  0  0.017727  0  3.594294  0  0  0.005954  0  3.612756  0  0  -0.348283  0.026255  0  3.581024  0
N  N67  1  0.73776564  0.60175307  0.27341159  1  0  -0.065147  0  3.382597  0  0  0.017516  0  3.59437  0  0  0.005745  0  3.612831  0  0  -0.348234  0.026053  0  3.581087  0
O  O68  1  0.19100911  0.16215219  0.70251883  1  0  -0.988304  0  2.027262  0  0  -0.913439  0  2.311229  0  0  -0.955969  0  2.285733  0  0  -0.504678  -0.894502  0  2.324504  0
O  O69  1  0.80899127  0.83784393  0.29748160  1  0  -0.988209  0  2.027148  0  0  -0.913368  0  2.311187  0  0  -0.955885  0  2.285647  0  0  -0.504641  -0.894435  0  2.324446  0
O  O70  1  0.34173222  0.18497009  0.48041467  1  0  -0.979248  0  2.041348  0  0  -0.903842  0  2.326129  0  0  -0.944939  0  2.299501  0  0  -0.501202  -0.884193  0  2.339018  0
O  O71  1  0.65827147  0.81502919  0.51958990  1  0  -0.979278  0  2.04128  0  0  -0.903799  0  2.325978  0  0  -0.944966  0  2.299413  0  0  -0.501205  -0.884182  0  2.338871  0
O  O72  1  0.49261639  0.06582678  0.64229554  1  0  -0.989592  0  1.99555  0  0  -0.919749  0  2.270339  0  0  -0.959324  0  2.245399  0  0  -0.473889  -0.900763  0  2.283357  0
O  O73  1  0.50738584  0.93417039  0.35770662  1  0  -0.989593  0  1.995787  0  0  -0.919738  0  2.270576  0  0  -0.959327  0  2.245595  0  0  -0.473874  -0.900762  0  2.283575  0
O  O74  1  0.95981050  0.01417217  0.65190456  1  0  -0.667652  0  2.049073  0  0  -0.619974  0  2.294419  0  0  -0.654321  0  2.2801  0  0  -0.384414  -0.604638  0  2.302393  0
O  O75  1  0.04018832  0.98583463  0.34808448  1  0  -0.667764  0  2.048973  0  0  -0.620054  0  2.294365  0  0  -0.654391  0  2.280037  0  0  -0.384464  -0.604702  0  2.302311  0
O  O76  1  0.17444507  0.10957581  0.37206347  1  0  -0.646289  0  2.108875  0  0  -0.592005  0  2.349651  0  0  -0.624435  0  2.336622  0  0  -0.343007  -0.575002  0  2.356391  0
O  O77  1  0.82554975  0.89042035  0.62792849  1  0  -0.646192  0  2.108237  0  0  -0.591911  0  2.349029  0  0  -0.624326  0  2.33599  0  0  -0.342961  -0.574898  0  2.355763  0
O  O78  1  0.73397055  0.07853949  0.85738035  1  0  -0.679527  0  2.039415  0  0  -0.630897  0  2.281431  0  0  -0.666352  0  2.269283  0  0  -0.369057  -0.613975  0  2.287255  0
O  O79  1  0.26602935  0.92147372  0.14260346  1  0  -0.679424  0  2.039141  0  0  -0.630796  0  2.281155  0  0  -0.666241  0  2.269011  0  0  -0.369014  -0.613866  0  2.286973  0
O  O80  1  0.38129533  0.06877927  0.15447991  1  0  -0.66015  0  2.068143  0  0  -0.613769  0  2.317411  0  0  -0.646543  0  2.303928  0  0  -0.366849  -0.597899  0  2.324743  0
O  O81  1  0.61870239  0.93122432  0.84551272  1  0  -0.66026  0  2.067851  0  0  -0.613858  0  2.317119  0  0  -0.646637  0  2.303617  0  0  -0.36687  -0.597981  0  2.324433  0
O  O82  1  0.70498776  0.36248368  0.72902538  1  0  -0.694719  0  2.031106  0  0  -0.647524  0  2.278115  0  0  -0.683513  0  2.264537  0  0  -0.38859  -0.630937  0  2.285001  0
O  O83  1  0.29502804  0.63751374  0.27095300  1  0  -0.694861  0  2.030973  0  0  -0.647607  0  2.278026  0  0  -0.683598  0  2.264442  0  0  -0.388548  -0.631015  0  2.284904  0
O  O84  1  0.43253048  0.40350638  0.27806389  1  0  -0.631266  0  2.054049  0  0  -0.585944  0  2.29702  0  0  -0.618723  0  2.287273  0  0  -0.340151  -0.569385  0  2.301868  0
O  O85  1  0.56746845  0.59648764  0.72193247  1  0  -0.631185  0  2.053985  0  0  -0.585857  0  2.296874  0  0  -0.618641  0  2.287147  0  0  -0.340136  -0.569292  0  2.301725  0
O  O86  1  0.94682077  0.40589340  0.76183328  1  0  -0.664272  0  2.090153  0  0  -0.614378  0  2.337454  0  0  -0.649508  0  2.326508  0  0  -0.361664  -0.597427  0  2.342909  0
O  O87  1  0.05317998  0.59410486  0.23816402  1  0  -0.664323  0  2.089847  0  0  -0.614424  0  2.337202  0  0  -0.649555  0  2.326236  0  0  -0.361696  -0.597473  0  2.342641  0
O  O88  1  0.19487487  0.36190727  0.23782943  1  0  -0.647037  0  2.067116  0  0  -0.604206  0  2.317235  0  0  -0.637843  0  2.307561  0  0  -0.350447  -0.588164  0  2.321364  0
O  O89  1  0.80512181  0.63808674  0.76216755  1  0  -0.64711  0  2.067148  0  0  -0.604331  0  2.317292  0  0  -0.637937  0  2.307597  0  0  -0.350452  -0.58825  0  2.321398  0
O  O90  1  0.88940157  0.17961013  0.96300213  1  0  -0.666668  0  2.057262  0  0  -0.615897  0  2.301848  0  0  -0.651838  0  2.289523  0  0  -0.355614  -0.59923  0  2.307566  0
O  O91  1  0.11060633  0.82038718  0.03698511  1  0  -0.666751  0  2.057088  0  0  -0.616009  0  2.301515  0  0  -0.651969  0  2.289175  0  0  -0.355647  -0.599345  0  2.307235  0
O  O92  1  0.07117169  0.95279858  0.85738193  1  0  -0.655391  0  2.153977  0  0  -0.599074  0  2.394217  0  0  -0.63447  0  2.384655  0  0  -0.337182  -0.581557  0  2.398928  0
O  O93  1  0.92882877  0.04719766  0.14260347  1  0  -0.655485  0  2.153704  0  0  -0.599086  0  2.394004  0  0  -0.634475  0  2.384458  0  0  -0.337094  -0.581578  0  2.39872  0
O  O94  1  0.97323906  0.27930047  0.53920121  1  0  -0.87283  0  1.851606  0  0  -0.831  0  2.04313  0  0  -0.860821  0  2.009061  0  0  -0.615804  -0.818071  0  2.062064  0
O  O95  1  0.02677972  0.72069480  0.46078272  1  0  -0.872779  0  1.851666  0  0  -0.830952  0  2.04316  0  0  -0.860772  0  2.009016  0  0  -0.615799  -0.818023  0  2.062089  0
O  O96  1  0.66233634  0.14673386  0.32544873  1  0  -0.880861  0  1.843209  0  0  -0.832541  0  2.03789  0  0  -0.860375  0  2.003436  0  0  -0.611084  -0.820254  0  2.058607  0
O  O97  1  0.33766288  0.85326218  0.67456121  1  0  -0.880856  0  1.843283  0  0  -0.832513  0  2.038057  0  0  -0.860328  0  2.003599  0  0  -0.611058  -0.820215  0  2.058775  0
O  O98  1  0.57776104  0.21112820  0.08964814  1  0  -0.90203  0  1.82124  0  0  -0.853448  0  2.015295  0  0  -0.883239  0  1.974346  0  0  -0.62379  -0.840418  0  2.037866  0
O  O99  1  0.42224879  0.78885409  0.91036231  1  0  -0.901917  0  1.821345  0  0  -0.85333  0  2.015396  0  0  -0.88314  0  1.974428  0  0  -0.623818  -0.840311  0  2.037965  0
