# generated using pymatgen
data_H16RuC19N(O2F)2
_symmetry_space_group_name_H-M   'P 1'
_cell_length_a   8.87809231
_cell_length_b   10.26672609
_cell_length_c   11.01212668
_cell_angle_alpha   72.92208521
_cell_angle_beta   72.53792996
_cell_angle_gamma   71.91861221
_symmetry_Int_Tables_number   1
_chemical_formula_structural   H16RuC19N(O2F)2
_chemical_formula_sum   'H32 Ru2 C38 N2 O8 F4'
_cell_volume   887.66669963
_cell_formula_units_Z   2
loop_
 _symmetry_equiv_pos_site_id
 _symmetry_equiv_pos_as_xyz
  1  'x, y, z'
loop_
 _atom_site_type_symbol
 _atom_site_label
 _atom_site_symmetry_multiplicity
 _atom_site_fract_x
 _atom_site_fract_y
 _atom_site_fract_z
 _atom_site_occupancy
 _atom_site_pbe_cm5_charge
 _atom_site_pbe_ddec_charge
 _atom_site_pbe_ddec_spin_density
 _atom_site_pbe_ddec_sum_bond_order
 _atom_site_pbe_magmom
H  H0  1  0.22290743  0.80447208  0.52587451  1  0.108754  0.131007  -6e-06  1.005306  0.0
H  H1  1  0.77708977  0.19553011  0.47412640  1  0.108731  0.13101  -6e-06  1.005296  0.0
H  H2  1  0.28672931  0.54275393  0.58966119  1  0.094773  0.090453  -0.0  1.060707  0.0
H  H3  1  0.71326228  0.45724719  0.41033868  1  0.094778  0.090456  -0.0  1.060696  0.0
H  H4  1  0.11494289  0.42242002  0.78860977  1  0.101532  0.1028  -1.8e-05  1.004331  0.0
H  H5  1  0.88505106  0.57758110  0.21139132  1  0.101513  0.102795  -1.9e-05  1.004328  0.0
H  H6  1  0.87466953  0.56675373  0.91984570  1  0.104064  0.106666  0.000139  1.026465  0.0
H  H7  1  0.12532354  0.43324634  0.08015681  1  0.10407  0.106659  0.000139  1.02651  0.0
H  H8  1  0.54763902  0.59178150  0.64256139  1  0.104806  0.123397  4e-05  1.034601  0.0
H  H9  1  0.45236468  0.40821859  0.35743850  1  0.1048  0.123375  4e-05  1.034539  0.0
H  H10  1  0.67719050  0.72647510  0.71901669  1  0.102972  0.107534  3.2e-05  1.024616  0.0
H  H11  1  0.32281378  0.27352289  0.28098183  1  0.10295  0.107554  3.2e-05  1.024604  0.0
H  H12  1  0.77216142  0.93456942  0.56375889  1  0.094256  0.092351  -0.0  1.041362  0.0
H  H13  1  0.22784876  0.06542858  0.43623726  1  0.094286  0.092394  -0.0  1.041303  0.0
H  H14  1  0.72627166  0.00858763  0.33890450  1  0.103217  0.106207  -0.000119  1.019395  0.0
H  H15  1  0.27373112  0.99141140  0.66108956  1  0.103197  0.106164  -0.000119  1.019455  0.0
H  H16  1  0.12700081  0.81322390  0.25369027  1  0.102244  0.126781  8.1e-05  1.013424  0.0
H  H17  1  0.87299907  0.18677304  0.74631143  1  0.102227  0.126734  8.1e-05  1.013466  0.0
H  H18  1  0.13366955  0.63356209  0.26424549  1  0.090285  0.102718  -2.3e-05  0.999115  0.0
H  H19  1  0.86633499  0.36643485  0.73574599  1  0.090229  0.102639  -2.3e-05  0.999022  0.0
H  H20  1  0.30397911  0.68071915  0.28038271  1  0.098458  0.117502  -7.7e-05  1.04307  0.0
H  H21  1  0.69601986  0.31927673  0.71961497  1  0.098459  0.117462  -7.7e-05  1.043014  0.0
H  H22  1  0.05851941  0.89399109  0.06089715  1  0.108428  0.131419  6.8e-05  1.000773  0.0
H  H23  1  0.94148601  0.10601110  0.93909538  1  0.108414  0.131344  6.8e-05  1.000794  0.0
H  H24  1  0.17880396  0.83706382  0.91644703  1  0.102411  0.120513  -0.000296  1.014976  0.0
H  H25  1  0.82120591  0.16293524  0.08354709  1  0.102411  0.120513  -0.000296  1.01487  0.0
H  H26  1  0.05663219  0.72884615  0.03869351  1  0.089844  0.096744  -0.000596  1.011555  0.0
H  H27  1  0.94337442  0.27115605  0.96130145  1  0.089784  0.09664  -0.000596  1.011578  0.0
H  H28  1  0.52709709  0.57868250  0.18264354  1  0.102557  0.107461  -0.000191  1.035843  0.0
H  H29  1  0.47290218  0.42131654  0.81735682  1  0.102548  0.107443  -0.000191  1.035855  0.0
H  H30  1  0.72555800  0.37559320  0.11248505  1  0.09621  0.096809  -1.9e-05  1.056282  0.0
H  H31  1  0.27444394  0.62440479  0.88751586  1  0.096216  0.09683  -1.9e-05  1.056288  0.0
Ru  Ru32  1  0.43617641  0.91062596  0.02005551  1  0.662334  0.648051  -0.013555  3.770454  -0.011
Ru  Ru33  1  0.56382111  0.08937097  0.97994768  1  0.66239  0.648206  -0.013568  3.770435  -0.011
C  C34  1  0.77314841  0.84713648  0.87813552  1  0.211039  0.547738  0.002262  4.151424  0.004
C  C35  1  0.22684943  0.15286362  0.12187217  1  0.210976  0.547647  0.002262  4.151261  0.004
C  C36  1  0.92006069  0.76426307  0.80198055  1  -0.023329  -0.146793  -0.000419  4.005242  0.0
C  C37  1  0.07993507  0.23573597  0.19802612  1  -0.023304  -0.146601  -0.000419  4.005128  0.0
C  C38  1  0.02147073  0.82731684  0.69094409  1  0.104484  0.267139  -2.7e-05  4.028736  0.0
C  C39  1  0.97852266  0.17268219  0.30906135  1  0.10446  0.267028  -2.7e-05  4.028696  0.0
C  C40  1  0.15146031  0.74994299  0.61372081  1  -0.100185  -0.21096  -2.1e-05  4.001172  0.0
C  C41  1  0.84853602  0.25005814  0.38628152  1  -0.100205  -0.211008  -2.1e-05  4.001178  0.0
C  C42  1  0.18469136  0.60368249  0.64966763  1  -0.084117  -0.04216  -2e-05  3.990455  0.0
C  C43  1  0.81530227  0.39631968  0.35033053  1  -0.084093  -0.042126  -2e-05  3.990439  0.0
C  C44  1  0.08749804  0.53686587  0.76095474  1  -0.095394  -0.10236  -2.2e-05  4.013091  0.0
C  C45  1  0.91250065  0.46313527  0.23904792  1  -0.095382  -0.102346  -2.2e-05  4.013061  0.0
C  C46  1  0.95516689  0.61662963  0.83515177  1  -0.080055  -0.079889  5.4e-05  3.976139  0.0
C  C47  1  0.04482767  0.38336939  0.16485067  1  -0.080064  -0.079952  5.4e-05  3.976223  0.0
C  C48  1  0.58075024  0.89621188  0.22991562  1  0.207533  0.548452  -0.002305  4.150886  -0.004
C  C49  1  0.41924903  0.10378715  0.77008565  1  0.207578  0.548517  -0.002304  4.150777  -0.004
C  C50  1  0.61396107  0.84338744  0.36209927  1  -0.0299  -0.157539  0.000519  4.007116  0.0
C  C51  1  0.38603289  0.15661368  0.63790273  1  -0.029933  -0.157537  0.00052  4.007027  0.0
C  C52  1  0.56635477  0.72590513  0.45113367  1  0.101628  0.266907  4.4e-05  4.019355  0.0
C  C53  1  0.43364213  0.27409810  0.54886703  1  0.101649  0.266909  4.4e-05  4.019372  0.0
C  C54  1  0.58909080  0.68269546  0.57741927  1  -0.104761  -0.220492  4.6e-05  4.01635  0.0
C  C55  1  0.41090788  0.31730567  0.42258157  1  -0.10477  -0.220461  4.6e-05  4.016277  0.0
C  C56  1  0.66283076  0.75828732  0.61885382  1  -0.078566  -0.025392  6.9e-05  3.954454  0.0
C  C57  1  0.33717146  0.24171382  0.38114615  1  -0.07855  -0.025432  6.9e-05  3.954592  0.0
C  C58  1  0.71435716  0.87480667  0.53246654  1  -0.098967  -0.107617  -0.0  4.012233  0.0
C  C59  1  0.28564534  0.12519342  0.46753093  1  -0.098996  -0.107663  -0.0  4.012276  0.0
C  C60  1  0.68992458  0.91643045  0.40636223  1  -0.078985  -0.062382  -9.7e-05  3.967705  0.0
C  C61  1  0.31007585  0.08357279  0.59363578  1  -0.078949  -0.062327  -9.7e-05  3.967681  0.0
C  C62  1  0.20493447  0.71373222  0.23012178  1  -0.149129  -0.277551  -0.000862  3.878165  -0.001
C  C63  1  0.79506745  0.28626576  0.76987550  1  -0.149072  -0.277377  -0.000862  3.877935  -0.001
C  C64  1  0.13318240  0.80205224  0.02160640  1  -0.148062  -0.282177  -0.001507  3.91693  -0.001
C  C65  1  0.86682186  0.19794996  0.97838914  1  -0.148027  -0.282006  -0.001506  3.91681  -0.001
C  C66  1  0.38209987  0.61675838  0.04364832  1  0.075872  0.154573  0.00765  3.980135  0.004
C  C67  1  0.61790469  0.38324277  0.95634834  1  0.075906  0.15466  0.00765  3.980012  0.004
C  C68  1  0.51155271  0.54262449  0.10451155  1  -0.097614  -0.153598  0.004323  3.998676  0.002
C  C69  1  0.48845009  0.45737455  0.89548523  1  -0.097621  -0.15361  0.004324  3.998611  0.002
C  C70  1  0.62709644  0.42811305  0.06218666  1  -0.101133  -0.160185  0.004305  3.987134  0.002
C  C71  1  0.37290402  0.57188599  0.93781432  1  -0.101139  -0.160189  0.004305  3.98716  0.002
N  N72  1  0.26895236  0.73741225  0.08699083  1  -0.318722  -0.034252  0.0053  3.545681  0.005
N  N73  1  0.73104984  0.26258889  0.91300641  1  -0.318727  -0.034343  0.005301  3.545683  0.005
O  O74  1  0.65050797  0.79234809  0.92755684  1  -0.300023  -0.462057  0.015405  2.46597  0.007
O  O75  1  0.34949670  0.20764466  0.07245301  1  -0.299988  -0.46206  0.015408  2.465951  0.007
O  O76  1  0.77576590  0.96704702  0.88894344  1  -0.30042  -0.460621  0.014154  2.473386  0.008
O  O77  1  0.22423012  0.03295516  0.11105867  1  -0.30041  -0.460586  0.014153  2.473293  0.008
O  O78  1  0.50342336  0.83192247  0.19495260  1  -0.306801  -0.471162  -0.016814  2.509383  -0.01
O  O79  1  0.49657091  0.16808182  0.80505390  1  -0.306911  -0.47131  -0.016817  2.509272  -0.01
O  O80  1  0.62823803  0.00601231  0.15777185  1  -0.305094  -0.462652  -0.017283  2.432026  -0.01
O  O81  1  0.37176684  0.99398779  0.84222503  1  -0.305065  -0.462626  -0.017279  2.432187  -0.01
F  F82  1  0.98878973  0.97026304  0.65146154  1  -0.085304  -0.136603  7.9e-05  1.401611  0.0
F  F83  1  0.01121014  0.02973390  0.34853926  1  -0.085275  -0.136574  8e-05  1.401567  0.0
F  F84  1  0.49221113  0.64821006  0.41609738  1  -0.081113  -0.13681  -0.000289  1.436749  0.0
F  F85  1  0.50778697  0.35178897  0.58390418  1  -0.081117  -0.136814  -0.000289  1.43685  0.0
