# generated using pymatgen
data_MnH12(C4N5)2
_symmetry_space_group_name_H-M   'P 1'
_cell_length_a   6.24020314
_cell_length_b   6.50511962
_cell_length_c   14.83772161
_cell_angle_alpha   94.24426456
_cell_angle_beta   89.99970779
_cell_angle_gamma   90.00034934
_symmetry_Int_Tables_number   1
_chemical_formula_structural   MnH12(C4N5)2
_chemical_formula_sum   'Mn2 H24 C16 N20'
_cell_volume   600.65982831
_cell_formula_units_Z   2
loop_
 _symmetry_equiv_pos_site_id
 _symmetry_equiv_pos_as_xyz
  1  'x, y, z'
loop_
 _atom_site_type_symbol
 _atom_site_label
 _atom_site_symmetry_multiplicity
 _atom_site_fract_x
 _atom_site_fract_y
 _atom_site_fract_z
 _atom_site_occupancy
 _atom_site_pbe_cm5_charge
 _atom_site_pbe_ddec_charge
 _atom_site_pbe_ddec_spin_density
 _atom_site_pbe_ddec_sum_bond_order
 _atom_site_pbe_magmom
Mn  Mn0  1  0.49999671  0.49998403  0.50000289  1  0.635077  0.799263  4.602757  2.685334  4.389
Mn  Mn1  1  0.00000000  0.00004470  0.00000281  1  0.635115  0.799211  4.602767  2.68554  4.389
H  H2  1  0.68797283  0.33609119  0.69810200  1  0.133424  0.097534  0.000104  1.039053  0.0
H  H3  1  0.18793985  0.16399293  0.80187974  1  0.133421  0.097492  0.000105  1.038839  0.0
H  H4  1  0.31202379  0.66392777  0.30189197  1  0.133438  0.097523  0.000105  1.038991  0.0
H  H5  1  0.81199749  0.83614785  0.19809733  1  0.133405  0.097445  0.000105  1.038849  0.0
H  H6  1  0.13376309  0.68621417  0.65562312  1  0.115662  0.103543  0.000191  1.060053  0.0
H  H7  1  0.63379095  0.81379913  0.84439575  1  0.11565  0.103566  0.000191  1.060072  0.0
H  H8  1  0.86621751  0.31379551  0.34438941  1  0.115634  0.103511  0.000191  1.060159  0.0
H  H9  1  0.36626177  0.18622441  0.15562735  1  0.115603  0.103459  0.000191  1.060036  0.0
H  H10  1  0.17252657  0.63407860  0.83927726  1  0.125028  0.130908  0.000169  1.032028  0.0
H  H11  1  0.67252495  0.86587325  0.66073479  1  0.125001  0.130934  0.000169  1.032054  0.0
H  H12  1  0.82749730  0.36593570  0.16073677  1  0.125015  0.130886  0.000169  1.032227  0.0
H  H13  1  0.32751174  0.13402543  0.33927882  1  0.125029  0.13093  0.000169  1.031939  0.0
H  H14  1  0.65114109  0.27358311  0.86425422  1  0.108056  0.126225  -0.000411  1.037562  0.0
H  H15  1  0.15111694  0.22637596  0.63571946  1  0.108112  0.126406  -0.000411  1.037857  0.0
H  H16  1  0.34888759  0.72641428  0.13573769  1  0.108092  0.126343  -0.000411  1.037631  0.0
H  H17  1  0.84886847  0.77356289  0.36424627  1  0.108049  0.126132  -0.000411  1.03769  0.0
H  H18  1  0.40523393  0.34805598  0.91927009  1  0.106454  0.122605  6.1e-05  1.046547  0.0
H  H19  1  0.90520947  0.15188442  0.58071254  1  0.106531  0.122783  6.1e-05  1.046457  0.0
H  H20  1  0.59478192  0.65191211  0.08072423  1  0.10654  0.122706  6.1e-05  1.0465  0.0
H  H21  1  0.09476312  0.84804516  0.41926501  1  0.106442  0.122568  6.1e-05  1.046652  0.0
H  H22  1  0.61949840  0.52939021  0.91448608  1  0.103063  0.120166  0.000264  1.039002  0.0
H  H23  1  0.11947644  0.97055522  0.58551105  1  0.10313  0.120332  0.000265  1.038836  0.0
H  H24  1  0.38050623  0.47059790  0.08552103  1  0.103078  0.120277  0.000265  1.038982  0.0
H  H25  1  0.88049615  0.02936200  0.41448025  1  0.10304  0.120203  0.000264  1.039021  0.0
C  C26  1  0.54209158  0.42414828  0.70959578  1  0.140205  0.081241  0.006357  3.921693  0.006
C  C27  1  0.04207259  0.07588724  0.79039614  1  0.140152  0.081224  0.006355  3.921348  0.006
C  C28  1  0.45791466  0.57585834  0.29040452  1  0.140151  0.081091  0.006355  3.921724  0.006
C  C29  1  0.95791122  0.92419031  0.20959369  1  0.140212  0.081496  0.006355  3.921828  0.006
C  C30  1  0.25633716  0.60731341  0.69139322  1  -0.00634  -0.041814  0.003383  4.008762  0.004
C  C31  1  0.75634672  0.89270365  0.80861878  1  -0.006296  -0.041838  0.003381  4.00907  0.004
C  C32  1  0.74366428  0.39269472  0.30861994  1  -0.006361  -0.041949  0.003382  4.008703  0.004
C  C33  1  0.24367554  0.10731835  0.19139955  1  -0.006118  -0.041475  0.00338  4.008671  0.004
C  C34  1  0.27031683  0.57929832  0.78215389  1  -0.003034  -0.118159  0.001007  3.907281  0.001
C  C35  1  0.77031486  0.92068337  0.71785085  1  -0.003007  -0.11825  0.001007  3.907231  0.001
C  C36  1  0.72970063  0.42070983  0.21784714  1  -0.003017  -0.118079  0.001008  3.906989  0.001
C  C37  1  0.22970100  0.07927391  0.28215255  1  -0.003153  -0.118321  0.001008  3.907791  0.001
C  C38  1  0.53718679  0.39977194  0.87774382  1  -0.136913  -0.283531  0.001298  3.85123  0.001
C  C39  1  0.03716359  0.10018186  0.62224274  1  -0.137166  -0.284248  0.001299  3.85161  0.001
C  C40  1  0.46282907  0.60021310  0.12225443  1  -0.137086  -0.283951  0.001299  3.85138  0.001
C  C41  1  0.96281220  0.89975697  0.37773714  1  -0.136904  -0.283396  0.001298  3.851423  0.001
N  N42  1  0.42713444  0.51017664  0.64663079  1  -0.349811  -0.309765  0.032571  3.568606  0.015
N  N43  1  0.92713608  0.98987374  0.85336980  1  -0.349747  -0.309782  0.032566  3.568658  0.015
N  N44  1  0.57285257  0.48983305  0.35337231  1  -0.349778  -0.309645  0.032566  3.568599  0.015
N  N45  1  0.07286376  0.01022383  0.14663349  1  -0.349916  -0.309935  0.032571  3.568678  0.015
N  N46  1  0.45210214  0.46172492  0.79247680  1  -0.251749  0.080465  0.002765  3.805929  0.003
N  N47  1  0.95208501  0.03827892  0.70751927  1  -0.251693  0.080974  0.002764  3.805421  0.003
N  N48  1  0.54791052  0.53829094  0.20752920  1  -0.251611  0.080842  0.002764  3.805516  0.003
N  N49  1  0.04790520  0.96172002  0.29247000  1  -0.251644  0.080315  0.002764  3.806216  0.003
N  N50  1  0.41970873  0.83497452  0.50052965  1  -0.243204  -0.469579  0.059494  2.934744  0.037
N  N51  1  0.91970169  0.66506352  0.99945640  1  -0.242897  -0.469305  0.059505  2.934534  0.037
N  N52  1  0.58029430  0.16502132  0.49946424  1  -0.243518  -0.470161  0.059474  2.934638  0.036
N  N53  1  0.08028692  0.33501405  0.00052399  1  -0.243532  -0.47004  0.059472  2.934718  0.036
N  N54  1  0.49999511  0.99999044  0.49999749  1  0.095637  0.435439  0.024602  4.478211  0.028
N  N55  1  0.00000033  0.50003144  0.99999094  1  0.095327  0.435085  0.024603  4.478115  0.028
N  N56  1  0.83961550  0.57205532  0.53146065  1  -0.251111  -0.472732  0.063606  2.897757  0.039
N  N57  1  0.33962385  0.92791284  0.96856439  1  -0.250783  -0.472109  0.0636  2.898325  0.039
N  N58  1  0.16037151  0.42790656  0.46855706  1  -0.250721  -0.472022  0.063592  2.898297  0.039
N  N59  1  0.66037758  0.07205980  0.03146850  1  -0.250997  -0.472451  0.063596  2.897502  0.039
N  N60  1  0.00000978  0.49997650  0.50000587  1  0.089711  0.430802  0.030955  4.479819  0.034
N  N61  1  0.49998534  0.99998637  0.00001274  1  0.089623  0.430608  0.030952  4.479618  0.034
