# generated using pymatgen
data_MnH12C18N2(Cl2O3)2
_symmetry_space_group_name_H-M   'P 1'
_cell_length_a   8.52726622
_cell_length_b   8.52067031
_cell_length_c   14.57317218
_cell_angle_alpha   104.25636299
_cell_angle_beta   106.77961276
_cell_angle_gamma   94.81012626
_symmetry_Int_Tables_number   1
_chemical_formula_structural   MnH12C18N2(Cl2O3)2
_chemical_formula_sum   'Mn2 H24 C36 N4 Cl8 O12'
_cell_volume   968.75867402
_cell_formula_units_Z   2
loop_
 _symmetry_equiv_pos_site_id
 _symmetry_equiv_pos_as_xyz
  1  'x, y, z'
loop_
 _atom_site_type_symbol
 _atom_site_label
 _atom_site_symmetry_multiplicity
 _atom_site_fract_x
 _atom_site_fract_y
 _atom_site_fract_z
 _atom_site_occupancy
 _atom_site_hle17_ddec_charge
 _atom_site_hle17_ddec_spin_density
 _atom_site_hle17_ddec_sum_bond_order
 _atom_site_hle17_magmom
 _atom_site_hse06_10hf_ddec_charge
 _atom_site_hse06_10hf_ddec_spin_density
 _atom_site_hse06_10hf_ddec_sum_bond_order
 _atom_site_hse06_10hf_magmom
 _atom_site_hse06_ddec_charge
 _atom_site_hse06_ddec_spin_density
 _atom_site_hse06_ddec_sum_bond_order
 _atom_site_hse06_magmom
 _atom_site_pbe_cm5_charge
 _atom_site_pbe_ddec_charge
 _atom_site_pbe_ddec_spin_density
 _atom_site_pbe_ddec_sum_bond_order
 _atom_site_pbe_magmom
Mn  Mn0  1  0.27096664  0.02081889  0.25003304  1  1.130562  -4.806754  1.76923  -4.682  0.971146  -4.72995  2.247978  -4.541  1.025795  -4.772784  2.1825  -4.601  0.587903  0.93019  -4.685628  2.295425  -4.481
Mn  Mn1  1  0.72903428  0.97917907  0.74996638  1  1.130582  4.806759  1.769064  4.682  0.971189  4.729967  2.247782  4.541  1.025834  4.772797  2.182308  4.601  0.587921  0.930233  4.685648  2.295231  4.481
H  H2  1  0.90248691  0.98125928  0.24283428  1  0.076667  -5.2e-05  0.952633  0.0  0.083115  -0.000421  1.02237  -0.001  0.085445  -0.000279  1.020278  0.0  0.112254  0.08131  -0.000559  1.024078  -0.001
H  H3  1  0.23824319  0.65868404  0.25684402  1  0.075836  -4.3e-05  0.951511  0.0  0.082093  -0.000422  1.021691  -0.001  0.084408  -0.00028  1.019584  0.0  0.112223  0.080361  -0.00056  1.023328  -0.001
H  H4  1  0.09751156  0.01873863  0.75716746  1  0.076668  4.3e-05  0.952614  0.0  0.083121  0.000421  1.022348  0.001  0.085449  0.000279  1.020259  0.0  0.112268  0.081315  0.000559  1.024057  0.001
H  H5  1  0.76175301  0.34131510  0.74315478  1  0.075831  4.9e-05  0.951521  0.0  0.082081  0.000422  1.021704  0.0  0.084397  0.000279  1.019596  0.0  0.112198  0.080347  0.00056  1.023345  0.001
H  H6  1  0.67754484  0.77268285  0.24085310  1  0.113561  0.0  0.957556  0.0  0.121465  1e-05  1.022838  0.0  0.125374  7.7e-05  1.020645  0.0  0.10545  0.118591  -6.6e-05  1.024609  0.0
H  H7  1  0.03111248  0.43542966  0.25805025  1  0.113611  -3e-06  0.957973  0.0  0.121526  1.2e-05  1.023198  0.0  0.125329  7.8e-05  1.021131  0.0  0.105479  0.118741  -6.3e-05  1.024833  0.0
H  H8  1  0.32245034  0.22731751  0.75914502  1  0.113629  -1e-06  0.957496  0.0  0.121516  -1e-05  1.0228  0.0  0.125428  -7.7e-05  1.020604  0.0  0.105491  0.118644  6.6e-05  1.024572  0.0
H  H9  1  0.96888063  0.56457314  0.74194788  1  0.113596  -2e-06  0.957911  0.0  0.121505  -1.2e-05  1.023158  0.0  0.125305  -7.9e-05  1.021095  0.0  0.105455  0.118717  6.3e-05  1.024796  0.0
H  H10  1  0.81810849  0.24880935  0.19193785  1  0.12282  -0.000113  0.939155  0.0  0.133343  -0.000123  0.9982  0.0  0.137454  -6.7e-05  0.995509  0.0  0.110674  0.13032  -0.000185  1.000362  0.0
H  H11  1  0.55709584  0.62594273  0.30692795  1  0.123342  -0.00012  0.93913  0.0  0.133732  -0.000122  0.998135  0.0  0.137848  -6.6e-05  0.995471  0.0  0.11077  0.130715  -0.000185  1.000287  0.0
H  H12  1  0.18188930  0.75119959  0.80806677  1  0.122739  0.000118  0.939184  0.0  0.133262  0.000123  0.998224  0.0  0.13737  6.7e-05  0.995539  0.0  0.110641  0.130242  0.000185  1.000385  0.0
H  H13  1  0.44289727  0.37406006  0.69307087  1  0.123369  0.000115  0.939045  0.0  0.133762  0.000122  0.998059  0.0  0.137878  6.6e-05  0.995396  0.0  0.110777  0.130748  0.000185  1.000212  0.0
H  H14  1  0.60013777  0.04300796  0.19867699  1  0.069894  1.5e-05  0.984163  0.0  0.073899  -0.00033  1.058969  0.0  0.076402  -0.000204  1.056836  0.0  0.105648  0.072052  -0.000452  1.06052  -0.001
H  H15  1  0.34498820  0.40176561  0.30120645  1  0.06964  7e-06  0.983904  0.0  0.073162  -0.000335  1.05933  0.0  0.075771  -0.000208  1.057083  0.0  0.10566  0.071241  -0.000458  1.061003  -0.001
H  H16  1  0.39986128  0.95699365  0.80132402  1  0.069853  -1.3e-05  0.98419  0.0  0.073869  0.00033  1.058991  0.0  0.07637  0.000204  1.056861  0.0  0.105641  0.072023  0.000452  1.060543  0.001
H  H17  1  0.65500595  0.59823596  0.69879304  1  0.069665  -1.9e-05  0.983889  0.0  0.073187  0.000335  1.059316  0.0  0.075791  0.000208  1.057074  0.0  0.105667  0.071268  0.000458  1.060982  0.001
H  H18  1  0.38851826  0.07180213  0.43951864  1  0.409442  -0.000256  0.907946  0.0  0.376377  -0.00098  0.977125  -0.001  0.388504  -0.000773  0.959591  -0.001  0.282425  0.367769  -0.001149  0.989543  -0.001
H  H19  1  0.13219031  0.94890294  0.06057410  1  0.409419  -0.000258  0.908357  0.0  0.375773  -0.000974  0.97815  -0.001  0.387912  -0.000768  0.960613  -0.001  0.282025  0.367172  -0.001144  0.990545  -0.001
H  H20  1  0.61147712  0.92819944  0.56048312  1  0.409435  0.000256  0.907972  0.0  0.376411  0.00098  0.977092  0.001  0.388539  0.000773  0.959554  0.001  0.282447  0.367802  0.001149  0.98951  0.001
H  H21  1  0.86781942  0.05108898  0.93942248  1  0.409331  0.000259  0.908481  0.0  0.375671  0.000974  0.97827  0.001  0.387811  0.000768  0.960734  0.001  0.282008  0.36707  0.001143  0.990665  0.001
H  H22  1  0.54977006  0.02683137  0.41198457  1  0.408528  -0.00055  0.858614  -0.001  0.380945  -0.001505  0.936999  -0.002  0.389861  -0.00111  0.926175  -0.002  0.297378  0.374552  -0.001873  0.944511  -0.003
H  H23  1  0.11518572  0.13788039  0.08805673  1  0.409044  -0.000547  0.858169  -0.001  0.381385  -0.001499  0.936802  -0.002  0.390294  -0.001106  0.925728  -0.002  0.297319  0.374997  -0.001865  0.944324  -0.003
H  H24  1  0.45022817  0.97317268  0.58801734  1  0.40851  0.000551  0.858592  0.001  0.380932  0.001505  0.936974  0.002  0.389847  0.00111  0.926184  0.002  0.297363  0.37454  0.001872  0.944488  0.003
H  H25  1  0.88482422  0.86211273  0.91194349  1  0.409089  0.000548  0.858121  0.001  0.381442  0.001499  0.936725  0.002  0.390349  0.001105  0.925648  0.002  0.297315  0.375055  0.001864  0.944247  0.003
C  C26  1  0.92470979  0.85834194  0.24586881  1  0.128244  -0.003385  3.732843  -0.003  0.093454  -0.005377  3.995197  -0.005  0.101001  -0.004642  4.012992  -0.004  0.044238  0.088423  -0.006245  3.983159  -0.005
C  C27  1  0.11238366  0.67805221  0.25367155  1  0.131177  -0.003412  3.72726  -0.003  0.096618  -0.005376  3.989729  -0.005  0.104206  -0.004641  4.007419  -0.004  0.044966  0.091514  -0.006251  3.977766  -0.005
C  C28  1  0.07528907  0.14165844  0.75413130  1  0.128263  0.003412  3.732919  0.003  0.093461  0.005377  3.995285  0.005  0.101007  0.004642  4.013085  0.004  0.044244  0.088432  0.006245  3.983248  0.005
C  C29  1  0.88761437  0.32195062  0.74632878  1  0.131136  0.00339  3.727334  0.003  0.096584  0.005377  3.989779  0.005  0.104172  0.00464  4.007469  0.004  0.04499  0.091482  0.00625  3.97782  0.005
C  C30  1  0.80074346  0.74185586  0.24591179  1  -0.158843  0.001127  3.694629  0.001  -0.178903  0.000355  3.947144  0.0  -0.186851  0.000939  3.967843  0.001  -0.085342  -0.173705  -0.000155  3.933351  0.0
C  C31  1  0.99557153  0.55383968  0.25313369  1  -0.16041  0.001135  3.695448  0.001  -0.180657  0.000343  3.948237  0.0  -0.188552  0.000932  3.968986  0.001  -0.086094  -0.175493  -0.00017  3.934436  0.0
C  C32  1  0.19924765  0.25814200  0.75408734  1  -0.158859  -0.00112  3.694704  -0.001  -0.178881  -0.000355  3.947201  0.0  -0.186826  -0.000941  3.967898  -0.001  -0.085343  -0.173681  0.000155  3.933411  0.0
C  C33  1  0.00442183  0.44615698  0.74686427  1  -0.160335  -0.001112  3.695455  -0.001  -0.180561  -0.000344  3.948224  0.0  -0.188455  -0.000933  3.968974  -0.001  -0.086022  -0.175395  0.00017  3.934422  0.0
C  C34  1  0.83504413  0.58473932  0.24939678  1  0.104128  -0.002468  3.732057  -0.002  0.116503  -0.00382  3.96132  -0.003  0.120224  -0.003344  3.983491  -0.003  0.012391  0.114147  -0.00457  3.946154  -0.003
C  C35  1  0.16495104  0.41526105  0.75059928  1  0.104078  0.002452  3.731988  0.002  0.116411  0.00382  3.961273  0.003  0.120131  0.003345  3.983444  0.003  0.012359  0.114056  0.00457  3.94611  0.003
C  C36  1  0.70731492  0.45704006  0.24939856  1  0.103685  -0.002034  3.726778  -0.002  0.115763  -0.003412  3.957323  -0.003  0.119189  -0.002958  3.979846  -0.002  0.014211  0.113649  -0.004082  3.941915  -0.003
C  C37  1  0.29267923  0.54296150  0.75060162  1  0.103664  0.002055  3.726827  0.002  0.115796  0.003412  3.957305  0.003  0.119221  0.002963  3.979833  0.002  0.014135  0.113683  0.004082  3.941902  0.003
C  C38  1  0.71811487  0.28968688  0.21937152  1  -0.146552  0.000779  3.672601  0.0  -0.168556  0.000143  3.928001  0.0  -0.175791  0.000676  3.947898  0.0  -0.082334  -0.163866  -0.000364  3.914735  0.0
C  C39  1  0.57037197  0.49836645  0.27967116  1  -0.148148  0.000789  3.674217  0.0  -0.169661  0.000133  3.928912  0.0  -0.176986  0.000673  3.948982  0.0  -0.082561  -0.164938  -0.000381  3.915577  0.0
C  C40  1  0.28188355  0.71031841  0.78062786  1  -0.146494  -0.000812  3.672747  -0.001  -0.168486  -0.000142  3.928124  0.0  -0.175724  -0.000681  3.948026  0.0  -0.08228  -0.163797  0.000364  3.914859  0.0
C  C41  1  0.42962870  0.50163763  0.72032842  1  -0.148232  -0.000802  3.67426  -0.001  -0.169773  -0.000134  3.928954  0.0  -0.177102  -0.000676  3.949029  0.0  -0.08255  -0.165049  0.000381  3.915623  0.0
C  C42  1  0.59591125  0.17379662  0.22167262  1  0.11588  -0.002977  3.744017  -0.003  0.082809  -0.004996  4.006893  -0.004  0.089691  -0.004268  4.024846  -0.004  0.036982  0.078257  -0.005798  3.99472  -0.005
C  C43  1  0.45243229  0.37415782  0.27793228  1  0.116754  -0.002953  3.746782  -0.003  0.083954  -0.004986  4.009476  -0.004  0.090754  -0.004259  4.027441  -0.004  0.037001  0.079423  -0.005786  3.997323  -0.005
C  C44  1  0.40408658  0.82620498  0.77832818  1  0.115994  0.002989  3.744173  0.003  0.082888  0.004994  4.007023  0.004  0.089775  0.004269  4.024985  0.004  0.037027  0.078336  0.005798  3.994858  0.005
C  C45  1  0.54756127  0.62584005  0.72206795  1  0.116809  0.003013  3.746944  0.003  0.084002  0.004983  4.009628  0.004  0.090805  0.004262  4.027607  0.004  0.037035  0.079478  0.005785  3.99748  0.005
C  C46  1  0.41409786  0.62626303  0.03267994  1  -0.123501  0.000941  3.72246  0.001  -0.123463  0.000615  3.981266  0.0  -0.12596  0.000899  3.996556  0.001  -0.020638  -0.122538  0.000525  3.971686  0.001
C  C47  1  0.09349665  0.38133401  0.46728454  1  -0.12376  0.000978  3.721654  0.001  -0.123747  0.000602  3.980078  0.0  -0.126201  0.000893  3.995337  0.001  -0.020925  -0.122842  0.000505  3.970511  0.001
C  C48  1  0.58591591  0.37373872  0.96732081  1  -0.123344  -0.000944  3.722443  -0.001  -0.123205  -0.000615  3.981022  0.0  -0.125702  -0.0009  3.996313  -0.001  -0.020525  -0.122291  -0.000527  3.971442  -0.001
C  C49  1  0.90649343  0.61866507  0.53271391  1  -0.123994  -0.000984  3.721944  -0.001  -0.124026  -0.000603  3.980504  0.0  -0.126494  -0.000893  3.995765  -0.001  -0.021016  -0.123117  -0.000507  3.970933  -0.001
C  C50  1  0.56014569  0.66304779  0.01085242  1  0.058247  -0.001851  3.795569  -0.002  0.051982  -0.001752  4.075212  -0.002  0.054948  -0.001629  4.094883  -0.002  0.004769  0.049771  -0.002162  4.062416  -0.002
C  C51  1  0.15225653  0.54930862  0.48929786  1  0.057827  -0.001898  3.794968  -0.002  0.052059  -0.001764  4.074087  -0.002  0.055001  -0.001636  4.093776  -0.002  0.005144  0.049863  -0.002183  4.06127  -0.002
C  C52  1  0.43986666  0.33695271  0.98915066  1  0.058157  0.001851  3.795645  0.002  0.051873  0.001753  4.075295  0.002  0.054839  0.001628  4.094961  0.002  0.004738  0.049669  0.002161  4.062496  0.002
C  C53  1  0.84773925  0.45069539  0.51070501  1  0.057947  0.001903  3.795059  0.002  0.052171  0.001764  4.074205  0.002  0.055123  0.001636  4.093888  0.002  0.005183  0.049974  0.002183  4.061385  0.002
C  C54  1  0.35437893  0.46208204  0.02109880  1  0.063134  -0.001928  3.78249  -0.002  0.056442  -0.001878  4.062587  -0.002  0.059507  -0.001721  4.081905  -0.002  0.005041  0.05413  -0.002338  4.050037  -0.002
C  C55  1  0.94087693  0.33318337  0.47874201  1  0.06378  -0.00196  3.78175  -0.002  0.056634  -0.001849  4.06234  -0.002  0.05969  -0.001702  4.081644  -0.002  0.00484  0.054335  -0.002291  4.049789  -0.002
C  C56  1  0.64563425  0.53791603  0.97890132  1  0.062937  0.001934  3.782959  0.002  0.056277  0.001877  4.062934  0.002  0.059342  0.001721  4.082256  0.002  0.004963  0.053973  0.002338  4.05038  0.002
C  C57  1  0.05912478  0.66681948  0.52126100  1  0.06395  0.001967  3.781728  0.002  0.056783  0.001848  4.062381  0.002  0.059847  0.001704  4.081682  0.002  0.004835  0.054482  0.00229  4.049831  0.002
C  C58  1  0.32378258  0.76187987  0.07028158  1  0.666109  -0.002137  3.934965  -0.002  0.609588  -0.004855  4.24662  -0.004  0.644138  -0.003553  4.237743  -0.003  0.207602  0.586165  -0.006149  4.251437  -0.005
C  C59  1  0.19154160  0.25347713  0.42967170  1  0.667051  -0.002137  3.934238  -0.002  0.611025  -0.004851  4.245077  -0.004  0.64555  -0.003551  4.236177  -0.003  0.207821  0.587612  -0.006144  4.249908  -0.005
C  C60  1  0.67622195  0.23812551  0.92971404  1  0.666132  0.002137  3.934889  0.002  0.609666  0.004854  4.246422  0.004  0.644217  0.003554  4.237542  0.003  0.207642  0.586251  0.006148  4.251235  0.005
C  C61  1  0.80845280  0.74651826  0.57033311  1  0.666983  0.002133  3.93458  0.002  0.610928  0.004849  4.245499  0.004  0.645461  0.00355  4.236596  0.003  0.207763  0.587512  0.006143  4.250331  0.005
N  N62  1  0.07859896  0.82824575  0.24990827  1  -0.322704  -0.026105  3.219813  -0.013  -0.25002  -0.029398  3.489407  -0.012  -0.269039  -0.026188  3.504633  -0.01  -0.322327  -0.236623  -0.032406  3.478977  -0.015
N  N63  1  0.92140092  0.17175343  0.75008978  1  -0.32272  0.026102  3.219715  0.013  -0.250034  0.029397  3.489309  0.012  -0.269056  0.026191  3.504537  0.01  -0.322338  -0.236635  0.032405  3.478878  0.015
N  N64  1  0.46408037  0.21389315  0.24996874  1  -0.355999  -0.027162  3.279706  -0.014  -0.286431  -0.030882  3.557975  -0.013  -0.305176  -0.027677  3.57274  -0.01  -0.330514  -0.273163  -0.033921  3.54777  -0.015
N  N65  1  0.53591604  0.78610719  0.75003370  1  -0.356079  0.02713  3.279775  0.014  -0.286522  0.030882  3.558131  0.013  -0.305233  0.027675  3.572796  0.01  -0.330555  -0.273245  0.03392  3.547901  0.015
Cl  Cl66  1  0.63485118  0.86364580  0.02312046  1  -0.033089  -0.00026  1.520492  0.0  -0.015783  -0.000526  1.786656  0.0  -0.01855  -0.000436  1.782985  0.0  0.04753  -0.01413  -0.000665  1.789613  0.0
Cl  Cl67  1  0.34035604  0.61174228  0.47687668  1  -0.033438  -0.000261  1.519819  0.0  -0.016158  -0.000524  1.785317  0.0  -0.018889  -0.000435  1.781638  0.0  0.047002  -0.014509  -0.000663  1.788291  0.0
Cl  Cl68  1  0.36516377  0.13636334  0.97687882  1  -0.033059  0.000259  1.520763  0.0  -0.015767  0.000526  1.786946  0.0  -0.018532  0.000436  1.783276  0.0  0.047563  -0.014112  0.000664  1.789902  0.0
Cl  Cl69  1  0.65964548  0.38825933  0.52312749  1  -0.033408  0.000258  1.519863  0.0  -0.016124  0.000525  1.785365  0.0  -0.018854  0.000434  1.781683  0.0  0.047009  -0.014474  0.000663  1.788339  0.0
Cl  Cl70  1  0.17156106  0.41462409  0.04438088  1  -0.041216  -0.000184  1.472516  0.0  -0.023008  -0.000534  1.726685  0.0  -0.025248  -0.000373  1.722471  0.0  0.038889  -0.021709  -0.000757  1.730055  -0.001
Cl  Cl71  1  0.87008946  0.12697257  0.45526016  1  -0.040872  -0.000184  1.47126  0.0  -0.022786  -0.000531  1.725647  0.0  -0.02501  -0.000373  1.721416  0.0  0.038994  -0.021473  -0.000754  1.729024  -0.001
Cl  Cl72  1  0.82844657  0.58537762  0.95561746  1  -0.04112  0.000183  1.472823  0.0  -0.022932  0.000534  1.726946  0.0  -0.025171  0.000374  1.722733  0.0  0.038966  -0.021634  0.000757  1.730314  0.001
Cl  Cl73  1  0.12990572  0.87302777  0.54474001  1  -0.040903  0.000182  1.471285  0.0  -0.022802  0.00053  1.72568  0.0  -0.025029  0.000371  1.72145  0.0  0.038997  -0.021488  0.000753  1.729058  0.001
O  O74  1  0.37630780  0.82815825  0.16460638  1  -0.639162  -0.028839  1.996242  -0.018  -0.572852  -0.035435  2.254163  -0.021  -0.603308  -0.032372  2.242161  -0.019  -0.307321  -0.550227  -0.038138  2.261235  -0.023
O  O75  1  0.16346724  0.21154305  0.33532450  1  -0.639666  -0.028834  1.994932  -0.018  -0.573574  -0.035426  2.25267  -0.021  -0.604011  -0.032353  2.240655  -0.019  -0.307538  -0.550937  -0.038147  2.259736  -0.023
O  O76  1  0.62369680  0.17183972  0.83539503  1  -0.639123  0.028839  1.996284  0.018  -0.572858  0.035434  2.254162  0.021  -0.603321  0.032373  2.242178  0.019  -0.307347  -0.550235  0.038139  2.261237  0.023
O  O77  1  0.83653412  0.78844999  0.66467496  1  -0.63953  0.02883  1.99524  0.018  -0.573427  0.035422  2.253001  0.021  -0.60385  0.032349  2.240958  0.019  -0.307472  -0.550796  0.038144  2.260071  0.023
O  O78  1  0.20727019  0.79627657  0.00644579  1  -0.601613  -0.000552  1.956267  -0.001  -0.551401  -0.001768  2.179273  -0.002  -0.576764  -0.001179  2.170536  -0.002  -0.310694  -0.533293  -0.00234  2.184473  -0.003
O  O79  1  0.28999387  0.20107687  0.49357438  1  -0.602452  -0.000553  1.956302  -0.001  -0.552598  -0.001769  2.178776  -0.002  -0.578013  -0.001179  2.170132  -0.002  -0.311308  -0.534528  -0.002343  2.184106  -0.003
O  O80  1  0.79274012  0.20371907  0.99354662  1  -0.601755  0.000549  1.956156  0.001  -0.551581  0.001769  2.179147  0.002  -0.576944  0.001179  2.170407  0.002  -0.310793  -0.533473  0.00234  2.184353  0.003
O  O81  1  0.71000047  0.79892593  0.50642464  1  -0.602427  0.000552  1.956215  0.001  -0.552586  0.001769  2.178732  0.002  -0.578009  0.001179  2.170088  0.002  -0.311276  -0.534511  0.002343  2.184058  0.003
O  O82  1  0.42983406  0.99224192  0.39099551  1  -0.818198  -0.031698  1.90951  -0.02  -0.762507  -0.0412  2.123265  -0.026  -0.784884  -0.036952  2.091219  -0.022  -0.572685  -0.745573  -0.045125  2.145302  -0.029
O  O83  1  0.10134772  0.03890166  0.10910772  1  -0.818777  -0.031629  1.909245  -0.02  -0.762703  -0.041119  2.1242  -0.026  -0.785088  -0.036888  2.091902  -0.022  -0.572379  -0.745788  -0.045021  2.146238  -0.029
O  O84  1  0.57016460  0.00775724  0.60900302  1  -0.818161  0.031694  1.90952  0.02  -0.762514  0.041198  2.123228  0.026  -0.784893  0.036951  2.091215  0.022  -0.572699  -0.745579  0.045124  2.145269  0.029
O  O85  1  0.89866241  0.96109269  0.89089271  1  -0.818784  0.031623  1.909314  0.02  -0.762698  0.041117  2.124332  0.026  -0.785089  0.036889  2.092018  0.022  -0.572393  -0.745782  0.04502  2.146373  0.029
