# generated using pymatgen
data_NaH20AuC16S6(NO)4
_symmetry_space_group_name_H-M   'P 1'
_cell_length_a   7.32476274
_cell_length_b   9.16395338
_cell_length_c   10.13772133
_cell_angle_alpha   63.16178567
_cell_angle_beta   76.70036942
_cell_angle_gamma   85.63364168
_symmetry_Int_Tables_number   1
_chemical_formula_structural   NaH20AuC16S6(NO)4
_chemical_formula_sum   'Na1 H20 Au1 C16 S6 N4 O4'
_cell_volume   590.59829359
_cell_formula_units_Z   1
loop_
 _symmetry_equiv_pos_site_id
 _symmetry_equiv_pos_as_xyz
  1  'x, y, z'
loop_
 _atom_site_type_symbol
 _atom_site_label
 _atom_site_symmetry_multiplicity
 _atom_site_fract_x
 _atom_site_fract_y
 _atom_site_fract_z
 _atom_site_occupancy
 _atom_site_hle17_bader_spin_density
 _atom_site_hle17_ddec_charge
 _atom_site_hle17_ddec_spin_density
 _atom_site_hle17_ddec_sum_bond_order
 _atom_site_hle17_magmom
 _atom_site_hse06_10hf_bader_spin_density
 _atom_site_hse06_10hf_ddec_charge
 _atom_site_hse06_10hf_ddec_spin_density
 _atom_site_hse06_10hf_ddec_sum_bond_order
 _atom_site_hse06_10hf_magmom
 _atom_site_hse06_bader_spin_density
 _atom_site_hse06_ddec_charge
 _atom_site_hse06_ddec_spin_density
 _atom_site_hse06_ddec_sum_bond_order
 _atom_site_hse06_magmom
 _atom_site_pbe_bader_spin_density
 _atom_site_pbe_cm5_charge
 _atom_site_pbe_ddec_charge
 _atom_site_pbe_ddec_spin_density
 _atom_site_pbe_ddec_sum_bond_order
 _atom_site_pbe_magmom
Na  Na0  1  0.00000104  0.00000093  0.99999896  1  0  0.875524  0  0.438128  0  0  0.810437  0  0.616392  0  0  0.822028  0  0.594901  0  0  0.694205  0.802098  0  0.631656  0
H  H1  1  0.88004349  0.60135511  0.29021141  1  0  0.125661  0  0.942653  0  0  0.137149  0  1.000925  0  0  0.140848  0  0.998583  0  0  0.111172  0.13447  0  1.002577  0
H  H2  1  0.11995466  0.39864443  0.70979215  1  0  0.125633  0  0.942633  0  0  0.137109  0  1.000937  0  0  0.140807  0  0.998597  0  0  0.111171  0.134445  0  1.002574  0
H  H3  1  0.51498299  0.39448705  0.39590452  1  0  0.122058  0  0.958856  0  0  0.129987  0  1.024979  0  0  0.133605  0  1.023526  0  0  0.096728  0.127406  0  1.026053  0
H  H4  1  0.48501240  0.60551374  0.60409604  1  0  0.122064  0  0.958873  0  0  0.129998  0  1.025005  0  0  0.133616  0  1.023552  0  0  0.096724  0.127416  0  1.02608  0
H  H5  1  0.90476467  0.68599092  0.88846494  1  0  0.069537  0  0.979487  0  0  0.082886  0  1.054045  0  0  0.083683  0  1.053968  0  0  0.086013  0.082161  0  1.054231  0
H  H6  1  0.09523904  0.31400742  0.11153423  1  0  0.069522  0  0.97949  0  0  0.082879  0  1.054042  0  0  0.083674  0  1.053968  0  0  0.086011  0.082151  0  1.054228  0
H  H7  1  0.66852004  0.62249077  0.98867079  1  0  0.062178  0  0.944127  0  0  0.082255  0  1.006285  0  0  0.082724  0  1.006513  0  0  0.086684  0.081824  0  1.006227  0
H  H8  1  0.33148231  0.37750880  0.01132812  1  0  0.062187  0  0.944134  0  0  0.08227  0  1.00629  0  0  0.08274  0  1.006519  0  0  0.086676  0.081839  0  1.006231  0
H  H9  1  0.85701411  0.54072287  0.08437087  1  0  0.052674  0  0.980639  0  0  0.067776  0  1.054293  0  0  0.068387  0  1.054657  0  0  0.080692  0.067317  0  1.053926  0
H  H10  1  0.14298824  0.45927669  0.91562902  1  0  0.052672  0  0.980669  0  0  0.067794  0  1.054307  0  0  0.068406  0  1.054668  0  0  0.080695  0.067332  0  1.053942  0
H  H11  1  0.76895688  0.28286143  0.12791292  1  0  0.057347  0  0.985716  0  0  0.074746  0  1.056152  0  0  0.075311  0  1.05635  0  0  0.081534  0.073939  0  1.056569  0
H  H12  1  0.23104272  0.71713935  0.87208694  1  0  0.057351  0  0.98571  0  0  0.074749  0  1.056149  0  0  0.075314  0  1.056342  0  0  0.081538  0.073944  0  1.056563  0
H  H13  1  0.53261254  0.20181681  0.20672404  1  0  0.056393  0  0.999021  0  0  0.067627  0  1.078658  0  0  0.068008  0  1.079615  0  0  0.074144  0.067305  0  1.077919  0
H  H14  1  0.46738710  0.79818520  0.79327531  1  0  0.056393  0  0.999044  0  0  0.067631  0  1.078671  0  0  0.068013  0  1.079622  0  0  0.074153  0.067308  0  1.077938  0
H  H15  1  0.63592028  0.25650907  0.01221997  1  0  0.072422  0  0.964632  0  0  0.090784  0  1.028801  0  0  0.089533  0  1.031627  0  0  0.09133  0.091226  0  1.02755  0
H  H16  1  0.36408216  0.74349293  0.98777992  1  0  0.07244  0  0.964581  0  0  0.090808  0  1.028747  0  0  0.089535  0  1.031598  0  0  0.091313  0.09125  0  1.027496  0
H  H17  1  0.69388790  0.76549231  0.12178945  1  0  0.340247  0  0.948135  0  0  0.31307  0  1.030937  0  0  0.322238  0  1.020289  0  0  0.286163  0.306676  0  1.038261  0
H  H18  1  0.30611590  0.23450849  0.87820773  1  0  0.340172  0  0.948219  0  0  0.313003  0  1.031005  0  0  0.32217  0  1.020357  0  0  0.286161  0.306608  0  1.03833  0
H  H19  1  0.73406911  0.98646524  0.26921603  1  0  0.326599  0  0.945019  0  0  0.301211  0  1.03257  0  0  0.310137  0  1.022731  0  0  0.270496  0.294738  0  1.039639  0
H  H20  1  0.26593193  0.01353678  0.73078211  1  0  0.326591  0  0.945023  0  0  0.301197  0  1.032587  0  0  0.310123  0  1.02275  0  0  0.270498  0.294724  0  1.039657  0
Au  Au21  1  0.99999834  0.00000031  0.49999907  1  0  0.300613  0  3.304682  0  0  0.266429  0  3.929972  0  0  0.2819  0  3.909253  0  0  0.491585  0.255939  0  3.944856  0
C  C22  1  0.05310505  0.39065670  0.36930975  1  0  0.048623  0  3.802267  0  0  0.064146  0  4.055469  0  0  0.066982  0  4.07917  0  0  -0.012992  0.061936  0  4.039209  0
C  C23  1  0.94689169  0.60934286  0.63069206  1  0  0.048749  0  3.802288  0  0  0.064231  0  4.055498  0  0  0.067067  0  4.079201  0  0  -0.012978  0.062007  0  4.039264  0
C  C24  1  0.01775915  0.55641853  0.31036460  1  0  -0.182824  0  3.691671  0  0  -0.205705  0  3.938845  0  0  -0.20992  0  3.957365  0  0  -0.097083  -0.202256  0  3.925922  0
C  C25  1  0.98223769  0.44358347  0.68963819  1  0  -0.182776  0  3.691693  0  0  -0.205654  0  3.938872  0  0  -0.209868  0  3.95739  0  0  -0.097077  -0.202213  0  3.925947  0
C  C26  1  0.16375952  0.66735289  0.27703206  1  0  0.180344  0  3.844368  0  0  0.178723  0  4.097669  0  0  0.183235  0  4.117201  0  0  0.100257  0.175321  0  4.084836  0
C  C27  1  0.83624143  0.33264668  0.72296708  1  0  0.180245  0  3.844465  0  0  0.178651  0  4.097729  0  0  0.183163  0  4.117263  0  0  0.100242  0.175251  0  4.084898  0
C  C28  1  0.34631750  0.60895955  0.30637927  1  0  0.174797  0  3.829164  0  0  0.171448  0  4.082419  0  0  0.176283  0  4.101979  0  0  0.097844  0.168153  0  4.06928  0
C  C29  1  0.65368204  0.39104002  0.69362109  1  0  0.174833  0  3.8292  0  0  0.171469  0  4.08246  0  0  0.176303  0  4.102022  0  0  0.097848  0.168173  0  4.06932  0
C  C30  1  0.37895544  0.43974705  0.37067115  1  0  -0.184281  0  3.675911  0  0  -0.205661  0  3.923994  0  0  -0.209912  0  3.941364  0  0  -0.102258  -0.202481  0  3.911948  0
C  C31  1  0.62104405  0.56025131  0.62932773  1  0  -0.184259  0  3.676089  0  0  -0.205658  0  3.924143  0  0  -0.209912  0  3.941518  0  0  -0.102241  -0.202477  0  3.912093  0
C  C32  1  0.23391324  0.33216153  0.40119337  1  0  0.061138  0  3.771152  0  0  0.071907  0  4.027068  0  0  0.075119  0  4.049655  0  0  -0.01179  0.069643  0  4.011362  0
C  C33  1  0.76608210  0.66783803  0.59880967  1  0  0.061013  0  3.771331  0  0  0.071852  0  4.027163  0  0  0.075063  0  4.04975  0  0  -0.011833  0.069592  0  4.011459  0
C  C34  1  0.80677155  0.65135902  0.99829336  1  0  -0.012814  0  3.678035  0  0  -0.09685  0  3.93658  0  0  -0.09149  0  3.941383  0  0  -0.156744  -0.100257  0  3.933089  0
C  C35  1  0.19323221  0.34864054  0.00170531  1  0  -0.012798  0  3.678057  0  0  -0.096879  0  3.936633  0  0  -0.09152  0  3.941434  0  0  -0.156716  -0.100289  0  3.933155  0
C  C36  1  0.66365277  0.20462394  0.12630975  1  0  -0.030563  0  3.682598  0  0  -0.117632  0  3.942328  0  0  -0.111928  0  3.9478  0  0  -0.165482  -0.121221  0  3.939188  0
C  C37  1  0.33634823  0.79537684  0.87369087  1  0  -0.030592  0  3.682543  0  0  -0.117684  0  3.942285  0  0  -0.111964  0  3.947771  0  0  -0.165485  -0.121273  0  3.939144  0
S  S38  1  0.36160522  0.90349227  0.19506799  1  0  0.471439  0  3.078569  0  0  0.44532  0  3.492384  0  0  0.460395  0  3.491374  0  0  0.386169  0.433627  0  3.495122  0
S  S39  1  0.63839568  0.09650608  0.80493164  1  0  0.47145  0  3.078518  0  0  0.445324  0  3.492337  0  0  0.460398  0  3.491329  0  0  0.386155  0.433632  0  3.495078  0
S  S40  1  0.87135820  0.25705837  0.40213208  1  0  -0.19153  0  2.346358  0  0  -0.188941  0  2.742618  0  0  -0.20187  0  2.741872  0  0  -0.135478  -0.179684  0  2.743964  0
S  S41  1  0.12863578  0.74294242  0.59786970  1  0  -0.191569  0  2.346337  0  0  -0.188962  0  2.742599  0  0  -0.201893  0  2.741857  0  0  -0.135463  -0.179701  0  2.743953  0
S  S42  1  0.27958921  0.12257964  0.47688982  1  0  -0.190708  0  2.36656  0  0  -0.180307  0  2.760804  0  0  -0.19091  0  2.756429  0  0  -0.125135  -0.17235  0  2.76369  0
S  S43  1  0.72040753  0.87741994  0.52311002  1  0  -0.190684  0  2.366587  0  0  -0.180312  0  2.760809  0  0  -0.190914  0  2.756432  0  0  -0.125147  -0.172354  0  2.763693  0
N  N44  1  0.15629188  0.83253734  0.21317147  1  0  -0.466125  0  2.959186  0  0  -0.434449  0  3.263272  0  0  -0.441435  0  3.268406  0  0  -0.380111  -0.429488  0  3.261025  0
N  N45  1  0.84370771  0.16746345  0.78682839  1  0  -0.466111  0  2.959218  0  0  -0.434444  0  3.263296  0  0  -0.441431  0  3.268431  0  0  -0.380099  -0.429483  0  3.261051  0
N  N46  1  0.47146662  0.73245504  0.26337083  1  0  -0.436139  0  2.944815  0  0  -0.39407  0  3.225836  0  0  -0.403676  0  3.234069  0  0  -0.316204  -0.387213  0  3.220643  0
N  N47  1  0.52853428  0.26754331  0.73662881  1  0  -0.436129  0  2.944796  0  0  -0.394051  0  3.225806  0  0  -0.403658  0  3.23404  0  0  -0.316194  -0.387194  0  3.220613  0
O  O48  1  0.79932567  0.78638267  0.03356853  1  0  -0.564247  0  2.14513  0  0  -0.504852  0  2.387249  0  0  -0.521115  0  2.376855  0  0  -0.472042  -0.493168  0  2.393878  0
O  O49  1  0.20067954  0.21361812  0.96642842  1  0  -0.564196  0  2.145163  0  0  -0.504798  0  2.387287  0  0  -0.521061  0  2.376898  0  0  -0.47206  -0.493114  0  2.393915  0
O  O50  1  0.72995163  0.04273585  0.16080812  1  0  -0.550296  0  2.160469  0  0  -0.488995  0  2.398515  0  0  -0.506182  0  2.389281  0  0  -0.466799  -0.476634  0  2.40504  0
O  O51  1  0.27004936  0.95726494  0.83919052  1  0  -0.550268  0  2.160405  0  0  -0.488964  0  2.398458  0  0  -0.506148  0  2.389217  0  0  -0.466789  -0.476602  0  2.404983  0
