# generated using pymatgen
data_ZnH13C20(NO2)2
_symmetry_space_group_name_H-M   'P 1'
_cell_length_a   7.89928244
_cell_length_b   10.60091473
_cell_length_c   21.45911563
_cell_angle_alpha   90.00121211
_cell_angle_beta   90.00125567
_cell_angle_gamma   105.84425397
_symmetry_Int_Tables_number   1
_chemical_formula_structural   ZnH13C20(NO2)2
_chemical_formula_sum   'Zn4 H52 C80 N8 O16'
_cell_volume   1728.70630994
_cell_formula_units_Z   4
loop_
 _symmetry_equiv_pos_site_id
 _symmetry_equiv_pos_as_xyz
  1  'x, y, z'
loop_
 _atom_site_type_symbol
 _atom_site_label
 _atom_site_symmetry_multiplicity
 _atom_site_fract_x
 _atom_site_fract_y
 _atom_site_fract_z
 _atom_site_occupancy
 _atom_site_pbe_bader_charge
 _atom_site_pbe_bader_spin_density
 _atom_site_pbe_cm5_charge
 _atom_site_pbe_ddec_charge
 _atom_site_pbe_ddec_spin_density
 _atom_site_pbe_ddec_sum_bond_order
 _atom_site_pbe_magmom
Zn  Zn0  1  0.13311802  0.15642016  0.49384707  1  1.294139  0  0.703382  0.873566  0  2.329942  0
Zn  Zn1  1  0.86691185  0.34357298  0.99383667  1  1.294058  0  0.703376  0.873646  0  2.329957  0
Zn  Zn2  1  0.86691690  0.84359733  0.50616009  1  1.294207  0  0.703276  0.873439  0  2.3302  0
Zn  Zn3  1  0.13309296  0.65641893  0.00616070  1  1.294447  0  0.703286  0.873416  0  2.330155  0
H  H4  1  0.60681020  0.50513637  0.60722559  1  0.544851  0  0.327985  0.306314  0  0.921692  0
H  H5  1  0.39322611  0.99490903  0.10722795  1  0.54507  0  0.328041  0.306427  0  0.921122  0
H  H6  1  0.39325427  0.49490474  0.39275687  1  0.544819  0  0.328054  0.306269  0  0.92152  0
H  H7  1  0.60674192  0.00506951  0.89275218  1  0.544944  0  0.327981  0.306225  0  0.921397  0
H  H8  1  0.89601209  0.48644689  0.60964244  1  0.067517  0  0.10363  0.101698  0  1.023306  0
H  H9  1  0.10402834  0.01357096  0.10963452  1  0.067152  0  0.103648  0.101663  0  1.023398  0
H  H10  1  0.10401942  0.51356754  0.39034188  1  0.066832  0  0.103572  0.101588  0  1.023507  0
H  H11  1  0.89596795  0.98643115  0.89033909  1  0.067565  0  0.103603  0.101599  0  1.023547  0
H  H12  1  0.21086174  0.57520804  0.58649736  1  0.063685  0  0.098888  0.092566  0  1.045168  0
H  H13  1  0.78918293  0.92480918  0.08649827  1  0.064057  0  0.098817  0.092472  0  1.04504  0
H  H14  1  0.78916724  0.42481978  0.41348557  1  0.063565  0  0.098817  0.092455  0  1.045268  0
H  H15  1  0.21082382  0.07518957  0.91348093  1  0.063458  0  0.098777  0.092462  0  1.045162  0
H  H16  1  0.51453489  0.25914802  0.44897146  1  0.125751  0  0.123545  0.124496  0  1.007986  0
H  H17  1  0.48548235  0.24084692  0.94896021  1  0.125543  0  0.123477  0.124363  0  1.0082  0
H  H18  1  0.48546558  0.74086877  0.55101752  1  0.12581  0  0.123519  0.124464  0  1.008042  0
H  H19  1  0.51454923  0.75915882  0.05102598  1  0.125739  0  0.123474  0.124377  0  1.008104  0
H  H20  1  0.28006940  0.36689623  0.60940057  1  0.157764  0  0.143785  0.109586  0  0.976359  0
H  H21  1  0.71996736  0.13313107  0.10939268  1  0.15751  0  0.143749  0.109581  0  0.976467  0
H  H22  1  0.71999322  0.63314286  0.39059773  1  0.157076  0  0.143746  0.109582  0  0.976592  0
H  H23  1  0.27999542  0.86684239  0.89059724  1  0.156931  0  0.143718  0.109521  0  0.976591  0
H  H24  1  0.65892960  0.31085541  0.73081279  1  0.070473  0  0.103722  0.107928  0  1.002873  0
H  H25  1  0.34106910  0.18916567  0.23081898  1  0.070616  0  0.10367  0.107883  0  1.002914  0
H  H26  1  0.34106789  0.68917764  0.26918971  1  0.0709  0  0.103609  0.107807  0  1.002896  0
H  H27  1  0.65889659  0.81080022  0.76919051  1  0.071146  0  0.103713  0.108013  0  1.002875  0
H  H28  1  0.87272111  0.26676212  0.65581462  1  0.074141  0  0.102935  0.101995  0  1.021676  0
H  H29  1  0.12727955  0.23326114  0.15581470  1  0.07427  0  0.10291  0.101956  0  1.021738  0
H  H30  1  0.12728625  0.73328782  0.34419161  1  0.073955  0  0.102911  0.101964  0  1.021859  0
H  H31  1  0.87270697  0.76669320  0.84418220  1  0.073916  0  0.102914  0.101931  0  1.0218  0
H  H32  1  0.45717024  0.98399009  0.56238440  1  0.097627  0  0.104794  0.110317  0  1.017912  0
H  H33  1  0.54286037  0.51597445  0.06238092  1  0.097151  0  0.10475  0.110189  0  1.018038  0
H  H34  1  0.54286780  0.01602947  0.43762183  1  0.097107  0  0.104763  0.110339  0  1.017764  0
H  H35  1  0.45714095  0.48398737  0.93763090  1  0.096773  0  0.104784  0.110283  0  1.017919  0
H  H36  1  0.24207556  0.02515491  0.63642568  1  0.061268  0  0.102017  0.106584  0  1.031957  0
H  H37  1  0.75794480  0.47481283  0.13642711  1  0.061209  0  0.102038  0.106578  0  1.031906  0
H  H38  1  0.75795776  0.97484802  0.36357822  1  0.061158  0  0.102059  0.106751  0  1.031881  0
H  H39  1  0.24202664  0.52516878  0.86359590  1  0.060745  0  0.102054  0.106755  0  1.031977  0
H  H40  1  0.49630345  0.26604726  0.80940938  1  0.084193  0  0.099801  0.109558  0  1.021805  0
H  H41  1  0.50370042  0.23397804  0.30941434  1  0.084082  0  0.099823  0.109469  0  1.021802  0
H  H42  1  0.50368700  0.73397001  0.19059918  1  0.083992  0  0.099821  0.109556  0  1.021681  0
H  H43  1  0.49626136  0.76603205  0.69061146  1  0.084393  0  0.099827  0.109673  0  1.0218  0
H  H44  1  0.27951319  0.30636284  0.88438097  1  0.07239  0  0.102006  0.099732  0  1.037284  0
H  H45  1  0.72046742  0.19366119  0.38439254  1  0.072169  0  0.101904  0.099538  0  1.037525  0
H  H46  1  0.72044244  0.69364792  0.11561408  1  0.072429  0  0.102019  0.099728  0  1.03731  0
H  H47  1  0.27950684  0.80634372  0.61563279  1  0.071367  0  0.102111  0.099862  0  1.037056  0
H  H48  1  0.86014469  0.14589282  0.75682443  1  0.06686  0  0.097245  0.098713  0  1.041723  0
H  H49  1  0.13985107  0.35408953  0.25683978  1  0.067141  0  0.097199  0.098748  0  1.041492  0
H  H50  1  0.13984993  0.85410341  0.24316502  1  0.067074  0  0.097214  0.098695  0  1.041586  0
H  H51  1  0.86010089  0.64585928  0.74316412  1  0.066606  0  0.097204  0.098632  0  1.041738  0
H  H52  1  0.07461758  0.11903659  0.67743491  1  0.05718  0  0.099064  0.104807  0  1.035513  0
H  H53  1  0.92539362  0.38094729  0.17745062  1  0.057639  0  0.098973  0.104655  0  1.035734  0
H  H54  1  0.92540440  0.88095324  0.32255967  1  0.057287  0  0.099009  0.104748  0  1.035592  0
H  H55  1  0.07454993  0.61901655  0.82256539  1  0.057127  0  0.099098  0.104853  0  1.035731  0
C  C56  1  0.81963394  0.45035964  0.51302109  1  0.016714  0  -0.010333  0.044855  0  4.057351  0
C  C57  1  0.18037805  0.04966115  0.01301771  1  0.015585  0  -0.010351  0.044798  0  4.057468  0
C  C58  1  0.18039027  0.54967374  0.48696231  1  0.015079  0  -0.010292  0.045079  0  4.057572  0
C  C59  1  0.81961758  0.95033417  0.98695776  1  0.018862  0  -0.01033  0.045039  0  4.057759  0
C  C60  1  0.94079074  0.49311488  0.56149853  1  -0.02574  0  -0.089721  -0.113981  0  3.984132  0
C  C61  1  0.05922905  0.00690413  0.06149347  1  -0.025175  0  -0.089678  -0.113849  0  3.984014  0
C  C62  1  0.05923493  0.50691470  0.43848486  1  -0.028547  0  -0.089715  -0.114115  0  3.984387  0
C  C63  1  0.94076720  0.99308446  0.93848107  1  -0.029328  0  -0.089763  -0.114183  0  3.984499  0
C  C64  1  0.11824065  0.54245456  0.54846364  1  0.006131  0  -0.090838  -0.120933  0  3.995341  0
C  C65  1  0.88178015  0.95756347  0.04845943  1  0.002646  0  -0.090715  -0.120685  0  3.994891  0
C  C66  1  0.88178339  0.45758266  0.45152022  1  0.009817  0  -0.090728  -0.120512  0  3.994922  0
C  C67  1  0.11821694  0.04242806  0.95151698  1  0.009548  0  -0.090711  -0.12054  0  3.994784  0
C  C68  1  0.63345133  0.39855045  0.52513812  1  0.336554  0  0.08839  0.114869  0  4.022449  0
C  C69  1  0.36656191  0.10146745  0.02513467  1  0.337987  0  0.088304  0.114694  0  4.02271  0
C  C70  1  0.36657681  0.60147443  0.47484714  1  0.338073  0  0.088496  0.114824  0  4.022366  0
C  C71  1  0.63342886  0.89852860  0.97484593  1  0.337672  0  0.088432  0.114662  0  4.022661  0
C  C72  1  0.50472574  0.30976786  0.49206795  1  0.376986  0  0.005926  -0.077095  0  3.94101  0
C  C73  1  0.49528589  0.19023294  0.99205787  1  0.377072  0  0.005983  -0.076891  0  3.940974  0
C  C74  1  0.49529844  0.69025200  0.50792291  1  0.37644  0  0.005936  -0.077155  0  3.940999  0
C  C75  1  0.50471700  0.80976562  0.00792832  1  0.376428  0  0.006085  -0.076814  0  3.94101  0
C  C76  1  0.37772335  0.36220199  0.57474109  1  0.990701  0  0.156643  0.168615  0  3.924672  0
C  C77  1  0.62230590  0.13782042  0.07473337  1  0.990941  0  0.156572  0.168283  0  3.924985  0
C  C78  1  0.62232474  0.63783061  0.42525256  1  0.990843  0  0.156495  0.168078  0  3.925066  0
C  C79  1  0.37766626  0.86215929  0.92525422  1  0.990981  0  0.156567  0.168244  0  3.924651  0
C  C80  1  0.43299057  0.16891445  0.69100275  1  -0.028994  0  -0.004797  0.069487  0  3.98659  0
C  C81  1  0.56701847  0.33108097  0.19100692  1  -0.029041  0  -0.004754  0.069518  0  3.986605  0
C  C82  1  0.56702377  0.83110204  0.30899976  1  -0.028819  0  -0.004735  0.06959  0  3.986409  0
C  C83  1  0.43294531  0.66889158  0.80901235  1  -0.028829  0  -0.0047  0.069472  0  3.986613  0
C  C84  1  0.61302042  0.23715012  0.69467856  1  -0.076056  0  -0.091962  -0.13987  0  3.971527  0
C  C85  1  0.38698356  0.26285788  0.19468183  1  -0.076181  0  -0.091911  -0.139811  0  3.971455  0
C  C86  1  0.38698769  0.76287572  0.30532580  1  -0.076222  0  -0.091849  -0.139676  0  3.971379  0
C  C87  1  0.61298325  0.73711192  0.80533046  1  -0.07666  0  -0.092079  -0.140221  0  3.971933  0
C  C88  1  0.73430585  0.21318830  0.65245822  1  -0.036298  0  -0.08554  -0.087886  0  3.991094  0
C  C89  1  0.26570006  0.28681855  0.15245880  1  -0.03635  0  -0.085604  -0.087932  0  3.990946  0
C  C90  1  0.26570853  0.78684171  0.34754708  1  -0.035772  0  -0.085587  -0.087959  0  3.991243  0
C  C91  1  0.73428107  0.71314808  0.84754556  1  -0.035534  0  -0.085547  -0.087708  0  3.991122  0
C  C92  1  0.68076439  0.11878198  0.60540173  1  -0.031103  0  -0.022541  -0.050212  0  3.972341  0
C  C93  1  0.31925345  0.38120646  0.10539771  1  -0.030379  0  -0.022523  -0.050238  0  3.972039  0
C  C94  1  0.31926907  0.88123929  0.39460543  1  -0.031055  0  -0.022414  -0.050009  0  3.971794  0
C  C95  1  0.68073769  0.61875969  0.89460712  1  -0.031157  0  -0.022476  -0.050163  0  3.971921  0
C  C96  1  0.50131949  0.05376724  0.60013500  1  -0.00122  0  -0.080429  -0.073663  0  3.95392  0
C  C97  1  0.49870159  0.44620263  0.10013046  1  -0.000941  0  -0.080456  -0.073668  0  3.953776  0
C  C98  1  0.49871817  0.94624652  0.39987403  1  -0.001451  0  -0.080475  -0.073894  0  3.953592  0
C  C99  1  0.50128754  0.55376535  0.89988323  1  -0.001177  0  -0.080474  -0.073747  0  3.953783  0
C  C100  1  0.37998616  0.07892544  0.64181851  1  -0.008442  0  -0.088128  -0.125975  0  3.954586  0
C  C101  1  0.62002974  0.42105214  0.14181851  1  -0.008526  0  -0.088032  -0.125795  0  3.954452  0
C  C102  1  0.62003965  0.92108678  0.35818539  1  -0.008012  0  -0.088127  -0.126054  0  3.954486  0
C  C103  1  0.37994545  0.57892482  0.85820263  1  -0.007684  0  -0.088081  -0.125956  0  3.954685  0
C  C104  1  0.81056353  0.08517655  0.56251735  1  1.537065  0  0.22275  0.59908  0  4.153273  0
C  C105  1  0.18945823  0.41482237  0.06251248  1  1.53689  0  0.22269  0.599051  0  4.152804  0
C  C106  1  0.18947671  0.91483733  0.43749401  1  1.536361  0  0.222758  0.598929  0  4.152623  0
C  C107  1  0.81054480  0.58515882  0.93749048  1  1.536124  0  0.222625  0.598779  0  4.153234  0
C  C108  1  0.30359887  0.19055445  0.73679915  1  0.009445  0  -0.006877  0.068614  0  3.988859  0
C  C109  1  0.69640676  0.30945390  0.23680935  1  0.009901  0  -0.007105  0.068279  0  3.989086  0
C  C110  1  0.69640525  0.80945286  0.26320102  1  0.009736  0  -0.006919  0.068391  0  3.988897  0
C  C111  1  0.30354858  0.69052017  0.76321318  1  0.009589  0  -0.006685  0.069037  0  3.988205  0
C  C112  1  0.35794251  0.24338560  0.79611138  1  -0.084293  0  -0.093296  -0.136139  0  3.958544  0
C  C113  1  0.64206292  0.25663492  0.29612177  1  -0.083881  0  -0.093238  -0.135684  0  3.958278  0
C  C114  1  0.64205069  0.75662794  0.20388833  1  -0.084567  0  -0.093334  -0.135919  0  3.95824  0
C  C115  1  0.35790324  0.74336380  0.70390496  1  -0.084483  0  -0.093367  -0.136445  0  3.958567  0
C  C116  1  0.23640406  0.26416084  0.83899576  1  -0.046437  0  -0.087625  -0.092207  0  4.010273  0
C  C117  1  0.76359387  0.23584999  0.33900840  1  -0.046677  0  -0.087435  -0.092058  0  4.010157  0
C  C118  1  0.76357545  0.73584914  0.16099835  1  -0.045797  0  -0.08764  -0.092338  0  4.010201  0
C  C119  1  0.23638111  0.76415301  0.66101694  1  -0.045107  0  -0.087778  -0.092133  0  4.010049  0
C  C120  1  0.05577393  0.22939714  0.82555962  1  0.007478  0  -0.023874  -0.042344  0  3.967756  0
C  C121  1  0.94422394  0.27059435  0.32557530  1  0.007881  0  -0.02387  -0.042351  0  3.967879  0
C  C122  1  0.94420877  0.77060624  0.17443123  1  0.00667  0  -0.023823  -0.04239  0  3.967714  0
C  C123  1  0.05574878  0.72938732  0.67444258  1  0.007162  0  -0.02371  -0.042267  0  3.967541  0
C  C124  1  0.00031228  0.17390611  0.76735414  1  -0.062402  0  -0.09017  -0.094043  0  3.989885  0
C  C125  1  0.99968811  0.32608112  0.26737105  1  -0.062058  0  -0.08996  -0.093919  0  3.989664  0
C  C126  1  0.99968217  0.82609398  0.23263672  1  -0.062136  0  -0.090126  -0.093926  0  3.989882  0
C  C127  1  0.00027244  0.67388451  0.73264263  1  -0.060433  0  -0.090033  -0.093758  0  3.989761  0
C  C128  1  0.12190255  0.15715317  0.72328146  1  -0.027607  0  -0.094171  -0.135931  0  3.959196  0
C  C129  1  0.87810155  0.34283961  0.22329611  1  -0.029678  0  -0.094113  -0.13585  0  3.959217  0
C  C130  1  0.87810264  0.84284454  0.27671405  1  -0.028266  0  -0.0941  -0.135823  0  3.95925  0
C  C131  1  0.12184972  0.65712461  0.77672131  1  -0.028864  0  -0.094462  -0.136452  0  3.959539  0
C  C132  1  0.92505596  0.24812832  0.87327107  1  1.55422  0  0.20164  0.574449  0  4.227805  0
C  C133  1  0.07494736  0.25186218  0.37328670  1  1.553574  0  0.201554  0.574345  0  4.22801  0
C  C134  1  0.07492400  0.75187878  0.12671745  1  1.553964  0  0.201405  0.57413  0  4.227802  0
C  C135  1  0.92504539  0.74811852  0.62672419  1  1.554567  0  0.201468  0.574195  0  4.228442  0
N  N136  1  0.54921986  0.43019614  0.57717497  1  -1.285021  0  -0.363868  -0.243465  0  3.631045  0
N  N137  1  0.45080899  0.06983318  0.07717154  1  -1.285734  0  -0.363916  -0.243292  0  3.630503  0
N  N138  1  0.45082824  0.56983646  0.42281262  1  -1.284697  0  -0.363915  -0.243026  0  3.630537  0
N  N139  1  0.54916401  0.93014946  0.92281046  1  -1.284716  0  -0.36386  -0.243  0  3.630259  0
N  N140  1  0.34748315  0.28839806  0.52336351  1  -1.229459  0  -0.363023  -0.301183  0  3.638427  0
N  N141  1  0.65253560  0.21160839  0.02335182  1  -1.229398  0  -0.3628  -0.301008  0  3.638307  0
N  N142  1  0.65255142  0.71162713  0.47663340  1  -1.229476  0  -0.362872  -0.300812  0  3.638342  0
N  N143  1  0.34745708  0.78838100  0.97663950  1  -1.229424  0  -0.362903  -0.300973  0  3.638326  0
O  O144  1  0.97107623  0.15446416  0.56526248  1  -1.176494  0  -0.314386  -0.546102  0  2.338496  0
O  O145  1  0.02894448  0.34553492  0.06525313  1  -1.176567  0  -0.314325  -0.546048  0  2.338528  0
O  O146  1  0.02896300  0.84555064  0.43474654  1  -1.176209  0  -0.314354  -0.546089  0  2.338208  0
O  O147  1  0.97106174  0.65443968  0.93474052  1  -1.17639  0  -0.314241  -0.545879  0  2.338491  0
O  O148  1  0.75481993  0.98802737  0.52568791  1  -1.184878  0  -0.314837  -0.556497  0  2.372274  0
O  O149  1  0.24520349  0.51197846  0.02568948  1  -1.184894  0  -0.314837  -0.556508  0  2.371772  0
O  O150  1  0.24522166  0.01197789  0.47432904  1  -1.184775  0  -0.31492  -0.556373  0  2.371804  0
O  O151  1  0.75480886  0.48801767  0.97432280  1  -1.184453  0  -0.314897  -0.556417  0  2.372073  0
O  O152  1  0.99580498  0.32680206  0.91842117  1  -1.166841  0  -0.335564  -0.567351  0  2.354961  0
O  O153  1  0.00420046  0.17319870  0.41843716  1  -1.166164  0  -0.335578  -0.56729  0  2.354743  0
O  O154  1  0.00417196  0.67320780  0.08156782  1  -1.166675  0  -0.335438  -0.567035  0  2.354832  0
O  O155  1  0.99579886  0.82680065  0.58158165  1  -1.167418  0  -0.335479  -0.567236  0  2.35499  0
O  O156  1  0.76443421  0.18947808  0.86837677  1  -1.201416  0  -0.336234  -0.583175  0  2.128776  0
O  O157  1  0.23557186  0.31050544  0.36839216  1  -1.201339  0  -0.336187  -0.583192  0  2.129095  0
O  O158  1  0.23554658  0.81053197  0.13160849  1  -1.201152  0  -0.336089  -0.583136  0  2.128769  0
O  O159  1  0.76442230  0.68945796  0.63160708  1  -1.201593  0  -0.336194  -0.583148  0  2.129193  0
