# generated using pymatgen
data_FeH8C10(SN3)2
_symmetry_space_group_name_H-M   'P 1'
_cell_length_a   8.23822277
_cell_length_b   9.40024987
_cell_length_c   9.39925283
_cell_angle_alpha   122.31661115
_cell_angle_beta   90.81480747
_cell_angle_gamma   89.06700036
_symmetry_Int_Tables_number   1
_chemical_formula_structural   FeH8C10(SN3)2
_chemical_formula_sum   'Fe2 H16 C20 S4 N12'
_cell_volume   615.05090649
_cell_formula_units_Z   2
loop_
 _symmetry_equiv_pos_site_id
 _symmetry_equiv_pos_as_xyz
  1  'x, y, z'
loop_
 _atom_site_type_symbol
 _atom_site_label
 _atom_site_symmetry_multiplicity
 _atom_site_fract_x
 _atom_site_fract_y
 _atom_site_fract_z
 _atom_site_occupancy
 _atom_site_hle17_bader_spin_density
 _atom_site_hle17_ddec_charge
 _atom_site_hle17_ddec_spin_density
 _atom_site_hle17_ddec_sum_bond_order
 _atom_site_hle17_magmom
 _atom_site_hse06_10hf_bader_spin_density
 _atom_site_hse06_10hf_ddec_charge
 _atom_site_hse06_10hf_ddec_spin_density
 _atom_site_hse06_10hf_ddec_sum_bond_order
 _atom_site_hse06_10hf_magmom
 _atom_site_hse06_bader_spin_density
 _atom_site_hse06_ddec_charge
 _atom_site_hse06_ddec_spin_density
 _atom_site_hse06_ddec_sum_bond_order
 _atom_site_hse06_magmom
 _atom_site_pbe_bader_spin_density
 _atom_site_pbe_cm5_charge
 _atom_site_pbe_ddec_charge
 _atom_site_pbe_ddec_spin_density
 _atom_site_pbe_ddec_sum_bond_order
 _atom_site_pbe_magmom
Fe  Fe0  1  0.99035493  0.49367912  0.50474223  1  0  0.542265  0  3.011652  0  0  0.49531  0  3.504295  0  0  0.545818  0  3.446411  0  0  0.725511  0.471007  0  3.534224  0
Fe  Fe1  1  0.48942465  0.00501261  0.99366178  1  0  0.543708  0  3.01887  0  0  0.496671  0  3.511414  0  0  0.546636  0  3.454053  0  0  0.728951  0.472677  0  3.540902  0
H  H2  1  0.75263588  0.29631288  0.21303292  1  0  0.086721  0  0.942294  0  0  0.093089  0  1.004975  0  0  0.093341  0  1.003182  0  0  0.138945  0.09258  0  1.006962  0
H  H3  1  0.25550589  0.20256000  0.28642967  1  0  0.087426  0  0.942045  0  0  0.093127  0  1.005196  0  0  0.093484  0  1.003234  0  0  0.139073  0.092584  0  1.007236  0
H  H4  1  0.25661498  0.71290962  0.79627719  1  0  0.087631  0  0.942287  0  0  0.093059  0  1.005687  0  0  0.093405  0  1.003731  0  0  0.138965  0.09254  0  1.007712  0
H  H5  1  0.75194832  0.78630163  0.70246958  1  0  0.087808  0  0.941231  0  0  0.093553  0  1.004432  0  0  0.093884  0  1.002514  0  0  0.139137  0.093038  0  1.006403  0
H  H6  1  0.76023322  0.99543045  0.50298075  1  0  0.118706  0  0.950447  0  0  0.124359  0  1.014268  0  0  0.126074  0  1.015931  0  0  0.108818  0.123098  0  1.013471  0
H  H7  1  0.24460421  0.50750043  0.00064552  1  0  0.119455  0  0.950295  0  0  0.124546  0  1.014693  0  0  0.126313  0  1.016323  0  0  0.108714  0.12324  0  1.013934  0
H  H8  1  0.24508210  0.00034129  0.49291953  1  0  0.119565  0  0.94956  0  0  0.124873  0  1.013653  0  0  0.126648  0  1.015257  0  0  0.108783  0.123565  0  1.012905  0
H  H9  1  0.75982699  0.49838282  0.00536053  1  0  0.119519  0  0.950154  0  0  0.124512  0  1.014558  0  0  0.126234  0  1.016232  0  0  0.108712  0.123246  0  1.013753  0
H  H10  1  0.96650924  0.21479831  0.56742105  1  0  0.080239  0  0.982345  0  0  0.086301  0  1.050808  0  0  0.087813  0  1.04705  0  0  0.115722  0.085039  0  1.054149  0
H  H11  1  0.45551780  0.28490689  0.93289172  1  0  0.079786  0  0.987542  0  0  0.085057  0  1.057105  0  0  0.086734  0  1.053103  0  0  0.114768  0.083693  0  1.060497  0
H  H12  1  0.54298685  0.94230355  0.28695302  1  0  0.078353  0  0.980014  0  0  0.083149  0  1.051483  0  0  0.084928  0  1.047356  0  0  0.112513  0.081649  0  1.055141  0
H  H13  1  0.03207994  0.55876106  0.21465219  1  0  0.079159  0  0.974418  0  0  0.08466  0  1.044871  0  0  0.08634  0  1.040789  0  0  0.113958  0.083206  0  1.048609  0
H  H14  1  0.03269544  0.78669047  0.44182225  1  0  0.078374  0  0.975371  0  0  0.084145  0  1.04556  0  0  0.085861  0  1.041498  0  0  0.113671  0.082652  0  1.049306  0
H  H15  1  0.54252782  0.71466780  0.05843247  1  0  0.078307  0  0.979883  0  0  0.08346  0  1.0511  0  0  0.085235  0  1.046946  0  0  0.112739  0.081935  0  1.054833  0
H  H16  1  0.45568917  0.06720714  0.71492596  1  0  0.079701  0  0.987485  0  0  0.084495  0  1.057814  0  0  0.086048  0  1.054076  0  0  0.114599  0.083212  0  1.061048  0
H  H17  1  0.96633257  0.43268028  0.78503259  1  0  0.080583  0  0.981879  0  0  0.086428  0  1.050583  0  0  0.087961  0  1.046795  0  0  0.115863  0.085148  0  1.05395  0
C  C18  1  0.75251715  0.23156777  0.28000827  1  0  0.306188  0  3.573343  0  0  0.251843  0  3.844086  0  0  0.272429  0  3.854588  0  0  0.193507  0.236979  0  3.838527  0
C  C19  1  0.25078402  0.26800045  0.22015750  1  0  0.305855  0  3.570592  0  0  0.252696  0  3.840922  0  0  0.273376  0  3.851139  0  0  0.193624  0.237761  0  3.835566  0
C  C20  1  0.25161601  0.77966425  0.73131371  1  0  0.303965  0  3.574121  0  0  0.250851  0  3.844192  0  0  0.271581  0  3.854485  0  0  0.19295  0.235866  0  3.838774  0
C  C21  1  0.75194084  0.71983417  0.76772584  1  0  0.304918  0  3.571752  0  0  0.251024  0  3.842292  0  0  0.271598  0  3.852746  0  0  0.19312  0.236185  0  3.836752  0
C  C22  1  0.75687384  0.06358277  0.43893367  1  0  -0.156716  0  3.744371  0  0  -0.163101  0  3.994532  0  0  -0.176403  0  4.013153  0  0  -0.080629  -0.154975  0  3.984245  0
C  C23  1  0.24524976  0.43736494  0.06265121  1  0  -0.158755  0  3.744874  0  0  -0.164896  0  3.995519  0  0  -0.178181  0  4.013913  0  0  -0.081803  -0.156816  0  3.985415  0
C  C24  1  0.24572501  0.93806593  0.56280483  1  0  -0.158068  0  3.74593  0  0  -0.164028  0  3.996022  0  0  -0.177315  0  4.014491  0  0  -0.081041  -0.155929  0  3.985837  0
C  C25  1  0.75651638  0.56198848  0.93676898  1  0  -0.158444  0  3.745329  0  0  -0.163808  0  3.995105  0  0  -0.177125  0  4.013705  0  0  -0.080861  -0.155664  0  3.984802  0
C  C26  1  0.86937281  0.18708406  0.47733901  1  0  0.15897  0  3.655925  0  0  0.119841  0  3.91303  0  0  0.137109  0  3.923955  0  0  0.057421  0.106866  0  3.90778  0
C  C27  1  0.36019247  0.31286105  0.02305247  1  0  0.161077  0  3.652681  0  0  0.122603  0  3.908543  0  0  0.139956  0  3.919243  0  0  0.058271  0.109608  0  3.903439  0
C  C28  1  0.63970229  0.03196276  0.31861865  1  0  0.163981  0  3.680306  0  0  0.12326  0  3.942172  0  0  0.141038  0  3.952372  0  0  0.05925  0.10959  0  3.937406  0
C  C29  1  0.13069862  0.46876296  0.18280411  1  0  0.164091  0  3.679189  0  0  0.123176  0  3.942129  0  0  0.14116  0  3.952057  0  0  0.059126  0.109414  0  3.937455  0
C  C30  1  0.13131994  0.81809284  0.53146266  1  0  0.162654  0  3.683614  0  0  0.121423  0  3.946179  0  0  0.139399  0  3.956203  0  0  0.058302  0.10766  0  3.941456  0
C  C31  1  0.63926619  0.68249366  0.96841140  1  0  0.165211  0  3.679622  0  0  0.123691  0  3.941298  0  0  0.141467  0  3.951539  0  0  0.059164  0.110052  0  3.936512  0
C  C32  1  0.36056398  0.97713460  0.68696957  1  0  0.160334  0  3.653063  0  0  0.121607  0  3.909526  0  0  0.13889  0  3.9203  0  0  0.057765  0.108657  0  3.904383  0
C  C33  1  0.86905045  0.52288468  0.81277552  1  0  0.159898  0  3.655432  0  0  0.120697  0  3.912401  0  0  0.137997  0  3.923259  0  0  0.057762  0.1077  0  3.907195  0
C  C34  1  0.71227556  0.61888865  0.38023605  1  0  0.260026  0  4.037242  0  0  0.250418  0  4.346665  0  0  0.276288  0  4.35683  0  0  0.134973  0.233038  0  4.338436  0
C  C35  1  0.21813258  0.88208744  0.11716795  1  0  0.260831  0  4.035967  0  0  0.251215  0  4.345303  0  0  0.277104  0  4.355474  0  0  0.135515  0.233746  0  4.337136  0
C  C36  1  0.77763098  0.11889790  0.88099125  1  0  0.261157  0  4.035749  0  0  0.25195  0  4.343484  0  0  0.277517  0  4.353423  0  0  0.134349  0.234834  0  4.335597  0
C  C37  1  0.28431462  0.37941357  0.62066604  1  0  0.259529  0  4.035608  0  0  0.250335  0  4.34351  0  0  0.2758  0  4.353629  0  0  0.133071  0.23334  0  4.33547  0
S  S38  1  0.54151500  0.66805298  0.33126272  1  0  -0.328248  0  2.072822  0  0  -0.314499  0  2.369379  0  0  -0.331597  0  2.366616  0  0  -0.15945  -0.299898  0  2.370573  0
S  S39  1  0.04859219  0.83491664  0.16418720  1  0  -0.329467  0  2.080865  0  0  -0.316671  0  2.380239  0  0  -0.334095  0  2.377946  0  0  -0.158683  -0.301727  0  2.381119  0
S  S40  1  0.95282679  0.16165038  0.83954037  1  0  -0.3422  0  2.088645  0  0  -0.327336  0  2.390002  0  0  -0.343877  0  2.387276  0  0  -0.16532  -0.313367  0  2.391494  0
S  S41  1  0.46081748  0.33619081  0.66520810  1  0  -0.337939  0  2.082041  0  0  -0.322228  0  2.380529  0  0  -0.338455  0  2.377517  0  0  -0.163953  -0.308535  0  2.382176  0
N  N42  1  0.86160951  0.28087841  0.40683597  1  0  -0.256639  0  3.276843  0  0  -0.202629  0  3.558666  0  0  -0.233136  0  3.575467  0  0  -0.31552  -0.183372  0  3.546963  0
N  N43  1  0.35707274  0.21854196  0.09290434  1  0  -0.257771  0  3.278088  0  0  -0.203845  0  3.559313  0  0  -0.234232  0  3.576031  0  0  -0.316414  -0.184692  0  3.547704  0
N  N44  1  0.64441834  0.10930616  0.23245876  1  0  -0.276855  0  3.180736  0  0  -0.222017  0  3.453198  0  0  -0.250482  0  3.468857  0  0  -0.286349  -0.202671  0  3.442779  0
N  N45  1  0.14024153  0.39106272  0.26876871  1  0  -0.274648  0  3.187544  0  0  -0.220916  0  3.46189  0  0  -0.249347  0  3.477222  0  0  -0.287761  -0.201743  0  3.451705  0
N  N46  1  0.14112450  0.73184133  0.60878725  1  0  -0.274136  0  3.18093  0  0  -0.220033  0  3.45393  0  0  -0.248543  0  3.469441  0  0  -0.285361  -0.200655  0  3.443566  0
N  N47  1  0.64382281  0.76823220  0.89057861  1  0  -0.275534  0  3.187459  0  0  -0.220186  0  3.46004  0  0  -0.248775  0  3.475817  0  0  -0.287115  -0.20091  0  3.449612  0
N  N48  1  0.35766122  0.90688297  0.78096869  1  0  -0.256601  0  3.280334  0  0  -0.202135  0  3.561048  0  0  -0.232603  0  3.577871  0  0  -0.316564  -0.182939  0  3.54935  0
N  N49  1  0.86114150  0.59286803  0.71854635  1  0  -0.256844  0  3.274227  0  0  -0.202873  0  3.555818  0  0  -0.233261  0  3.572519  0  0  -0.314825  -0.183674  0  3.544197  0
N  N50  1  0.83697843  0.58108800  0.41800294  1  0  -0.503992  0  3.253663  0  0  -0.476726  0  3.572049  0  0  -0.499875  0  3.572376  0  0  -0.438764  -0.461916  0  3.56954  0
N  N51  1  0.34186459  0.91859571  0.08086085  1  0  -0.502851  0  3.253302  0  0  -0.475551  0  3.571546  0  0  -0.498834  0  3.572186  0  0  -0.438894  -0.460638  0  3.568812  0
N  N52  1  0.65017382  0.08559844  0.91353038  1  0  -0.499608  0  3.265396  0  0  -0.47142  0  3.582524  0  0  -0.494103  0  3.582854  0  0  -0.439104  -0.457078  0  3.580139  0
N  N53  1  0.15582992  0.41320311  0.58605154  1  0  -0.500673  0  3.263803  0  0  -0.47253  0  3.581348  0  0  -0.495228  0  3.581688  0  0  -0.439198  -0.458208  0  3.579007  0
