# generated using pymatgen
data_H16PbC27(NO)4
_symmetry_space_group_name_H-M   'P 1'
_cell_length_a   9.37154794
_cell_length_b   10.67699114
_cell_length_c   13.08130194
_cell_angle_alpha   92.16715137
_cell_angle_beta   107.83646717
_cell_angle_gamma   104.60687097
_symmetry_Int_Tables_number   1
_chemical_formula_structural   H16PbC27(NO)4
_chemical_formula_sum   'H32 Pb2 C54 N8 O8'
_cell_volume   1196.28607960
_cell_formula_units_Z   2
loop_
 _symmetry_equiv_pos_site_id
 _symmetry_equiv_pos_as_xyz
  1  'x, y, z'
loop_
 _atom_site_type_symbol
 _atom_site_label
 _atom_site_symmetry_multiplicity
 _atom_site_fract_x
 _atom_site_fract_y
 _atom_site_fract_z
 _atom_site_occupancy
 _atom_site_hle17_bader_spin_density
 _atom_site_hle17_ddec_charge
 _atom_site_hle17_ddec_spin_density
 _atom_site_hle17_ddec_sum_bond_order
 _atom_site_hle17_magmom
 _atom_site_hse06_10hf_bader_spin_density
 _atom_site_hse06_10hf_ddec_charge
 _atom_site_hse06_10hf_ddec_spin_density
 _atom_site_hse06_10hf_ddec_sum_bond_order
 _atom_site_hse06_10hf_magmom
 _atom_site_hse06_bader_spin_density
 _atom_site_hse06_ddec_charge
 _atom_site_hse06_ddec_spin_density
 _atom_site_hse06_ddec_sum_bond_order
 _atom_site_hse06_magmom
 _atom_site_pbe_bader_spin_density
 _atom_site_pbe_cm5_charge
 _atom_site_pbe_ddec_charge
 _atom_site_pbe_ddec_spin_density
 _atom_site_pbe_ddec_sum_bond_order
 _atom_site_pbe_magmom
H  H0  1  0.49968492  0.87007822  0.15413544  1  0  0.086286  0  0.95612  0  0  0.094345  0  1.022478  0  0  0.097117  0  1.019761  0  0  0.119852  0.093393  0  1.022177  0
H  H1  1  0.50027935  0.12994180  0.84580484  1  0  0.086238  0  0.955835  0  0  0.094341  0  1.022144  0  0  0.097122  0  1.019412  0  0  0.119797  0.093386  0  1.021842  0
H  H2  1  0.33138519  0.66801705  0.19396171  1  0  0.09918  0  0.944352  0  0  0.114167  0  0.99525  0  0  0.116642  0  0.995181  0  0  0.109833  0.111492  0  0.997174  0
H  H3  1  0.66860960  0.33198497  0.80603621  1  0  0.099227  0  0.944374  0  0  0.114212  0  0.995272  0  0  0.116688  0  0.995204  0  0  0.109875  0.111538  0  0.997193  0
H  H4  1  0.11722395  0.68930138  0.26680999  1  0  0.103262  0  0.941664  0  0  0.116673  0  0.998674  0  0  0.119134  0  0.996859  0  0  0.112602  0.114367  0  1.001703  0
H  H5  1  0.88280200  0.31071030  0.73318272  1  0  0.103252  0  0.941812  0  0  0.116642  0  0.998786  0  0  0.119161  0  0.996902  0  0  0.112698  0.114323  0  1.001832  0
H  H6  1  0.42057748  0.43394065  0.21820814  1  0  0.077083  0  0.939493  0  0  0.087124  0  1.000875  0  0  0.089902  0  0.998244  0  0  0.115991  0.084919  0  1.003303  0
H  H7  1  0.57940791  0.56607887  0.78180082  1  0  0.077092  0  0.939403  0  0  0.087147  0  1.000762  0  0  0.089923  0  0.998134  0  0  0.115993  0.084944  0  1.003192  0
H  H8  1  0.21245549  0.48530204  0.28414133  1  0  0.098605  0  0.955084  0  0  0.111564  0  1.010832  0  0  0.113928  0  1.011223  0  0  0.106636  0.108923  0  1.012617  0
H  H9  1  0.78757431  0.51471145  0.71590886  1  0  0.098733  0  0.955088  0  0  0.111615  0  1.010876  0  0  0.11398  0  1.011268  0  0  0.106709  0.108973  0  1.012671  0
H  H10  1  0.02484517  0.30307433  0.32882404  1  0  0.096977  0  0.972832  0  0  0.107406  0  1.034323  0  0  0.109294  0  1.033733  0  0  0.107671  0.106761  0  1.033627  0
H  H11  1  0.97519989  0.69691834  0.67123226  1  0  0.096901  0  0.97264  0  0  0.107469  0  1.033993  0  0  0.109405  0  1.033338  0  0  0.107726  0.106771  0  1.033359  0
H  H12  1  0.71304656  0.64371797  0.33774594  1  0  0.103145  0  0.974742  0  0  0.110319  0  1.041352  0  0  0.113641  0  1.039096  0  0  0.102799  0.107881  0  1.0433  0
H  H13  1  0.28696062  0.35626124  0.66226120  1  0  0.10317  0  0.974563  0  0  0.110295  0  1.041229  0  0  0.113592  0  1.039002  0  0  0.102832  0.107857  0  1.043177  0
H  H14  1  0.51426071  0.53583961  0.41835048  1  0  0.080303  0  0.982134  0  0  0.091154  0  1.045916  0  0  0.09323  0  1.046042  0  0  0.096542  0.089853  0  1.045437  0
H  H15  1  0.48572278  0.46416554  0.58164213  1  0  0.080278  0  0.981927  0  0  0.091087  0  1.045775  0  0  0.093181  0  1.045884  0  0  0.096542  0.089787  0  1.045296  0
H  H16  1  0.40763935  0.66970291  0.52110817  1  0  0.087304  0  0.958077  0  0  0.097684  0  1.020559  0  0  0.099812  0  1.020319  0  0  0.097275  0.096143  0  1.021032  0
H  H17  1  0.59234793  0.33026790  0.47888445  1  0  0.087234  0  0.958224  0  0  0.097633  0  1.020661  0  0  0.099759  0  1.020422  0  0  0.097305  0.096093  0  1.021131  0
H  H18  1  0.50220685  0.91053144  0.54182886  1  0  0.087025  0  0.975286  0  0  0.096593  0  1.03993  0  0  0.099025  0  1.039336  0  0  0.098358  0.095313  0  1.039589  0
H  H19  1  0.49780488  0.08946176  0.45816230  1  0  0.086915  0  0.975114  0  0  0.096449  0  1.039834  0  0  0.098882  0  1.039239  0  0  0.098348  0.095172  0  1.039488  0
H  H20  1  0.70309210  0.01996041  0.46277102  1  0  0.091525  0  0.955714  0  0  0.102308  0  1.020983  0  0  0.105551  0  1.018706  0  0  0.101046  0.099893  0  1.023082  0
H  H21  1  0.29693572  0.98002626  0.53724772  1  0  0.09163  0  0.955427  0  0  0.102312  0  1.02083  0  0  0.105555  0  1.018544  0  0  0.100965  0.099863  0  1.022972  0
H  H22  1  0.80547258  0.84552974  0.06167949  1  0  0.087976  0  0.958433  0  0  0.098327  0  1.020688  0  0  0.101542  0  1.018856  0  0  0.101588  0.096238  0  1.021217  0
H  H23  1  0.19448693  0.15445653  0.93833625  1  0  0.087994  0  0.958361  0  0  0.098395  0  1.020576  0  0  0.101612  0  1.018739  0  0  0.101644  0.096305  0  1.021102  0
H  H24  1  0.00826373  0.23499840  0.00976428  1  0  0.104146  0  0.934996  0  0  0.115134  0  0.99186  0  0  0.118783  0  0.989853  0  0  0.104266  0.112581  0  0.993183  0
H  H25  1  0.99169630  0.76498022  0.99024128  1  0  0.104077  0  0.935034  0  0  0.11509  0  0.991878  0  0  0.118745  0  0.989869  0  0  0.104204  0.112538  0  0.993204  0
H  H26  1  0.91751654  0.58943452  0.32590316  1  0  0.100443  0  0.974955  0  0  0.103195  0  1.048437  0  0  0.10798  0  1.043678  0  0  0.102172  0.099834  0  1.051968  0
H  H27  1  0.08249983  0.41060326  0.67411241  1  0  0.100402  0  0.974909  0  0  0.10315  0  1.04838  0  0  0.107935  0  1.043631  0  0  0.102217  0.099793  0  1.051909  0
H  H28  1  0.87279642  0.27084994  0.51734927  1  0  0.096833  0  0.95806  0  0  0.102376  0  1.029129  0  0  0.106373  0  1.026364  0  0  0.09979  0.099693  0  1.03098  0
H  H29  1  0.12721095  0.72914864  0.48266951  1  0  0.096813  0  0.958114  0  0  0.102362  0  1.029153  0  0  0.106368  0  1.026377  0  0  0.099767  0.09965  0  1.031036  0
H  H30  1  0.84170665  0.09776143  0.34694149  1  0  0.321614  0  0.900438  0  0  0.300682  0  0.966548  0  0  0.30956  0  0.959061  0  0  0.312843  0.294649  0  0.97103  0
H  H31  1  0.15830117  0.90224937  0.65305347  1  0  0.321634  0  0.900489  0  0  0.300712  0  0.966563  0  0  0.309586  0  0.95908  0  0  0.312872  0.294681  0  0.971038  0
Pb  Pb32  1  0.52751156  0.18013959  0.11845328  1  0  1.163325  0  1.539971  0  0  0.965521  0  1.934641  0  0  1.024667  0  1.896635  0  0  0.602402  0.924739  0  1.958655  0
Pb  Pb33  1  0.47247450  0.81982431  0.88154259  1  0  1.16351  0  1.539635  0  0  0.965754  0  1.934264  0  0  1.0249  0  1.89626  0  0  0.602467  0.924982  0  1.958274  0
C  C34  1  0.40544999  0.87437843  0.18537402  1  0  0.134213  0  3.702818  0  0  0.098722  0  3.961466  0  0  0.106821  0  3.978728  0  0  0.055712  0.093056  0  3.94796  0
C  C35  1  0.59452586  0.12563242  0.81457977  1  0  0.134739  0  3.702591  0  0  0.099234  0  3.961228  0  0  0.107327  0  3.978498  0  0  0.056029  0.093562  0  3.947733  0
C  C36  1  0.31082213  0.76201524  0.20814288  1  0  -0.104894  0  3.749327  0  0  -0.117362  0  4.002423  0  0  -0.123023  0  4.022952  0  0  -0.076945  -0.113412  0  3.991483  0
C  C37  1  0.68921758  0.23799998  0.79186437  1  0  -0.10531  0  3.749262  0  0  -0.117811  0  4.002454  0  0  -0.123483  0  4.023006  0  0  -0.077171  -0.11386  0  3.991511  0
C  C38  1  0.19404900  0.77390218  0.24836995  1  0  -0.031831  0  3.676978  0  0  -0.056605  0  3.923444  0  0  -0.053731  0  3.940369  0  0  -0.060256  -0.060716  0  3.916113  0
C  C39  1  0.80591892  0.22609636  0.75156479  1  0  -0.031587  0  3.676956  0  0  -0.056327  0  3.923408  0  0  -0.053496  0  3.94032  0  0  -0.060223  -0.060432  0  3.916079  0
C  C40  1  0.17210260  0.89792496  0.26488122  1  0  -0.016487  0  3.772463  0  0  -0.004148  0  4.006539  0  0  -0.006945  0  4.029835  0  0  0.005252  -0.003865  0  3.992092  0
C  C41  1  0.82791469  0.10208083  0.73511551  1  0  -0.016718  0  3.772554  0  0  -0.004476  0  4.006564  0  0  -0.007287  0  4.029876  0  0  0.005087  -0.004187  0  3.992111  0
C  C42  1  0.27204490  0.00724579  0.23902082  1  0  0.130778  0  3.732529  0  0  0.120407  0  3.977527  0  0  0.125054  0  3.999683  0  0  0.121498  0.11759  0  3.96275  0
C  C43  1  0.72799066  0.99277601  0.76100268  1  0  0.130743  0  3.7329  0  0  0.120674  0  3.977376  0  0  0.125349  0  3.999473  0  0  0.121518  0.117842  0  3.962628  0
C  C44  1  0.25121794  0.13690974  0.25236172  1  0  0.133816  0  3.754549  0  0  0.124624  0  3.998767  0  0  0.129278  0  4.020789  0  0  0.122931  0.122343  0  3.983415  0
C  C45  1  0.74874037  0.86308970  0.74758097  1  0  0.133924  0  3.754877  0  0  0.124831  0  3.998703  0  0  0.129486  0  4.020703  0  0  0.122998  0.122552  0  3.983349  0
C  C46  1  0.33526130  0.35747171  0.23846250  1  0  0.116973  0  3.749388  0  0  0.083942  0  4.008908  0  0  0.091352  0  4.026299  0  0  0.048055  0.079334  0  3.996686  0
C  C47  1  0.66476762  0.64254296  0.76157762  1  0  0.117072  0  3.749121  0  0  0.084053  0  4.00859  0  0  0.091459  0  4.025981  0  0  0.048072  0.079442  0  3.99638  0
C  C48  1  0.21944911  0.38548063  0.27506217  1  0  -0.114175  0  3.744029  0  0  -0.124974  0  3.995984  0  0  -0.13111  0  4.015738  0  0  -0.081121  -0.120521  0  3.98305  0
C  C49  1  0.78050522  0.61452235  0.72490201  1  0  -0.114497  0  3.744333  0  0  -0.125242  0  3.996378  0  0  -0.131385  0  4.016163  0  0  -0.081147  -0.120791  0  3.983428  0
C  C50  1  0.11604349  0.28461169  0.30049656  1  0  -0.007012  0  3.662292  0  0  -0.036449  0  3.913393  0  0  -0.032071  0  3.929379  0  0  -0.059889  -0.039245  0  3.900991  0
C  C51  1  0.88398871  0.71539320  0.69954075  1  0  -0.006639  0  3.661924  0  0  -0.036162  0  3.912884  0  0  -0.031813  0  3.928845  0  0  -0.059909  -0.038916  0  3.900508  0
C  C52  1  0.12930550  0.15686024  0.28964131  1  0  -0.027497  0  3.781485  0  0  -0.013018  0  4.018043  0  0  -0.016062  0  4.040588  0  0  0.004873  -0.011259  0  4.00233  0
C  C53  1  0.87068897  0.84313801  0.71034872  1  0  -0.02753  0  3.781736  0  0  -0.013082  0  4.018216  0  0  -0.016124  0  4.040776  0  0  0.004904  -0.011322  0  4.002485  0
C  C54  1  0.02980842  0.04473520  0.31225897  1  0  0.115905  0  3.776988  0  0  0.09544  0  4.034816  0  0  0.098363  0  4.057661  0  0  0.096438  0.095098  0  4.018437  0
C  C55  1  0.97017892  0.95525521  0.68773379  1  0  0.115736  0  3.777052  0  0  0.095239  0  4.034904  0  0  0.098147  0  4.057761  0  0  0.096368  0.094904  0  4.018518  0
C  C56  1  0.05055460  0.91997720  0.30169332  1  0  0.094519  0  3.861938  0  0  0.0874  0  4.123182  0  0  0.088931  0  4.146985  0  0  0.086958  0.085537  0  4.108905  0
C  C57  1  0.94944905  0.08002485  0.69829960  1  0  0.094789  0  3.861436  0  0  0.087643  0  4.122725  0  0  0.08918  0  4.146527  0  0  0.086972  0.085777  0  4.108448  0
C  C58  1  0.85053256  0.89767904  0.35512027  1  0  0.343378  0  3.731602  0  0  0.31166  0  4.004077  0  0  0.326364  0  4.018075  0  0  0.222197  0.301252  0  3.994345  0
C  C59  1  0.14950486  0.10232210  0.64490651  1  0  0.343527  0  3.731717  0  0  0.311786  0  4.004101  0  0  0.326492  0  4.018091  0  0  0.222317  0.301381  0  3.994374  0
C  C60  1  0.72272987  0.83909112  0.39510184  1  0  -0.010981  0  3.808051  0  0  0.009447  0  4.041958  0  0  0.006584  0  4.065174  0  0  -0.00863  0.011163  0  4.0255  0
C  C61  1  0.27731131  0.16089546  0.60491589  1  0  -0.010938  0  3.807421  0  0  0.00961  0  4.04115  0  0  0.006747  0  4.064357  0  0  -0.00843  0.011316  0  4.024704  0
C  C62  1  0.66685287  0.70214474  0.38256257  1  0  -0.088587  0  3.718578  0  0  -0.108548  0  3.958562  0  0  -0.110529  0  3.980253  0  0  -0.084528  -0.106241  0  3.942775  0
C  C63  1  0.33313149  0.29784114  0.61741253  1  0  -0.088569  0  3.71834  0  0  -0.108499  0  3.95827  0  0  -0.110458  0  3.979979  0  0  -0.084501  -0.106187  0  3.942488  0
C  C64  1  0.55460230  0.64193949  0.42762400  1  0  -0.086874  0  3.805056  0  0  -0.096975  0  4.052759  0  0  -0.100321  0  4.076415  0  0  -0.097209  -0.094629  0  4.036265  0
C  C65  1  0.44536655  0.35805346  0.57234661  1  0  -0.08702  0  3.805068  0  0  -0.097098  0  4.052804  0  0  -0.100463  0  4.076448  0  0  -0.097361  -0.094752  0  4.036308  0
C  C66  1  0.49445875  0.71652775  0.48476244  1  0  -0.065964  0  3.76212  0  0  -0.083558  0  4.016365  0  0  -0.084786  0  4.038409  0  0  -0.0932  -0.081665  0  4.001703  0
C  C67  1  0.50554699  0.28347017  0.51524067  1  0  -0.065697  0  3.761914  0  0  -0.083294  0  4.016127  0  0  -0.084519  0  4.038173  0  0  -0.093139  -0.081405  0  4.001471  0
C  C68  1  0.54719060  0.85242637  0.49580068  1  0  -0.07468  0  3.779612  0  0  -0.088217  0  4.036363  0  0  -0.090831  0  4.058725  0  0  -0.096385  -0.086627  0  4.020558  0
C  C69  1  0.45279956  0.14756614  0.50418359  1  0  -0.074603  0  3.779351  0  0  -0.088129  0  4.036118  0  0  -0.090742  0  4.058477  0  0  -0.09643  -0.086539  0  4.020305  0
C  C70  1  0.66020242  0.91377470  0.45134130  1  0  -0.096175  0  3.728648  0  0  -0.123773  0  3.986017  0  0  -0.124746  0  4.006268  0  0  -0.090468  -0.122893  0  3.972912  0
C  C71  1  0.33979356  0.08621889  0.54863585  1  0  -0.096343  0  3.728458  0  0  -0.123905  0  3.985799  0  0  -0.124875  0  4.006052  0  0  -0.090499  -0.122999  0  3.972709  0
C  C72  1  0.78072674  0.09308215  0.07608058  1  0  0.616417  0  3.943922  0  0  0.565211  0  4.238767  0  0  0.59901  0  4.23418  0  0  0.194081  0.543034  0  4.240421  0
C  C73  1  0.21925985  0.90692893  0.92390837  1  0  0.616378  0  3.94391  0  0  0.565087  0  4.238864  0  0  0.598893  0  4.234276  0  0  0.19392  0.54291  0  4.240524  0
C  C74  1  0.89503016  0.04457939  0.03805129  1  0  -0.058386  0  3.756214  0  0  -0.036865  0  3.993192  0  0  -0.042873  0  4.015624  0  0  -0.019021  -0.034254  0  3.979226  0
C  C75  1  0.10492375  0.95540579  0.96192117  1  0  -0.058456  0  3.756111  0  0  -0.036861  0  3.993094  0  0  -0.042875  0  4.015534  0  0  -0.018986  -0.034255  0  3.979134  0
C  C76  1  0.89002430  0.91204190  0.03314810  1  0  -0.09213  0  3.766364  0  0  -0.114095  0  4.020343  0  0  -0.115928  0  4.041782  0  0  -0.088428  -0.113481  0  4.006226  0
C  C77  1  0.10993811  0.08794079  0.96684821  1  0  -0.09204  0  3.766196  0  0  -0.114092  0  4.020201  0  0  -0.115919  0  4.04163  0  0  -0.088512  -0.113474  0  4.006081  0
C  C78  1  0.00620100  0.13242991  0.00508903  1  0  -0.068416  0  3.728314  0  0  -0.093994  0  3.983016  0  0  -0.09484  0  4.00351  0  0  -0.086258  -0.092384  0  3.96879  0
C  C79  1  0.99381364  0.86755928  0.99495685  1  0  -0.068226  0  3.728218  0  0  -0.093855  0  3.982884  0  0  -0.094707  0  4.00339  0  0  -0.086162  -0.092246  0  3.968665  0
C  C80  1  0.75380225  0.34027280  0.31393509  1  0  0.627316  0  3.90643  0  0  0.57572  0  4.199753  0  0  0.610053  0  4.193262  0  0  0.204676  0.552989  0  4.20253  0
C  C81  1  0.24618543  0.65973395  0.68607454  1  0  0.627467  0  3.906387  0  0  0.575766  0  4.19985  0  0  0.6101  0  4.193356  0  0  0.204574  0.553036  0  4.202632  0
C  C82  1  0.88125434  0.42104104  0.41083386  1  0  -0.065028  0  3.763585  0  0  -0.040334  0  3.992408  0  0  -0.046661  0  4.014196  0  0  -0.017868  -0.036684  0  3.977976  0
C  C83  1  0.11878795  0.57894987  0.58916214  1  0  -0.065444  0  3.764277  0  0  -0.040628  0  3.992994  0  0  -0.046965  0  4.014803  0  0  -0.01781  -0.036966  0  3.97854  0
C  C84  1  0.95494975  0.55005168  0.40205236  1  0  -0.076738  0  3.741931  0  0  -0.099231  0  3.993979  0  0  -0.10045  0  4.013817  0  0  -0.085426  -0.098334  0  3.98034  0
C  C85  1  0.04510432  0.44994117  0.59794009  1  0  -0.076554  0  3.742372  0  0  -0.09906  0  3.994364  0  0  -0.100285  0  4.014211  0  0  -0.085519  -0.098171  0  3.980735  0
C  C86  1  0.92760161  0.37133294  0.50959799  1  0  -0.078187  0  3.743086  0  0  -0.1029  0  3.997952  0  0  -0.103632  0  4.017586  0  0  -0.086931  -0.102097  0  3.984269  0
C  C87  1  0.07239723  0.62867371  0.49041246  1  0  -0.078123  0  3.743216  0  0  -0.102868  0  3.998079  0  0  -0.103605  0  4.017708  0  0  -0.087064  -0.102043  0  3.984404  0
N  N88  1  0.35020179  0.23738702  0.22769699  1  0  -0.359053  0  3.253942  0  0  -0.295278  0  3.510874  0  0  -0.313635  0  3.533758  0  0  -0.300053  -0.282391  0  3.493822  0
N  N89  1  0.64980956  0.76263052  0.77230285  1  0  -0.359247  0  3.253988  0  0  -0.295569  0  3.510932  0  0  -0.313924  0  3.533807  0  0  -0.300124  -0.282675  0  3.49387  0
N  N90  1  0.38647832  0.99264191  0.20004110  1  0  -0.338771  0  3.20444  0  0  -0.267568  0  3.4589  0  0  -0.286621  0  3.480283  0  0  -0.29008  -0.253813  0  3.443597  0
N  N91  1  0.61349738  0.00736765  0.79992942  1  0  -0.339145  0  3.204732  0  0  -0.268081  0  3.459133  0  0  -0.287134  0  3.480502  0  0  -0.290267  -0.254328  0  3.443843  0
N  N92  1  0.93905950  0.83023315  0.32825895  1  0  -0.428224  0  2.966929  0  0  -0.39519  0  3.234163  0  0  -0.4102  0  3.248831  0  0  -0.329141  -0.386977  0  3.226047  0
N  N93  1  0.06096159  0.16976076  0.67174264  1  0  -0.42837  0  2.967401  0  0  -0.395344  0  3.234632  0  0  -0.410355  0  3.249297  0  0  -0.329268  -0.387135  0  3.226524  0
N  N94  1  0.90203063  0.02887384  0.34657406  1  0  -0.360691  0  3.312319  0  0  -0.302019  0  3.548301  0  0  -0.319321  0  3.560518  0  0  -0.366926  -0.289061  0  3.537681  0
N  N95  1  0.09797213  0.97112505  0.65343076  1  0  -0.360819  0  3.312503  0  0  -0.30213  0  3.54847  0  0  -0.319432  0  3.560693  0  0  -0.366985  -0.289175  0  3.537847  0
O  O96  1  0.66554213  0.00769229  0.08980648  1  0  -0.677347  0  1.981373  0  0  -0.606247  0  2.220096  0  0  -0.637068  0  2.215072  0  0  -0.313216  -0.585215  0  2.220236  0
O  O97  1  0.33447854  0.99231891  0.91021339  1  0  -0.677437  0  1.981204  0  0  -0.606336  0  2.22  0  0  -0.637164  0  2.214976  0  0  -0.313135  -0.585291  0  2.220118  0
O  O98  1  0.79969058  0.21491137  0.09114914  1  0  -0.623528  0  1.92704  0  0  -0.564821  0  2.145745  0  0  -0.592318  0  2.141069  0  0  -0.314909  -0.545617  0  2.147548  0
O  O99  1  0.20032836  0.78509503  0.90886631  1  0  -0.623446  0  1.926906  0  0  -0.564714  0  2.145671  0  0  -0.592218  0  2.140995  0  0  -0.314856  -0.545514  0  2.147477  0
O  O100  1  0.68557491  0.39860587  0.23993039  1  0  -0.610234  0  1.92393  0  0  -0.544881  0  2.138837  0  0  -0.572536  0  2.131965  0  0  -0.302253  -0.525395  0  2.142717  0
O  O101  1  0.31437701  0.60139979  0.76009915  1  0  -0.610343  0  1.92393  0  0  -0.544986  0  2.138933  0  0  -0.572644  0  2.132055  0  0  -0.302243  -0.525491  0  2.142807  0
O  O102  1  0.71870787  0.21452296  0.30879959  1  0  -0.636454  0  1.940667  0  0  -0.570086  0  2.175875  0  0  -0.597743  0  2.167141  0  0  -0.305117  -0.551276  0  2.18035  0
O  O103  1  0.28127754  0.78548665  0.69121504  1  0  -0.636378  0  1.94039  0  0  -0.570048  0  2.175797  0  0  -0.597709  0  2.167067  0  0  -0.305058  -0.551236  0  2.180265  0
