# generated using pymatgen
data_Zn3H17C30(NO6)2
_symmetry_space_group_name_H-M   'P 1'
_cell_length_a   18.61377073
_cell_length_b   18.66490453
_cell_length_c   18.70095802
_cell_angle_alpha   109.68077699
_cell_angle_beta   108.98970181
_cell_angle_gamma   109.55266312
_symmetry_Int_Tables_number   1
_chemical_formula_structural   Zn3H17C30(NO6)2
_chemical_formula_sum   'Zn6 H34 C60 N4 O24'
_cell_volume   5013.09177986
_cell_formula_units_Z   2
loop_
 _symmetry_equiv_pos_site_id
 _symmetry_equiv_pos_as_xyz
  1  'x, y, z'
loop_
 _atom_site_type_symbol
 _atom_site_label
 _atom_site_symmetry_multiplicity
 _atom_site_fract_x
 _atom_site_fract_y
 _atom_site_fract_z
 _atom_site_occupancy
 _atom_site_pbe_bader_charge
 _atom_site_pbe_bader_spin_density
 _atom_site_pbe_cm5_charge
 _atom_site_pbe_ddec_charge
 _atom_site_pbe_ddec_spin_density
 _atom_site_pbe_ddec_sum_bond_order
 _atom_site_pbe_magmom
Zn  Zn0  1  0.49486434  0.42970933  0.43297421  1  1.309795  0  0.724619  0.951239  0  2.127359  0
Zn  Zn1  1  0.50623581  0.56007310  0.56567670  1  1.320751  0  0.734821  0.971988  0  2.125967  0
Zn  Zn2  1  0.94022488  0.44082653  0.00404997  1  1.305863  0  0.728151  0.954274  0  2.116609  0
Zn  Zn3  1  0.06868703  0.56259030  0.00190523  1  1.317784  0  0.732379  0.963674  0  2.136623  0
Zn  Zn4  1  0.05352952  0.99363267  0.55547084  1  1.307513  0  0.721959  0.953967  0  2.139316  0
Zn  Zn5  1  0.92643822  0.99642869  0.43564579  1  1.314469  0  0.730019  0.96331  0  2.120819  0
H  H6  1  0.60854137  0.58071856  0.31049127  1  0.096157  0  0.111063  0.113921  0  0.983911  0
H  H7  1  0.85518657  0.19437409  0.77021790  1  0.086854  0  0.112221  0.117252  0  0.982935  0
H  H8  1  0.07998789  0.34498876  0.14869790  1  0.077735  0  0.106593  0.127319  0  0.967059  0
H  H9  1  0.13832119  0.33758713  0.08986582  1  0.069134  0  0.103176  0.118803  0  0.97686  0
H  H10  1  0.25386801  0.34269060  0.20888158  1  0.059485  0  0.10591  0.082602  0  0.946131  0
H  H11  1  0.73782651  0.72683972  0.59116267  1  0.089972  0  0.109834  0.116036  0  0.986786  0
H  H12  1  0.84706324  0.85076426  0.59225314  1  0.067546  0  0.109954  0.114842  0  0.984935  0
H  H13  1  0.70900401  0.71070330  0.31129528  1  0.076394  0  0.113856  0.118637  0  0.978762  0
H  H14  1  0.94617239  0.48597625  0.76199420  1  0.055318  0  0.097811  0.144519  0  1.006291  0
H  H15  1  0.87309895  0.44250029  0.65005078  1  0.074  0  0.100467  0.138265  0  0.984153  0
H  H16  1  0.95083425  0.55584126  0.71731528  1  0.036449  0  0.102026  0.139781  0  0.978404  0
H  H17  1  0.66158526  0.54792229  0.78827478  1  0.110733  0  0.118774  0.13143  0  0.975196  0
H  H18  1  0.73356247  0.53148771  0.56269022  1  0.057559  0  0.094197  0.139386  0  1.010917  0
H  H19  1  0.83645591  0.53563945  0.60245009  1  0.048355  0  0.097622  0.132857  0  1.002235  0
H  H20  1  0.73759584  0.43408423  0.54296378  1  0.088521  0  0.10377  0.146095  0  0.970817  0
H  H21  1  0.91191838  0.75381137  0.07568954  1  0.033838  0  0.0931  0.12963  0  0.995453  0
H  H22  1  0.02226506  0.78747862  0.10056487  1  0.060141  0  0.094749  0.131694  0  0.983844  0
H  H23  1  0.94385379  0.67471763  0.04253051  1  0.049649  0  0.086509  0.127116  0  1.046532  0
H  H24  1  0.02436317  0.94733972  0.29720289  1  0.049895  0  0.086588  0.126649  0  1.03799  0
H  H25  1  0.02361490  0.89825945  0.19707631  1  0.034762  0  0.09075  0.122112  0  1.012968  0
H  H26  1  0.92433594  0.86936088  0.19991272  1  0.057451  0  0.098037  0.138437  0  0.975489  0
H  H27  1  0.06282032  0.58355632  0.26410754  1  0.032312  0  0.088255  0.126777  0  1.006893  0
H  H28  1  0.26978667  0.39454310  0.53399214  1  0.105426  0  0.119791  0.132353  0  0.977127  0
H  H29  1  0.05096395  0.62311740  0.35800898  1  0.049606  0  0.092725  0.127183  0  0.996342  0
H  H30  1  0.95750690  0.54177593  0.25333491  1  0.051049  0  0.096001  0.139593  0  0.987023  0
H  H31  1  0.23501747  0.33299298  0.33197479  1  0.048145  0  0.084335  0.120526  0  1.038726  0
H  H32  1  0.14273254  0.34842901  0.30015225  1  0.017292  0  0.090217  0.12084  0  0.99615  0
H  H33  1  0.13761345  0.25155306  0.23145365  1  0.010958  0  0.09385  0.12766  0  0.989192  0
H  H34  1  0.18344698  0.07860947  0.40501820  1  0.095778  0  0.117424  0.123971  0  0.974111  0
H  H35  1  0.30796632  0.18355594  0.40372170  1  0.116596  0  0.118284  0.124377  0  0.973214  0
H  H36  1  0.04210999  0.75147200  0.40530049  1  0.08434  0  0.104492  0.11273  0  1.000779  0
H  H37  1  0.12984289  0.37178251  0.88226091  1  0.0906  0  0.109251  0.114275  0  0.987454  0
H  H38  1  0.13851476  0.25712313  0.77320566  1  0.083765  0  0.111403  0.115094  0  0.980148  0
H  H39  1  0.86065033  0.08537827  0.65239090  1  0.108109  0  0.11207  0.116719  0  0.979424  0
C  C40  1  0.60494899  0.57613179  0.45541351  1  1.514091  0  0.219602  0.600311  0  4.140482  0
C  C41  1  0.66761636  0.64654652  0.45093650  1  -0.052497  0  -0.013877  -0.029825  0  3.97731  0
C  C42  1  0.71109984  0.53825270  0.77433417  1  0.002403  0  -0.068317  -0.123499  0  3.947266  0
C  C43  1  0.39213709  0.53579467  0.41978050  1  1.56617  0  0.224004  0.610079  0  4.147627  0
C  C44  1  0.77735271  0.53658500  0.83508296  1  0.078332  0  0.008337  0.041511  0  4.093124  0
C  C45  1  0.84253302  0.52582095  0.81727212  1  -0.001392  0  0.003254  -0.099759  0  3.877859  0
C  C46  1  0.83963975  0.51475684  0.73803230  1  0.023994  0  0.006813  0.102066  0  3.891277  0
C  C47  1  0.77096122  0.51433456  0.67565716  1  0.007489  0  0.013532  0.117923  0  3.866356  0
C  C48  1  0.70662493  0.52520885  0.69465763  1  0.022665  0  -0.010959  -0.081765  0  3.949518  0
C  C49  1  0.24932391  0.32497206  0.50393756  1  0.025906  0  -0.059521  -0.109413  0  3.897136  0
C  C50  1  0.17621913  0.26553851  0.50031985  1  0.048397  0  0.01479  0.041507  0  4.058912  0
C  C51  1  0.20207723  0.46825282  0.20818501  1  0.002548  0  0.005961  0.072501  0  3.92017  0
C  C52  1  0.15288817  0.17623128  0.46514178  1  0.019548  0  0.013928  -0.022545  0  3.891124  0
C  C53  1  0.20080526  0.14738026  0.43085699  1  -0.049176  0  -0.072772  -0.096387  0  3.958089  0
C  C54  1  0.27095834  0.20592587  0.43102644  1  -0.031074  0  -0.064175  -0.069657  0  3.937381  0
C  C55  1  0.37511589  0.36074603  0.47596812  1  1.547669  0  0.223338  0.601863  0  4.151778  0
C  C56  1  0.29666011  0.29534953  0.46948393  1  0.041519  0  -0.010859  -0.033016  0  3.98277  0
C  C57  1  0.98324838  0.59730183  0.12051039  1  1.507545  0  0.229196  0.628749  0  4.108163  0
C  C58  1  0.14752033  0.53856046  0.12965125  1  1.584775  0  0.222046  0.6069  0  4.159135  0
C  C59  1  0.98794869  0.36006538  0.89608061  1  1.520858  0  0.223157  0.606292  0  4.133139  0
C  C60  1  0.91174560  0.52299936  0.88369904  1  1.563695  0  0.225494  0.609464  0  4.14878  0
C  C61  1  0.02098973  0.88358339  0.40315421  1  1.512853  0  0.218968  0.60908  0  4.117508  0
C  C62  1  0.14547118  0.36931966  0.15492784  1  -0.020191  0  -0.145933  -0.242634  0  3.836545  0
C  C63  1  0.84879491  0.86557652  0.45759919  1  1.568481  0  0.221835  0.604529  0  4.134956  0
C  C64  1  0.00342569  0.10172095  0.63460829  1  1.536523  0  0.228161  0.61335  0  4.129329  0
C  C65  1  0.08303617  0.11331303  0.47151758  1  1.598759  0  0.225543  0.606218  0  4.164579  0
C  C66  1  0.98558145  0.74010443  0.18087035  1  0.018919  0  0.003811  0.111611  0  3.888875  0
C  C67  1  0.62817138  0.51850178  0.62986436  1  1.544221  0  0.226681  0.61792  0  4.118287  0
C  C68  1  0.99778468  0.81269631  0.25021902  1  -0.011627  0  0.00016  0.097478  0  3.891345  0
C  C69  1  0.01658085  0.81416682  0.33029960  1  -0.019838  0  -0.019111  -0.086423  0  3.982807  0
C  C70  1  0.02549554  0.74659279  0.34166364  1  -0.061531  0  -0.088907  -0.165507  0  3.974681  0
C  C71  1  0.01203825  0.67353102  0.27353700  1  0.04039  0  -0.003205  0.156031  0  3.977076  0
C  C72  1  0.99155811  0.67122911  0.19292918  1  0.007622  0  -0.008295  -0.134674  0  3.877709  0
C  C73  1  0.21429869  0.36741171  0.23028346  1  0.033981  0  -0.070538  0.052377  0  3.829544  0
C  C74  1  0.07197216  0.30765967  0.83354110  1  -0.042771  0  -0.079595  -0.090452  0  3.971114  0
C  C75  1  0.07658732  0.24435326  0.77236929  1  -0.005928  0  -0.077731  -0.095208  0  3.968579  0
C  C76  1  0.00004171  0.16490779  0.70624706  1  -0.028628  0  -0.006165  -0.010994  0  3.954742  0
C  C77  1  0.91996668  0.14702260  0.70467351  1  -0.026785  0  -0.078216  -0.097538  0  3.966128  0
C  C78  1  0.91659964  0.20803804  0.76957114  1  -0.058019  0  -0.077043  -0.090518  0  3.966418  0
C  C79  1  0.26083480  0.46730060  0.27617941  1  -0.072378  0  0.005684  0.028005  0  3.868286  0
C  C80  1  0.99211586  0.28967041  0.83265700  1  0.033286  0  -0.015589  -0.031242  0  3.973401  0
C  C81  1  0.33069034  0.54363017  0.35205630  1  0.05583  0  0.008077  -0.076926  0  3.913069  0
C  C82  1  0.34081344  0.62392835  0.35584685  1  0.124176  0  0.029764  0.020155  0  3.991263  0
C  C83  1  0.28377237  0.62460551  0.28344727  1  0.109211  0  0.029515  0.020769  0  3.995319  0
C  C84  1  0.73386903  0.72305006  0.53050324  1  -0.022137  0  -0.079396  -0.088747  0  3.975787  0
C  C85  1  0.21254413  0.54520925  0.20751317  1  0.002497  0  0.0094  -0.079913  0  3.914777  0
C  C86  1  0.41061534  0.70603585  0.43091122  1  0.868663  0  0.170977  0.227576  0  4.03547  0
C  C87  1  0.77541510  0.54567647  0.91330090  1  0.808219  0  0.173756  0.231442  0  4.030696  0
C  C88  1  0.90585136  0.49871577  0.71608157  1  -0.053078  0  -0.23399  -0.408346  0  3.959645  0
C  C89  1  0.76968536  0.50393771  0.59185861  1  -0.08649  0  -0.236575  -0.411625  0  3.967675  0
C  C90  1  0.12889092  0.29707189  0.53634337  1  0.831343  0  0.172921  0.233027  0  4.024044  0
C  C91  1  0.96459761  0.73830868  0.09520050  1  -0.06745  0  -0.243237  -0.407808  0  3.979788  0
C  C92  1  0.29784380  0.70711442  0.28999043  1  0.842045  0  0.172426  0.229219  0  4.034906  0
C  C93  1  0.99293434  0.88615323  0.23605338  1  -0.062772  0  -0.243177  -0.405394  0  3.989138  0
C  C94  1  0.02144204  0.60179863  0.28814628  1  -0.056219  0  -0.238111  -0.407302  0  3.972963  0
C  C95  1  0.79324427  0.79221564  0.53105536  1  -0.006449  0  -0.079006  -0.09349  0  3.974185  0
C  C96  1  0.18042428  0.32269666  0.27618122  1  -0.026539  0  -0.240941  -0.388307  0  3.954048  0
C  C97  1  0.78334112  0.78813168  0.45194741  1  -0.006463  0  -0.005629  -0.007239  0  3.952561  0
C  C98  1  0.71600150  0.71285214  0.37227077  1  -0.008522  0  -0.075367  -0.09579  0  3.955961  0
C  C99  1  0.65982028  0.64075089  0.37183002  1  -0.003065  0  -0.075683  -0.089409  0  3.961655  0
N  N100  1  0.46777309  0.77391464  0.49129834  1  -1.088364  0  -0.298763  -0.327427  0  2.650156  0
N  N101  1  0.76973354  0.55399763  0.97568580  1  -1.102702  0  -0.311437  -0.352162  0  2.698922  0
N  N102  1  0.09145954  0.32405025  0.56685846  1  -1.099597  0  -0.314881  -0.356032  0  2.669292  0
N  N103  1  0.30911792  0.77497802  0.29655361  1  -1.06268  0  -0.297405  -0.325978  0  2.649583  0
O  O104  1  0.57001117  0.49466616  0.39820364  1  -1.125332  0  -0.318367  -0.528483  0  2.200881  0
O  O105  1  0.97124639  0.91476318  0.38317968  1  -1.168447  0  -0.31022  -0.575415  0  2.383959  0
O  O106  1  0.92735827  0.90134211  0.51750004  1  -1.181248  0  -0.313671  -0.578195  0  2.336091  0
O  O107  1  0.58995008  0.60163268  0.51838905  1  -1.184489  0  -0.312685  -0.582164  0  2.36633  0
O  O108  1  0.82252338  0.89223740  0.40433918  1  -1.126959  0  -0.314795  -0.523298  0  2.207228  0
O  O109  1  0.06278987  0.08041526  0.65696101  1  -1.125553  0  -0.316436  -0.530439  0  2.242202  0
O  O110  1  0.94796208  0.07470322  0.55693297  1  -1.15976  0  -0.307076  -0.558095  0  2.304148  0
O  O111  1  0.11127310  0.08934978  0.52508704  1  -1.157854  0  -0.302675  -0.553169  0  2.292496  0
O  O112  1  0.00267760  0.08877257  0.42324223  1  -1.12524  0  -0.307196  -0.519499  0  2.221552  0
O  O113  1  0.40516683  0.47249067  0.38914181  1  -1.161888  0  -0.302864  -0.564852  0  2.327607  0
O  O114  1  0.42578331  0.58985145  0.50112564  1  -1.115026  0  -0.302751  -0.509175  0  2.230656  0
O  O115  1  0.03253758  0.61826635  0.08885823  1  -1.166007  0  -0.307721  -0.571187  0  2.366969  0
O  O116  1  0.40168600  0.33190632  0.42276030  1  -1.128221  0  -0.314277  -0.528036  0  2.24584  0
O  O117  1  0.40965404  0.44049269  0.53317386  1  -1.179666  0  -0.310801  -0.569926  0  2.330363  0
O  O118  1  0.59176065  0.46022284  0.55040980  1  -1.17465  0  -0.305509  -0.559206  0  2.326279  0
O  O119  1  0.60157085  0.57113583  0.66013651  1  -1.132501  0  -0.316229  -0.531699  0  2.237278  0
O  O120  1  0.92917591  0.51754208  0.09489380  1  -1.116446  0  -0.304482  -0.516019  0  2.241471  0
O  O121  1  0.06903385  0.48029181  0.09808840  1  -1.171269  0  -0.30326  -0.56496  0  2.316029  0
O  O122  1  0.17437779  0.58811473  0.09961820  1  -1.117567  0  -0.304144  -0.508784  0  2.225907  0
O  O123  1  0.93128369  0.33716258  0.92101146  1  -1.125568  0  -0.316973  -0.529004  0  2.239541  0
O  O124  1  0.04073232  0.43885785  0.92089044  1  -1.170851  0  -0.314177  -0.5754  0  2.336159  0
O  O125  1  0.88448802  0.46948413  0.90869969  1  -1.156749  0  -0.300249  -0.555227  0  2.327138  0
O  O126  1  0.99265241  0.57493966  0.91103789  1  -1.131111  0  -0.30724  -0.520781  0  2.237  0
O  O127  1  0.07254465  0.90742166  0.48282277  1  -1.127958  0  -0.319972  -0.529922  0  2.213568  0
