# generated using pymatgen
data_LiBH28(C5N2)4
_symmetry_space_group_name_H-M   'P 1'
_cell_length_a   16.29871662
_cell_length_b   16.29871442
_cell_length_c   16.29871494
_cell_angle_alpha   89.99998887
_cell_angle_beta   89.99999320
_cell_angle_gamma   90.00002837
_symmetry_Int_Tables_number   1
_chemical_formula_structural   LiBH28(C5N2)4
_chemical_formula_sum   'Li6 B6 H168 C120 N48'
_cell_volume   4329.72310639
_cell_formula_units_Z   6
loop_
 _symmetry_equiv_pos_site_id
 _symmetry_equiv_pos_as_xyz
  1  'x, y, z'
loop_
 _atom_site_type_symbol
 _atom_site_label
 _atom_site_symmetry_multiplicity
 _atom_site_fract_x
 _atom_site_fract_y
 _atom_site_fract_z
 _atom_site_occupancy
 _atom_site_pbe_bader_charge
 _atom_site_pbe_bader_spin_density
 _atom_site_pbe_cm5_charge
 _atom_site_pbe_ddec_charge
 _atom_site_pbe_ddec_spin_density
 _atom_site_pbe_ddec_sum_bond_order
 _atom_site_pbe_magmom
Li  Li0  1  0.74999961  0.49999965  0.00000022  1  0.864411  0  0.455169  0.674503  0  0.655023  0
Li  Li1  1  0.25000012  0.50000014  0.99999963  1  0.864416  0  0.455173  0.67452  0  0.654993  0
Li  Li2  1  0.00000016  0.74999959  0.49999947  1  0.864416  0  0.454973  0.674424  0  0.655115  0
Li  Li3  1  0.00000003  0.25000004  0.49999952  1  0.86441  0  0.455176  0.674513  0  0.655003  0
Li  Li4  1  0.49999945  0.00000005  0.74999959  1  0.864409  0  0.454961  0.67439  0  0.655167  0
Li  Li5  1  0.50000009  0.00000010  0.25000005  1  0.864415  0  0.455171  0.674497  0  0.655025  0
B  B6  1  0.50000011  0.25000011  0.00000026  1  2.204643  0  0.11043  0.571758  0  3.22683  0
B  B7  1  0.50000029  0.75000038  0.99999990  1  2.204679  0  0.110447  0.57182  0  3.226721  0
B  B8  1  0.00000011  0.50000015  0.24999942  1  2.204548  0  0.109779  0.571753  0  3.226403  0
B  B9  1  0.00000008  0.50000010  0.75000018  1  2.20461  0  0.110399  0.571718  0  3.226881  0
B  B10  1  0.25000002  0.00000001  0.50000014  1  2.204577  0  0.11043  0.5718  0  3.226751  0
B  B11  1  0.75000013  0.00000014  0.50000011  1  2.204545  0  0.110383  0.571728  0  3.226873  0
H  H12  1  0.57607977  0.26712426  0.15731357  1  0.084491  0  0.114129  0.107638  0  1.076996  0
H  H13  1  0.42392005  0.73287568  0.15731353  1  0.084488  0  0.114133  0.107632  0  1.076989  0
H  H14  1  0.42392051  0.26712416  0.84268602  1  0.084483  0  0.114119  0.107617  0  1.076989  0
H  H15  1  0.57607984  0.73287565  0.84268596  1  0.084477  0  0.114131  0.107634  0  1.076989  0
H  H16  1  0.15731435  0.57607980  0.26712468  1  0.084477  0  0.114125  0.107617  0  1.077025  0
H  H17  1  0.15731429  0.42392052  0.73287552  1  0.084474  0  0.114109  0.107598  0  1.077  0
H  H18  1  0.84268607  0.42392012  0.26712404  1  0.08448  0  0.114129  0.107626  0  1.077013  0
H  H19  1  0.84268608  0.57607993  0.73287546  1  0.084482  0  0.114123  0.107606  0  1.077007  0
H  H20  1  0.26712410  0.15731426  0.57607974  1  0.084477  0  0.114122  0.107626  0  1.077  0
H  H21  1  0.73287551  0.15731377  0.42392048  1  0.084492  0  0.114126  0.107612  0  1.076996  0
H  H22  1  0.26712428  0.84268612  0.42392044  1  0.084484  0  0.114132  0.107634  0  1.076985  0
H  H23  1  0.73287567  0.84268622  0.57607965  1  0.084488  0  0.114133  0.107634  0  1.076986  0
H  H24  1  0.76712418  0.07607975  0.65731435  1  0.084474  0  0.114129  0.107633  0  1.076986  0
H  H25  1  0.23287558  0.92392010  0.65731429  1  0.084488  0  0.114134  0.107633  0  1.076985  0
H  H26  1  0.76712441  0.92392027  0.34268639  1  0.084046  0  0.114135  0.107644  0  1.076973  0
H  H27  1  0.23287539  0.07608026  0.34268589  1  0.084483  0  0.114125  0.10761  0  1.076998  0
H  H28  1  0.07607973  0.65731375  0.76712421  1  0.084488  0  0.114133  0.107638  0  1.076982  0
H  H29  1  0.92392013  0.65731401  0.23287591  1  0.084487  0  0.114129  0.107635  0  1.077011  0
H  H30  1  0.92392002  0.34268608  0.76712419  1  0.084496  0  0.114099  0.107558  0  1.077026  0
H  H31  1  0.07607968  0.34268592  0.23287599  1  0.084478  0  0.114122  0.107607  0  1.077024  0
H  H32  1  0.65731390  0.76712446  0.07607950  1  0.084495  0  0.114126  0.107611  0  1.076993  0
H  H33  1  0.65731372  0.23287550  0.92392002  1  0.084494  0  0.114127  0.107619  0  1.076993  0
H  H34  1  0.34268601  0.76712430  0.92391998  1  0.084484  0  0.114127  0.107616  0  1.076992  0
H  H35  1  0.34268593  0.23287550  0.07608019  1  0.08449  0  0.114123  0.107609  0  1.077004  0
H  H36  1  0.53103696  0.43385205  0.90639163  1  0.073552  0  0.100032  0.14834  0  0.994424  0
H  H37  1  0.46896339  0.56614836  0.90639223  1  0.073752  0  0.100032  0.148348  0  0.994421  0
H  H38  1  0.46896341  0.43385150  0.09360792  1  0.073752  0  0.100027  0.148342  0  0.994425  0
H  H39  1  0.53103704  0.56614784  0.09360852  1  0.073548  0  0.100033  0.14835  0  0.994409  0
H  H40  1  0.90639172  0.53103716  0.43385128  1  0.073761  0  0.10003  0.148356  0  0.994427  0
H  H41  1  0.90639231  0.46896292  0.56614822  1  0.07355  0  0.100032  0.14834  0  0.994427  0
H  H42  1  0.09360807  0.46896335  0.43385194  1  0.073544  0  0.100028  0.148335  0  0.994431  0
H  H43  1  0.09360808  0.53103694  0.56614826  1  0.073747  0  0.100027  0.14833  0  0.994439  0
H  H44  1  0.43385153  0.90639240  0.53103684  1  0.073762  0  0.100042  0.148374  0  0.9944  0
H  H45  1  0.56614845  0.90639183  0.46896323  1  0.073551  0  0.10003  0.148335  0  0.994431  0
H  H46  1  0.43385133  0.09360806  0.46896332  1  0.073752  0  0.100029  0.148344  0  0.994441  0
H  H47  1  0.56614763  0.09360870  0.53103630  1  0.073534  0  0.100028  0.148341  0  0.994407  0
H  H48  1  0.93385142  0.03103700  0.40639272  1  0.073763  0  0.100036  0.148354  0  0.994445  0
H  H49  1  0.06614837  0.96896352  0.40639145  1  0.073532  0  0.100038  0.148361  0  0.994395  0
H  H50  1  0.93385165  0.96896371  0.59360800  1  0.07355  0  0.100036  0.148357  0  0.994395  0
H  H51  1  0.06614813  0.03103676  0.59360814  1  0.073746  0  0.100026  0.148331  0  0.994431  0
H  H52  1  0.03103684  0.40639148  0.93385211  1  0.073748  0  0.100032  0.148353  0  0.994402  0
H  H53  1  0.96896350  0.40639179  0.06614806  1  0.073552  0  0.100042  0.148354  0  0.994404  0
H  H54  1  0.96896350  0.59360832  0.93385204  1  0.073738  0  0.100026  0.148332  0  0.994439  0
H  H55  1  0.03103633  0.59360817  0.06614810  1  0.073549  0  0.100039  0.148347  0  0.994408  0
H  H56  1  0.40639174  0.93385166  0.03103669  1  0.073747  0  0.100027  0.148336  0  0.994431  0
H  H57  1  0.40639147  0.06614817  0.96896348  1  0.073547  0  0.100029  0.148351  0  0.994417  0
H  H58  1  0.59360826  0.93385162  0.96896338  1  0.073746  0  0.100025  0.148338  0  0.994432  0
H  H59  1  0.59360810  0.06614831  0.03103676  1  0.073553  0  0.100028  0.148344  0  0.994422  0
H  H60  1  0.58007147  0.34697098  0.86376558  1  0.05483  0  0.094723  0.133282  0  1.023869  0
H  H61  1  0.41992827  0.65302883  0.86376556  1  0.054829  0  0.09474  0.133331  0  1.023897  0
H  H62  1  0.41992823  0.34697101  0.13623461  1  0.054821  0  0.094756  0.133337  0  1.023865  0
H  H63  1  0.58007098  0.65302894  0.13623457  1  0.054818  0  0.094728  0.133292  0  1.023851  0
H  H64  1  0.86376568  0.58007108  0.34697081  1  0.054822  0  0.09474  0.133325  0  1.023884  0
H  H65  1  0.86376685  0.41992836  0.65302869  1  0.054853  0  0.094721  0.133292  0  1.023879  0
H  H66  1  0.13623474  0.41992883  0.34697148  1  0.054833  0  0.094726  0.133282  0  1.023865  0
H  H67  1  0.13623414  0.58007149  0.65302872  1  0.05484  0  0.094734  0.1333  0  1.02385  0
H  H68  1  0.34697106  0.86376631  0.58007139  1  0.05484  0  0.094753  0.133358  0  1.02385  0
H  H69  1  0.65302829  0.86376579  0.41992869  1  0.054834  0  0.094715  0.133282  0  1.023919  0
H  H70  1  0.34697150  0.13623410  0.41992816  1  0.05484  0  0.094721  0.133289  0  1.023893  0
H  H71  1  0.65302872  0.13623478  0.58007083  1  0.054821  0  0.094743  0.133327  0  1.023859  0
H  H72  1  0.84697098  0.08007152  0.36376604  1  0.054833  0  0.094739  0.133332  0  1.023902  0
H  H73  1  0.15302882  0.91992839  0.36376539  1  0.054835  0  0.094745  0.133309  0  1.023851  0
H  H74  1  0.84697117  0.91992853  0.63623407  1  0.054829  0  0.094745  0.133341  0  1.023863  0
H  H75  1  0.15302921  0.08007132  0.63623419  1  0.05483  0  0.094748  0.133339  0  1.023857  0
H  H76  1  0.08007137  0.36376544  0.84697103  1  0.054826  0  0.094746  0.133333  0  1.023857  0
H  H77  1  0.91992895  0.36376571  0.15302915  1  0.054831  0  0.094728  0.133285  0  1.023872  0
H  H78  1  0.91992898  0.63623437  0.84697095  1  0.054827  0  0.094723  0.133285  0  1.023868  0
H  H79  1  0.08007148  0.63623301  0.15302918  1  0.054847  0  0.094705  0.13327  0  1.023923  0
H  H80  1  0.36376566  0.84697118  0.08007124  1  0.054829  0  0.094747  0.133341  0  1.023857  0
H  H81  1  0.36376543  0.15302925  0.91992893  1  0.054821  0  0.094743  0.133331  0  1.023862  0
H  H82  1  0.63623430  0.84697116  0.91992885  1  0.054829  0  0.094746  0.133341  0  1.023862  0
H  H83  1  0.63623418  0.15302878  0.08007129  1  0.054832  0  0.09475  0.133348  0  1.023852  0
H  H84  1  0.63739748  0.43841502  0.88396409  1  0.075223  0  0.106594  0.145566  0  1.014548  0
H  H85  1  0.36260226  0.56158479  0.88396471  1  0.075224  0  0.106594  0.145579  0  1.014553  0
H  H86  1  0.36260227  0.43841502  0.11603546  1  0.075231  0  0.106603  0.145596  0  1.014534  0
H  H87  1  0.63739756  0.56158493  0.11603544  1  0.075223  0  0.106595  0.145572  0  1.014553  0
H  H88  1  0.88396421  0.63739769  0.43841482  1  0.075235  0  0.10661  0.145613  0  1.014524  0
H  H89  1  0.88396475  0.36260238  0.56158468  1  0.075223  0  0.106585  0.14555  0  1.014565  0
H  H90  1  0.11603497  0.36260282  0.43841550  1  0.075233  0  0.106597  0.145585  0  1.014512  0
H  H91  1  0.11603503  0.63739748  0.56158470  1  0.075229  0  0.106586  0.145562  0  1.014552  0
H  H92  1  0.43841507  0.88396486  0.63739799  1  0.075229  0  0.106595  0.145576  0  1.014551  0
H  H93  1  0.56158490  0.88396430  0.36260270  1  0.075225  0  0.106595  0.145566  0  1.014553  0
H  H94  1  0.43841551  0.11603499  0.36260217  1  0.075227  0  0.106584  0.145572  0  1.014542  0
H  H95  1  0.56158470  0.11603561  0.63739683  1  0.075235  0  0.10659  0.145561  0  1.014551  0
H  H96  1  0.93841500  0.13739753  0.38396456  1  0.075235  0  0.106595  0.145582  0  1.014547  0
H  H97  1  0.06158479  0.86260237  0.38396454  1  0.075223  0  0.106596  0.145575  0  1.014545  0
H  H98  1  0.93841517  0.86260256  0.61603554  1  0.075228  0  0.106596  0.14558  0  1.01455  0
H  H99  1  0.06158460  0.13739730  0.61603567  1  0.075229  0  0.106599  0.145581  0  1.014537  0
H  H100  1  0.13739736  0.38396458  0.93841504  1  0.075234  0  0.106584  0.145573  0  1.014536  0
H  H101  1  0.86260236  0.38396423  0.06158452  1  0.075222  0  0.106593  0.145581  0  1.014547  0
H  H102  1  0.86260237  0.61603583  0.93841498  1  0.075229  0  0.106591  0.145578  0  1.014556  0
H  H103  1  0.13739747  0.61603573  0.06158454  1  0.075228  0  0.106587  0.145554  0  1.014555  0
H  H104  1  0.38396481  0.93841520  0.13739722  1  0.075234  0  0.106595  0.145591  0  1.014532  0
H  H105  1  0.38396455  0.06158462  0.86260233  1  0.075227  0  0.106592  0.145567  0  1.01455  0
H  H106  1  0.61603580  0.93841519  0.86260223  1  0.075229  0  0.106599  0.145593  0  1.014546  0
H  H107  1  0.61603563  0.06158475  0.13739729  1  0.075231  0  0.1066  0.14559  0  1.014533  0
H  H108  1  0.68025793  0.36946057  0.24467688  1  -0.002955  0  0.090413  0.125105  0  1.010546  0
H  H109  1  0.31974188  0.63053936  0.24467688  1  -0.002953  0  0.090415  0.125111  0  1.010543  0
H  H110  1  0.31974179  0.36946043  0.75532330  1  -0.002947  0  0.090425  0.125128  0  1.010556  0
H  H111  1  0.68025797  0.63054001  0.75532325  1  -0.003026  0  0.090409  0.125087  0  1.010572  0
H  H112  1  0.24467769  0.68025797  0.36946095  1  -0.003038  0  0.090411  0.125127  0  1.010547  0
H  H113  1  0.24467759  0.31974117  0.63053985  1  -0.003037  0  0.090417  0.125114  0  1.010525  0
H  H114  1  0.75532333  0.31974132  0.36946034  1  -0.003017  0  0.090427  0.125116  0  1.010565  0
H  H115  1  0.75532340  0.68025807  0.63053978  1  -0.002956  0  0.090418  0.125113  0  1.010554  0
H  H116  1  0.36946040  0.24467699  0.68025849  1  -0.002962  0  0.090419  0.125111  0  1.010568  0
H  H117  1  0.63053987  0.24467648  0.31974171  1  -0.002952  0  0.090423  0.125105  0  1.010555  0
H  H118  1  0.36946055  0.75532344  0.31974168  1  -0.002953  0  0.090414  0.125116  0  1.010547  0
H  H119  1  0.63053998  0.75532347  0.68025843  1  -0.002944  0  0.090417  0.125106  0  1.010556  0
H  H120  1  0.86945987  0.18025853  0.74467704  1  -0.003028  0  0.090421  0.125109  0  1.010562  0
H  H121  1  0.13053927  0.81974130  0.74467641  1  -0.002946  0  0.090419  0.125121  0  1.010559  0
H  H122  1  0.86946006  0.81974153  0.25532368  1  -0.002983  0  0.090428  0.125111  0  1.010546  0
H  H123  1  0.13053976  0.18025840  0.25532378  1  -0.002947  0  0.090432  0.125129  0  1.010554  0
H  H124  1  0.18025850  0.74467710  0.86945987  1  -0.003019  0  0.090414  0.125113  0  1.010559  0
H  H125  1  0.81974141  0.74467671  0.13053962  1  -0.002953  0  0.090428  0.125109  0  1.010569  0
H  H126  1  0.81974185  0.25532332  0.86945988  1  -0.002948  0  0.090414  0.125102  0  1.010566  0
H  H127  1  0.18025842  0.25532262  0.13053970  1  -0.003034  0  0.090417  0.125117  0  1.010569  0
H  H128  1  0.74467663  0.86946015  0.18025825  1  -0.00299  0  0.09042  0.125116  0  1.010551  0
H  H129  1  0.74467641  0.13053985  0.81974126  1  -0.002948  0  0.090421  0.125114  0  1.01057  0
H  H130  1  0.25532334  0.86945997  0.81974121  1  -0.002955  0  0.090419  0.125113  0  1.010567  0
H  H131  1  0.25532381  0.13053979  0.18025836  1  -0.002944  0  0.090429  0.125117  0  1.010545  0
H  H132  1  0.71376612  0.45996527  0.19307342  1  0.01292  0  0.096648  0.13192  0  1.006794  0
H  H133  1  0.28623432  0.54003467  0.19307343  1  0.012919  0  0.096647  0.13192  0  1.006798  0
H  H134  1  0.28623426  0.45996510  0.80692675  1  0.012923  0  0.09663  0.131902  0  1.006816  0
H  H135  1  0.71376610  0.54003472  0.80692671  1  0.012921  0  0.096643  0.131918  0  1.006807  0
H  H136  1  0.19307486  0.71376550  0.45996686  1  0.013163  0  0.096674  0.13194  0  1.006754  0
H  H137  1  0.19307352  0.28623361  0.54003456  1  0.012914  0  0.096671  0.131935  0  1.006805  0
H  H138  1  0.80692677  0.28623439  0.45996563  1  0.012915  0  0.096634  0.131897  0  1.006795  0
H  H139  1  0.80692625  0.71376626  0.54003448  1  0.012913  0  0.09668  0.131935  0  1.00678  0
H  H140  1  0.45996567  0.19307355  0.71376604  1  0.012918  0  0.096668  0.131909  0  1.006788  0
H  H141  1  0.54003457  0.19307300  0.28623417  1  0.012917  0  0.096644  0.131919  0  1.006801  0
H  H142  1  0.45996523  0.80692692  0.28623412  1  0.01292  0  0.096648  0.131929  0  1.006795  0
H  H143  1  0.54003470  0.80692690  0.71376598  1  0.01292  0  0.096643  0.131914  0  1.006815  0
H  H144  1  0.95996517  0.21376611  0.69307358  1  0.012923  0  0.096679  0.131947  0  1.006795  0
H  H145  1  0.04003459  0.78623373  0.69307358  1  0.012916  0  0.096673  0.131935  0  1.006803  0
H  H146  1  0.95996533  0.78623400  0.30692652  1  0.012919  0  0.096648  0.131912  0  1.006812  0
H  H147  1  0.04003448  0.21376653  0.30692663  1  0.012921  0  0.096677  0.131928  0  1.006761  0
H  H148  1  0.21376603  0.69307364  0.95996517  1  0.012914  0  0.096664  0.131926  0  1.006824  0
H  H149  1  0.78623385  0.69307326  0.04003433  1  0.012918  0  0.096636  0.131896  0  1.006787  0
H  H150  1  0.78623432  0.30692676  0.95996518  1  0.012915  0  0.096637  0.131913  0  1.006818  0
H  H151  1  0.21376598  0.30692610  0.04003440  1  0.012919  0  0.096668  0.131925  0  1.006777  0
H  H152  1  0.69307381  0.95996543  0.21376641  1  0.012915  0  0.096671  0.131932  0  1.006807  0
H  H153  1  0.69307355  0.04003454  0.78623372  1  0.012915  0  0.096671  0.13193  0  1.006808  0
H  H154  1  0.30692620  0.95996528  0.78623365  1  0.012918  0  0.096675  0.131935  0  1.006818  0
H  H155  1  0.30692662  0.04003450  0.21376591  1  0.012915  0  0.096642  0.131915  0  1.006806  0
H  H156  1  0.77021532  0.36764083  0.18366409  1  0.045248  0  0.092289  0.126993  0  1.027009  0
H  H157  1  0.22978511  0.63235912  0.18366410  1  0.045251  0  0.092289  0.126996  0  1.027011  0
H  H158  1  0.22978501  0.36764124  0.81633547  1  0.045242  0  0.092287  0.127002  0  1.027024  0
H  H159  1  0.77021535  0.63235919  0.81633603  1  0.045252  0  0.092289  0.127  0  1.027003  0
H  H160  1  0.18366494  0.77021474  0.36764240  1  0.045267  0  0.092314  0.127058  0  1.026978  0
H  H161  1  0.18366417  0.22978436  0.63235902  1  0.045239  0  0.092285  0.127006  0  1.027009  0
H  H162  1  0.81633609  0.22978516  0.36764118  1  0.045242  0  0.092286  0.127001  0  1.02701  0
H  H163  1  0.81633559  0.77021549  0.63235893  1  0.045239  0  0.092289  0.127007  0  1.027007  0
H  H164  1  0.36764122  0.18366420  0.77021528  1  0.045243  0  0.092288  0.126999  0  1.027011  0
H  H165  1  0.63235902  0.18366431  0.22978493  1  0.04524  0  0.092289  0.126996  0  1.027013  0
H  H166  1  0.36764079  0.81633562  0.22978489  1  0.045237  0  0.092286  0.126996  0  1.027014  0
H  H167  1  0.63235915  0.81633625  0.77021521  1  0.045247  0  0.092283  0.126993  0  1.027017  0
H  H168  1  0.86764073  0.27021533  0.68366425  1  0.045236  0  0.092281  0.126996  0  1.02702  0
H  H169  1  0.13235903  0.72978452  0.68366364  1  0.045242  0  0.092289  0.127006  0  1.027008  0
H  H170  1  0.86764087  0.72978474  0.31633586  1  0.045233  0  0.092285  0.126986  0  1.027021  0
H  H171  1  0.13235894  0.27021518  0.31633595  1  0.045247  0  0.092285  0.127  0  1.027013  0
H  H172  1  0.27021526  0.68366372  0.86764071  1  0.045249  0  0.092285  0.12701  0  1.027006  0
H  H173  1  0.72978461  0.68366390  0.13235879  1  0.04524  0  0.092285  0.126991  0  1.027012  0
H  H174  1  0.72978448  0.31633609  0.86764134  1  0.04524  0  0.09229  0.127011  0  1.026998  0
H  H175  1  0.27021521  0.31633605  0.13235885  1  0.045242  0  0.092285  0.127008  0  1.027012  0
H  H176  1  0.68366384  0.86764097  0.27021566  1  0.04524  0  0.092284  0.127002  0  1.02701  0
H  H177  1  0.68366363  0.13235900  0.72978448  1  0.04524  0  0.092287  0.127004  0  1.027009  0
H  H178  1  0.31633612  0.86764144  0.72978443  1  0.04524  0  0.092286  0.127009  0  1.027016  0
H  H179  1  0.31633597  0.13235896  0.27021575  1  0.045246  0  0.092282  0.126989  0  1.027015  0
C  C180  1  0.60884552  0.37015317  0.99111856  1  0.947089  0  0.216179  0.378819  0  3.958745  0
C  C181  1  0.39115482  0.62984661  0.99111854  1  0.947101  0  0.216191  0.37892  0  3.958688  0
C  C182  1  0.39115482  0.37015322  0.00888162  1  0.947094  0  0.216194  0.378919  0  3.958643  0
C  C183  1  0.60884503  0.62984676  0.00888158  1  0.947086  0  0.21617  0.378864  0  3.958672  0
C  C184  1  0.99111804  0.60884578  0.37015360  1  0.947084  0  0.216206  0.378894  0  3.958728  0
C  C185  1  0.99111859  0.39115496  0.62984588  1  0.947101  0  0.216192  0.378934  0  3.958543  0
C  C186  1  0.00888237  0.39115474  0.37015368  1  0.947066  0  0.216207  0.378953  0  3.958643  0
C  C187  1  0.00888179  0.60884551  0.62984592  1  0.947086  0  0.216226  0.378991  0  3.95859  0
C  C188  1  0.37015328  0.99111685  0.60884481  1  0.947057  0  0.216213  0.378894  0  3.958632  0
C  C189  1  0.62984675  0.99111816  0.39115463  1  0.947093  0  0.216184  0.378924  0  3.95865  0
C  C190  1  0.37015366  0.00888235  0.39115474  1  0.94707  0  0.216189  0.37893  0  3.95862  0
C  C191  1  0.62984588  0.00888178  0.60884551  1  0.94709  0  0.216164  0.378895  0  3.958729  0
C  C192  1  0.87015317  0.10884495  0.49111718  1  0.947069  0  0.21622  0.378983  0  3.958579  0
C  C193  1  0.12984661  0.89115432  0.49111777  1  0.947064  0  0.216219  0.378946  0  3.958647  0
C  C194  1  0.87015336  0.89115450  0.50888170  1  0.947087  0  0.216206  0.378931  0  3.958663  0
C  C195  1  0.12984642  0.10884538  0.50888182  1  0.947078  0  0.216207  0.37895  0  3.958612  0
C  C196  1  0.10884545  0.49111843  0.87015321  1  0.947079  0  0.216188  0.378918  0  3.958638  0
C  C197  1  0.89115433  0.49111808  0.12984633  1  0.94708  0  0.216219  0.378847  0  3.958697  0
C  C198  1  0.89115490  0.50888199  0.87015316  1  0.947082  0  0.216206  0.378978  0  3.958601  0
C  C199  1  0.10884488  0.50888125  0.12984576  1  0.947104  0  0.216192  0.378793  0  3.958615  0
C  C200  1  0.49111802  0.87015340  0.10884528  1  0.947073  0  0.216218  0.378954  0  3.958662  0
C  C201  1  0.49111779  0.12984647  0.89115426  1  0.94707  0  0.216245  0.379045  0  3.958575  0
C  C202  1  0.50888195  0.87015333  0.89115419  1  0.947076  0  0.216228  0.378962  0  3.958684  0
C  C203  1  0.50888181  0.12984655  0.10884535  1  0.947075  0  0.216222  0.379026  0  3.958553  0
C  C204  1  0.65771997  0.36911270  0.11560168  1  0.433247  0  0.064558  0.221254  0  4.093001  0
C  C205  1  0.34227986  0.63088725  0.11560167  1  0.433257  0  0.064579  0.2213  0  4.092943  0
C  C206  1  0.34227914  0.36911316  0.88439850  1  0.43326  0  0.064577  0.221345  0  4.09301  0
C  C207  1  0.65772060  0.63088726  0.88439846  1  0.433252  0  0.064553  0.22129  0  4.09302  0
C  C208  1  0.11560249  0.65771997  0.36911431  1  0.433243  0  0.064542  0.221176  0  4.093098  0
C  C209  1  0.11560240  0.34227972  0.63088712  1  0.433246  0  0.064594  0.221328  0  4.092954  0
C  C210  1  0.88439853  0.34227994  0.36911306  1  0.433257  0  0.064548  0.221261  0  4.093069  0
C  C211  1  0.88439798  0.65772013  0.63088704  1  0.433253  0  0.064571  0.221299  0  4.09298  0
C  C212  1  0.36911249  0.11560240  0.65772053  1  0.433255  0  0.064558  0.221263  0  4.093041  0
C  C213  1  0.63088710  0.11560188  0.34227970  1  0.433253  0  0.064588  0.221335  0  4.092938  0
C  C214  1  0.36911270  0.88439864  0.34227964  1  0.433255  0  0.064544  0.221261  0  4.09303  0
C  C215  1  0.63088728  0.88439807  0.65772044  1  0.433255  0  0.064579  0.221317  0  4.09297  0
C  C216  1  0.86911260  0.15772057  0.61560245  1  0.433247  0  0.064544  0.221275  0  4.092996  0
C  C217  1  0.13088655  0.84227929  0.61560182  1  0.433258  0  0.064566  0.221309  0  4.09295  0
C  C218  1  0.86911279  0.84227949  0.38439827  1  0.433264  0  0.064529  0.221211  0  4.093025  0
C  C219  1  0.13088701  0.15772041  0.38439838  1  0.433255  0  0.064557  0.22127  0  4.093039  0
C  C220  1  0.15771988  0.61560127  0.86911324  1  0.433269  0  0.064552  0.221306  0  4.093068  0
C  C221  1  0.84227934  0.61560212  0.13088690  1  0.433255  0  0.064558  0.221279  0  4.093026  0
C  C222  1  0.84227924  0.38439793  0.86911260  1  0.433243  0  0.064563  0.221312  0  4.09298  0
C  C223  1  0.15772048  0.38439783  0.13088635  1  0.433239  0  0.064575  0.221304  0  4.093092  0
C  C224  1  0.61560205  0.86911286  0.15772029  1  0.433253  0  0.064552  0.221239  0  4.093025  0
C  C225  1  0.61560183  0.13088708  0.84227985  1  0.433262  0  0.064567  0.221265  0  4.093012  0
C  C226  1  0.38439853  0.86911273  0.84227979  1  0.433256  0  0.064552  0.221261  0  4.093063  0
C  C227  1  0.38439777  0.13088709  0.15772037  1  0.433251  0  0.064553  0.221259  0  4.093005  0
C  C228  1  0.59992338  0.30798394  0.11091420  1  0.278023  0  -0.016089  -0.166243  0  3.993039  0
C  C229  1  0.40007645  0.69201663  0.11091417  1  0.278021  0  -0.016117  -0.166256  0  3.993018  0
C  C230  1  0.40007631  0.30798320  0.88908599  1  0.278044  0  -0.016094  -0.166224  0  3.992966  0
C  C231  1  0.59992343  0.69201660  0.88908594  1  0.278031  0  -0.016093  -0.166244  0  3.993003  0
C  C232  1  0.11091438  0.59992339  0.30798373  1  0.278036  0  -0.016082  -0.166219  0  3.993154  0
C  C233  1  0.11091431  0.40007630  0.69201647  1  0.278022  0  -0.016095  -0.166221  0  3.993013  0
C  C234  1  0.88908603  0.40007653  0.30798370  1  0.278031  0  -0.016078  -0.166222  0  3.993115  0
C  C235  1  0.88908606  0.59992354  0.69201641  1  0.27803  0  -0.016098  -0.166207  0  3.993027  0
C  C236  1  0.30798314  0.11091429  0.59992334  1  0.278026  0  -0.016105  -0.166275  0  3.993062  0
C  C237  1  0.69201645  0.11091379  0.40007627  1  0.278029  0  -0.016094  -0.166203  0  3.993055  0
C  C238  1  0.30798334  0.88908611  0.40007684  1  0.278035  0  -0.016094  -0.16621  0  3.993029  0
C  C239  1  0.69201663  0.88908619  0.59992324  1  0.278034  0  -0.016091  -0.166204  0  3.993017  0
C  C240  1  0.80798324  0.09992336  0.61091375  1  0.278031  0  -0.016099  -0.166226  0  3.993047  0
C  C241  1  0.19201653  0.90007650  0.61091371  1  0.27805  0  -0.016101  -0.16623  0  3.993001  0
C  C242  1  0.80798345  0.90007667  0.38908637  1  0.278479  0  -0.016096  -0.166239  0  3.99301  0
C  C243  1  0.19201635  0.09992384  0.38908587  1  0.278029  0  -0.016096  -0.166194  0  3.993024  0
C  C244  1  0.09992331  0.61091377  0.80798327  1  0.278033  0  -0.016087  -0.166231  0  3.992979  0
C  C245  1  0.90007653  0.61091403  0.19201625  1  0.278039  0  -0.016057  -0.166327  0  3.99305  0
C  C246  1  0.90007644  0.38908666  0.80798385  1  0.278044  0  -0.016057  -0.166134  0  3.993047  0
C  C247  1  0.09992390  0.38908591  0.19201632  1  0.278041  0  -0.016084  -0.166332  0  3.993046  0
C  C248  1  0.61091394  0.80798411  0.09992371  1  0.278036  0  -0.01609  -0.166184  0  3.993007  0
C  C249  1  0.61091374  0.19201644  0.90007643  1  0.278029  0  -0.016113  -0.166231  0  3.993045  0
C  C250  1  0.38908600  0.80798398  0.90007638  1  0.278025  0  -0.016098  -0.16621  0  3.993091  0
C  C251  1  0.38908589  0.19201646  0.09992379  1  0.278029  0  -0.016105  -0.166219  0  3.993033  0
C  C252  1  0.58847889  0.39826767  0.90653520  1  -0.094203  0  -0.227854  -0.467011  0  3.949722  0
C  C253  1  0.41152084  0.60173275  0.90653519  1  -0.09422  0  -0.22786  -0.467099  0  3.949796  0
C  C254  1  0.41152145  0.39826709  0.09346497  1  -0.094205  0  -0.227884  -0.467113  0  3.949751  0
C  C255  1  0.58847899  0.60173226  0.09346494  1  -0.094194  0  -0.227853  -0.467042  0  3.949705  0
C  C256  1  0.90653530  0.58847850  0.39826687  1  -0.094214  0  -0.227861  -0.467157  0  3.949819  0
C  C257  1  0.90653586  0.41152097  0.60173201  1  -0.094234  0  -0.22783  -0.467021  0  3.949718  0
C  C258  1  0.09346449  0.41152140  0.39826755  1  -0.094216  0  -0.227856  -0.467068  0  3.949689  0
C  C259  1  0.09346452  0.58847828  0.60173204  1  -0.094216  0  -0.227837  -0.467036  0  3.949668  0
C  C260  1  0.39826713  0.90653596  0.58847941  1  -0.094224  0  -0.227892  -0.467177  0  3.949827  0
C  C261  1  0.60173224  0.90653480  0.41152128  1  -0.094217  0  -0.227844  -0.467026  0  3.949775  0
C  C262  1  0.39826755  0.09346449  0.41152137  1  -0.094218  0  -0.227839  -0.467056  0  3.949757  0
C  C263  1  0.60173264  0.09346513  0.58847825  1  -0.094193  0  -0.227854  -0.467065  0  3.949698  0
C  C264  1  0.89826704  0.08847894  0.40653567  1  -0.094227  0  -0.227887  -0.467151  0  3.94987  0
C  C265  1  0.10173214  0.91152096  0.40653564  1  -0.094194  0  -0.227873  -0.467098  0  3.949687  0
C  C266  1  0.89826723  0.91152114  0.59346505  1  -0.094207  0  -0.227871  -0.46713  0  3.949754  0
C  C267  1  0.10173254  0.08847873  0.59346456  1  -0.094205  0  -0.227862  -0.467085  0  3.949734  0
C  C268  1  0.08847879  0.40653568  0.89826709  1  -0.094201  0  -0.227866  -0.467106  0  3.949742  0
C  C269  1  0.91152094  0.40653535  0.10173247  1  -0.0942  0  -0.227841  -0.467069  0  3.949745  0
C  C270  1  0.91152156  0.59346474  0.89826764  1  -0.0942  0  -0.227836  -0.467037  0  3.949716  0
C  C271  1  0.08847889  0.59346400  0.10173250  1  -0.094222  0  -0.227808  -0.467006  0  3.949788  0
C  C272  1  0.40653529  0.89826726  0.08847864  1  -0.094215  0  -0.227867  -0.467117  0  3.94975  0
C  C273  1  0.40653505  0.10173258  0.91152152  1  -0.094203  0  -0.227841  -0.467109  0  3.949698  0
C  C274  1  0.59346469  0.89826722  0.91152143  1  -0.094203  0  -0.227866  -0.467129  0  3.94979  0
C  C275  1  0.59346454  0.10173270  0.08847871  1  -0.094212  0  -0.227868  -0.467133  0  3.949734  0
C  C276  1  0.70792454  0.39300661  0.18798959  1  0.014563  0  -0.233933  -0.419581  0  3.988803  0
C  C277  1  0.29207528  0.60699333  0.18798959  1  0.014551  0  -0.23394  -0.419605  0  3.988802  0
C  C278  1  0.29207458  0.39300645  0.81201059  1  0.014546  0  -0.233965  -0.419675  0  3.988904  0
C  C279  1  0.70792455  0.60699337  0.81201054  1  0.014554  0  -0.233931  -0.419592  0  3.98888  0
C  C280  1  0.18799041  0.70792394  0.39300759  1  0.014275  0  -0.234017  -0.419755  0  3.988857  0
C  C281  1  0.18799030  0.29207517  0.60699321  1  0.014551  0  -0.23398  -0.419673  0  3.988825  0
C  C282  1  0.81201061  0.29207473  0.39300637  1  0.014548  0  -0.233962  -0.419627  0  3.988866  0
C  C283  1  0.81201009  0.70792469  0.60699314  1  0.014555  0  -0.233979  -0.419656  0  3.988823  0
C  C284  1  0.39300641  0.18799032  0.70792510  1  0.014544  0  -0.233976  -0.419635  0  3.988889  0
C  C285  1  0.60699322  0.18798980  0.29207512  1  0.014552  0  -0.233952  -0.419615  0  3.988823  0
C  C286  1  0.39300659  0.81201012  0.29207507  1  0.014556  0  -0.233949  -0.41964  0  3.988824  0
C  C287  1  0.60699335  0.81201075  0.70792502  1  0.014541  0  -0.233944  -0.419621  0  3.988881  0
C  C288  1  0.89300652  0.20792514  0.68798975  1  0.014543  0  -0.233975  -0.419651  0  3.988895  0
C  C289  1  0.10699324  0.79207531  0.68798974  1  0.014536  0  -0.233966  -0.419658  0  3.988878  0
C  C290  1  0.89300668  0.79207493  0.31201036  1  0.014548  0  -0.233944  -0.419597  0  3.988859  0
C  C291  1  0.10699373  0.20792498  0.31201046  1  0.014541  0  -0.233995  -0.419656  0  3.988848  0
C  C292  1  0.20792508  0.68798920  0.89300713  1  0.014555  0  -0.233964  -0.419663  0  3.988907  0
C  C293  1  0.79207480  0.68799003  0.10699360  1  0.014539  0  -0.233959  -0.419599  0  3.988862  0
C  C294  1  0.79207527  0.31201061  0.89300714  1  0.014548  0  -0.233941  -0.419634  0  3.988891  0
C  C295  1  0.20792503  0.31200993  0.10699367  1  0.014546  0  -0.233995  -0.419687  0  3.98887  0
C  C296  1  0.68798996  0.89300678  0.20792485  1  0.014548  0  -0.233972  -0.419639  0  3.988862  0
C  C297  1  0.68798973  0.10699319  0.79207528  1  0.014545  0  -0.233969  -0.419635  0  3.988878  0
C  C298  1  0.31201002  0.89300663  0.79207522  1  0.014549  0  -0.233976  -0.419688  0  3.988905  0
C  C299  1  0.31201047  0.10699316  0.20792495  1  0.014541  0  -0.233954  -0.41961  0  3.988838  0
N  N300  1  0.56954430  0.30728634  0.03166071  1  -1.450957  0  -0.237008  -0.268279  0  3.667378  0
N  N301  1  0.43045553  0.69271363  0.03166069  1  -1.450945  0  -0.236973  -0.268272  0  3.667305  0
N  N302  1  0.43045600  0.30728560  0.96833886  1  -1.450958  0  -0.236987  -0.268289  0  3.667341  0
N  N303  1  0.56954434  0.69271358  0.96833882  1  -1.450956  0  -0.236984  -0.268265  0  3.667329  0
N  N304  1  0.03166212  0.56954490  0.30728613  1  -1.450888  0  -0.236941  -0.268439  0  3.66743  0
N  N305  1  0.03166145  0.43045536  0.69271285  1  -1.45089  0  -0.236993  -0.268305  0  3.667295  0
N  N306  1  0.96833829  0.43045563  0.30728609  1  -1.4509  0  -0.236935  -0.268438  0  3.667419  0
N  N307  1  0.96833892  0.56954387  0.69271401  1  -1.450941  0  -0.237003  -0.268323  0  3.667289  0
N  N308  1  0.30728552  0.03166141  0.56954427  1  -1.450944  0  -0.236983  -0.268274  0  3.667352  0
N  N309  1  0.69271403  0.03166152  0.43045536  1  -1.450917  0  -0.236958  -0.268292  0  3.6674  0
N  N310  1  0.30728576  0.96833837  0.43045530  1  -1.450911  0  -0.236977  -0.268345  0  3.667338  0
N  N311  1  0.69271426  0.96833845  0.56954415  1  -1.450913  0  -0.236976  -0.268332  0  3.667387  0
N  N312  1  0.80728563  0.06954490  0.53166211  1  -1.45092  0  -0.236967  -0.268313  0  3.667417  0
N  N313  1  0.19271353  0.93045559  0.53166145  1  -1.450914  0  -0.236986  -0.2683  0  3.667355  0
N  N314  1  0.80728585  0.93045575  0.46833863  1  -1.450927  0  -0.236988  -0.268271  0  3.667339  0
N  N315  1  0.19271394  0.06954414  0.46833875  1  -1.45091  0  -0.237  -0.268319  0  3.667274  0
N  N316  1  0.06954421  0.53166089  0.80728629  1  -1.450965  0  -0.236992  -0.268267  0  3.667333  0
N  N317  1  0.93045620  0.53166178  0.19271386  1  -1.450915  0  -0.23676  -0.26795  0  3.667012  0
N  N318  1  0.93045615  0.46833832  0.80728563  1  -1.45094  0  -0.236963  -0.268335  0  3.667455  0
N  N319  1  0.06954423  0.46833816  0.19271330  1  -1.450906  0  -0.236753  -0.267924  0  3.666928  0
N  N320  1  0.53166107  0.80728649  0.06954402  1  -1.450953  0  -0.236979  -0.268291  0  3.667313  0
N  N321  1  0.53166148  0.19271340  0.93045551  1  -1.450906  0  -0.237011  -0.268353  0  3.667286  0
N  N322  1  0.46833825  0.80728640  0.93045546  1  -1.450943  0  -0.236962  -0.268343  0  3.667434  0
N  N323  1  0.46833876  0.19271347  0.06954409  1  -1.450946  0  -0.236989  -0.268302  0  3.667303  0
N  N324  1  0.66386280  0.40727093  0.03977300  1  -1.23841  0  -0.402095  -0.509384  0  3.283711  0
N  N325  1  0.33613765  0.59272904  0.03977300  1  -1.23841  0  -0.402139  -0.509492  0  3.283732  0
N  N326  1  0.33613694  0.40727138  0.96022718  1  -1.238422  0  -0.402092  -0.509452  0  3.283709  0
N  N327  1  0.66386279  0.59272903  0.96022714  1  -1.23841  0  -0.402107  -0.509453  0  3.283683  0
N  N328  1  0.03977321  0.66386276  0.40727192  1  -1.238421  0  -0.402025  -0.509183  0  3.283528  0
N  N329  1  0.03977373  0.33613689  0.59272829  1  -1.238417  0  -0.402096  -0.509426  0  3.283641  0
N  N330  1  0.96022720  0.33613775  0.40727067  1  -1.238399  0  -0.4021  -0.50942  0  3.283756  0
N  N331  1  0.96022665  0.66386235  0.59272882  1  -1.238412  0  -0.40212  -0.509522  0  3.283841  0
N  N332  1  0.40727069  0.03977373  0.66386335  1  -1.238363  0  -0.402012  -0.50923  0  3.283375  0
N  N333  1  0.59272887  0.03977258  0.33613689  1  -1.238413  0  -0.40212  -0.50949  0  3.283662  0
N  N334  1  0.40727093  0.96022672  0.33613743  1  -1.238407  0  -0.402066  -0.509384  0  3.283738  0
N  N335  1  0.59272908  0.96022735  0.66386264  1  -1.238414  0  -0.402084  -0.509457  0  3.283823  0
N  N336  1  0.90727144  0.16386340  0.53977377  1  -1.238377  0  -0.402098  -0.509426  0  3.283579  0
N  N337  1  0.09272895  0.83613770  0.53977253  1  -1.238415  0  -0.402127  -0.509503  0  3.283722  0
N  N338  1  0.90727100  0.83613729  0.46022756  1  -1.238413  0  -0.402054  -0.509337  0  3.283541  0
N  N339  1  0.09272879  0.16386260  0.46022767  1  -1.238419  0  -0.402111  -0.509463  0  3.283719  0
N  N340  1  0.16386267  0.53977320  0.90727147  1  -1.238429  0  -0.4021  -0.509465  0  3.283757  0
N  N341  1  0.83613774  0.53977283  0.09272868  1  -1.238411  0  -0.40212  -0.509453  0  3.283787  0
N  N342  1  0.83613767  0.46022721  0.90727082  1  -1.238386  0  -0.402124  -0.50948  0  3.283657  0
N  N343  1  0.16386270  0.46022590  0.09272811  1  -1.238428  0  -0.402077  -0.50939  0  3.283785  0
N  N344  1  0.53977216  0.90727106  0.16386249  1  -1.238401  0  -0.402142  -0.509473  0  3.283739  0
N  N345  1  0.53977192  0.09272884  0.83613766  1  -1.238412  0  -0.402103  -0.509462  0  3.283812  0
N  N346  1  0.46022721  0.90727098  0.83613758  1  -1.238413  0  -0.402072  -0.509325  0  3.283567  0
N  N347  1  0.46022766  0.09272888  0.16386258  1  -1.238404  0  -0.402108  -0.509484  0  3.283667  0
