# generated using pymatgen
data_ZnH8(C3N2)4
_symmetry_space_group_name_H-M   'P 1'
_cell_length_a   7.07918149
_cell_length_b   9.67651482
_cell_length_c   10.44331901
_cell_angle_alpha   110.04793213
_cell_angle_beta   104.13299806
_cell_angle_gamma   103.49684258
_symmetry_Int_Tables_number   1
_chemical_formula_structural   ZnH8(C3N2)4
_chemical_formula_sum   'Zn2 H16 C24 N16'
_cell_volume   610.94138935
_cell_formula_units_Z   2
loop_
 _symmetry_equiv_pos_site_id
 _symmetry_equiv_pos_as_xyz
  1  'x, y, z'
loop_
 _atom_site_type_symbol
 _atom_site_label
 _atom_site_symmetry_multiplicity
 _atom_site_fract_x
 _atom_site_fract_y
 _atom_site_fract_z
 _atom_site_occupancy
 _atom_site_hle17_bader_spin_density
 _atom_site_hle17_ddec_charge
 _atom_site_hle17_ddec_spin_density
 _atom_site_hle17_ddec_sum_bond_order
 _atom_site_hle17_magmom
 _atom_site_hse06_10hf_bader_spin_density
 _atom_site_hse06_10hf_ddec_charge
 _atom_site_hse06_10hf_ddec_spin_density
 _atom_site_hse06_10hf_ddec_sum_bond_order
 _atom_site_hse06_10hf_magmom
 _atom_site_hse06_bader_spin_density
 _atom_site_hse06_ddec_charge
 _atom_site_hse06_ddec_spin_density
 _atom_site_hse06_ddec_sum_bond_order
 _atom_site_hse06_magmom
 _atom_site_pbe_bader_spin_density
 _atom_site_pbe_cm5_charge
 _atom_site_pbe_ddec_charge
 _atom_site_pbe_ddec_spin_density
 _atom_site_pbe_ddec_sum_bond_order
 _atom_site_pbe_magmom
Zn  Zn0  1  0.89666112  0.11222708  0.10274440  1  0  0.906068  0  2.030121  0  0  0.740613  0  2.483272  0  0  0.77763  0  2.445672  0  0  0.709269  0.714458  0  2.509901  0
Zn  Zn1  1  0.10333983  0.88777312  0.89725140  1  0  0.906124  0  2.030011  0  0  0.740677  0  2.483177  0  0  0.777697  0  2.445569  0  0  0.709302  0.714513  0  2.509812  0
H  H2  1  0.86115586  0.07210630  0.38671123  1  0  0.086482  0  0.931926  0  0  0.094016  0  0.996492  0  0  0.096577  0  0.993893  0  0  0.120157  0.092364  0  0.997676  0
H  H3  1  0.13883959  0.92789167  0.61327913  1  0  0.086436  0  0.931932  0  0  0.09401  0  0.99645  0  0  0.096569  0  0.993854  0  0  0.120164  0.092353  0  0.997634  0
H  H4  1  0.08132314  0.28420768  0.91871294  1  0  0.074737  0  0.961355  0  0  0.081089  0  1.030393  0  0  0.082772  0  1.029106  0  0  0.116647  0.079334  0  1.032612  0
H  H5  1  0.91867244  0.71580217  0.08128313  1  0  0.074714  0  0.961552  0  0  0.08108  0  1.030545  0  0  0.082762  0  1.029259  0  0  0.116693  0.07933  0  1.032764  0
H  H6  1  0.32483840  0.55046801  0.97970440  1  0  0.102218  0  0.976832  0  0  0.110911  0  1.039618  0  0  0.11354  0  1.039758  0  0  0.103204  0.109248  0  1.039087  0
H  H7  1  0.67515213  0.44954911  0.02030465  1  0  0.102171  0  0.976914  0  0  0.110901  0  1.039647  0  0  0.113531  0  1.039786  0  0  0.103228  0.109242  0  1.03912  0
H  H8  1  0.01371302  0.23982274  0.65509268  1  0  0.107174  0  0.972998  0  0  0.113594  0  1.038704  0  0  0.116645  0  1.037883  0  0  0.103827  0.110678  0  1.040593  0
H  H9  1  0.98628838  0.76016674  0.34489979  1  0  0.107165  0  0.973078  0  0  0.113585  0  1.038778  0  0  0.116636  0  1.037956  0  0  0.103803  0.110671  0  1.040661  0
H  H10  1  0.44723939  0.72874453  0.68842135  1  0  0.112033  0  0.94636  0  0  0.11825  0  1.012829  0  0  0.120852  0  1.01257  0  0  0.104915  0.116253  0  1.013251  0
H  H11  1  0.55276462  0.27124133  0.31158380  1  0  0.112102  0  0.946162  0  0  0.118196  0  1.012822  0  0  0.120809  0  1.012532  0  0  0.104904  0.116212  0  1.013223  0
H  H12  1  0.52803946  0.81468939  0.50342896  1  0  0.104493  0  0.969175  0  0  0.11181  0  1.03584  0  0  0.114269  0  1.035233  0  0  0.103739  0.110021  0  1.036199  0
H  H13  1  0.47197070  0.18530582  0.49658113  1  0  0.104485  0  0.969064  0  0  0.11183  0  1.035691  0  0  0.114289  0  1.035085  0  0  0.103792  0.110047  0  1.036042  0
H  H14  1  0.25856291  0.51988533  0.74701666  1  0  0.100038  0  0.95828  0  0  0.108896  0  1.024479  0  0  0.111738  0  1.022384  0  0  0.104968  0.106535  0  1.026431  0
H  H15  1  0.74144342  0.48010522  0.25298270  1  0  0.100006  0  0.958333  0  0  0.108852  0  1.024546  0  0  0.111694  0  1.022453  0  0  0.104959  0.106495  0  1.0265  0
H  H16  1  0.49052280  0.74787573  0.24001504  1  0  0.106346  0  0.944162  0  0  0.114892  0  1.007747  0  0  0.117283  0  1.006561  0  0  0.110009  0.112824  0  1.009685  0
H  H17  1  0.50947624  0.25212928  0.75999442  1  0  0.106371  0  0.944116  0  0  0.114967  0  1.007644  0  0  0.117348  0  1.00647  0  0  0.110056  0.112895  0  1.009584  0
C  C18  1  0.97181211  0.19108903  0.43103426  1  0  0.156933  0  3.672489  0  0  0.123068  0  3.926637  0  0  0.131664  0  3.943326  0  0  0.06313  0.117299  0  3.914333  0
C  C19  1  0.02818191  0.80890897  0.56895874  1  0  0.157114  0  3.672211  0  0  0.12323  0  3.92635  0  0  0.131825  0  3.943043  0  0  0.06324  0.117463  0  3.914045  0
C  C20  1  0.15497499  0.37257299  0.03108052  1  0  0.154535  0  3.686101  0  0  0.120999  0  3.94035  0  0  0.12923  0  3.957444  0  0  0.055972  0.115025  0  3.930408  0
C  C21  1  0.84502206  0.62743683  0.96892248  1  0  0.154644  0  3.686211  0  0  0.121089  0  3.940477  0  0  0.12932  0  3.957578  0  0  0.05593  0.115109  0  3.930538  0
C  C22  1  0.14880281  0.38835398  0.38093101  1  0  0.126433  0  3.761634  0  0  0.119952  0  3.995825  0  0  0.124146  0  4.017594  0  0  0.115993  0.116602  0  3.98169  0
C  C23  1  0.85119012  0.61164763  0.61906774  1  0  0.126398  0  3.761725  0  0  0.119896  0  3.99594  0  0  0.124093  0  4.017711  0  0  0.115959  0.11655  0  3.981802  0
C  C24  1  0.19747313  0.43704248  0.27365083  1  0  0.131236  0  3.745344  0  0  0.125013  0  3.97868  0  0  0.129303  0  3.999776  0  0  0.117261  0.121975  0  3.965281  0
C  C25  1  0.80253243  0.56295522  0.72635163  1  0  0.131369  0  3.745344  0  0  0.125162  0  3.978598  0  0  0.129449  0  3.999698  0  0  0.117344  0.122124  0  3.965193  0
C  C26  1  0.29312653  0.52158121  0.06600105  1  0  -0.123841  0  3.732748  0  0  -0.137284  0  3.988247  0  0  -0.144678  0  4.010276  0  0  -0.088188  -0.131503  0  3.973262  0
C  C27  1  0.70686936  0.47842627  0.93400485  1  0  -0.123861  0  3.732645  0  0  -0.137359  0  3.988204  0  0  -0.144753  0  4.01023  0  0  -0.08824  -0.131586  0  3.973227  0
C  C28  1  0.05922027  0.28708188  0.58196769  1  0  -0.118859  0  3.72276  0  0  -0.129876  0  3.974809  0  0  -0.137603  0  3.996929  0  0  -0.082394  -0.12451  0  3.960221  0
C  C29  1  0.94077113  0.71291382  0.41802511  1  0  -0.119009  0  3.723022  0  0  -0.130033  0  3.975069  0  0  -0.137761  0  3.997192  0  0  -0.082441  -0.124666  0  3.960485  0
C  C30  1  0.33702789  0.59075580  0.31918093  1  0  0.025061  0  3.793151  0  0  0.041523  0  4.023609  0  0  0.038893  0  4.048484  0  0  -0.000318  0.043974  0  4.006839  0
C  C31  1  0.66298205  0.40924773  0.68082505  1  0  0.02509  0  3.793722  0  0  0.0416  0  4.024064  0  0  0.038974  0  4.048938  0  0  -0.000283  0.044048  0  4.007293  0
C  C32  1  0.24226817  0.49397281  0.53061092  1  0  0.023084  0  3.793858  0  0  0.039549  0  4.024471  0  0  0.037133  0  4.048637  0  0  -0.002073  0.040526  0  4.008174  0
C  C33  1  0.75772733  0.50602517  0.46939285  1  0  0.023034  0  3.793782  0  0  0.039518  0  4.024358  0  0  0.037099  0  4.048524  0  0  -0.002022  0.040492  0  4.008067  0
C  C34  1  0.38012388  0.64889559  0.57271555  1  0  -0.091759  0  3.707874  0  0  -0.114397  0  3.965256  0  0  -0.117103  0  3.987826  0  0  -0.082227  -0.112156  0  3.949731  0
C  C35  1  0.61986954  0.35109532  0.42728946  1  0  -0.091715  0  3.70774  0  0  -0.114309  0  3.965145  0  0  -0.117007  0  3.98772  0  0  -0.082246  -0.112071  0  3.949632  0
C  C36  1  0.42471544  0.69583821  0.47060373  1  0  -0.091353  0  3.721472  0  0  -0.114843  0  3.975893  0  0  -0.118925  0  4.000267  0  0  -0.082026  -0.112205  0  3.959096  0
C  C37  1  0.57528759  0.30416314  0.52940713  1  0  -0.09148  0  3.721871  0  0  -0.114977  0  3.976225  0  0  -0.119063  0  4.000599  0  0  -0.082122  -0.112338  0  3.959427  0
C  C38  1  0.19214822  0.43903028  0.63157609  1  0  -0.040489  0  3.673657  0  0  -0.066937  0  3.924637  0  0  -0.063909  0  3.942216  0  0  -0.063868  -0.068777  0  3.912972  0
C  C39  1  0.80784811  0.56096648  0.36842265  1  0  -0.040405  0  3.673812  0  0  -0.066844  0  3.924784  0  0  -0.063816  0  3.942365  0  0  -0.063863  -0.068691  0  3.913129  0
C  C40  1  0.38361582  0.63118892  0.20981469  1  0  -0.036692  0  3.678805  0  0  -0.062982  0  3.930383  0  0  -0.060627  0  3.949091  0  0  -0.059716  -0.06549  0  3.919373  0
C  C41  1  0.61637920  0.36881976  0.79018475  1  0  -0.03672  0  3.678972  0  0  -0.063071  0  3.930531  0  0  -0.060709  0  3.949246  0  0  -0.059765  -0.065575  0  3.919517  0
N  N42  1  0.84070141  0.98555551  0.87995713  1  0  -0.582354  0  2.800553  0  0  -0.546042  0  3.119726  0  0  -0.569105  0  3.125808  0  0  -0.309859  -0.528745  0  3.114646  0
N  N43  1  0.15930935  0.01444681  0.12004190  1  0  -0.582377  0  2.800521  0  0  -0.546057  0  3.119682  0  0  -0.569115  0  3.125748  0  0  -0.309848  -0.528759  0  3.114605  0
N  N44  1  0.10828156  0.33162956  0.13187338  1  0  -0.3297  0  3.274999  0  0  -0.258384  0  3.535513  0  0  -0.275321  0  3.552724  0  0  -0.313844  -0.247986  0  3.525798  0
N  N45  1  0.89172177  0.66837534  0.86813101  1  0  -0.329815  0  3.274987  0  0  -0.258507  0  3.535516  0  0  -0.275448  0  3.552726  0  0  -0.313866  -0.248107  0  3.525797  0
N  N46  1  0.63931695  0.20948169  0.06719503  1  0  -0.485701  0  2.596509  0  0  -0.473061  0  2.876143  0  0  -0.486101  0  2.882776  0  0  -0.246101  -0.463217  0  2.871124  0
N  N47  1  0.36069518  0.79051464  0.93280137  1  0  -0.485647  0  2.597033  0  0  -0.473104  0  2.876666  0  0  -0.486133  0  2.883286  0  0  -0.246186  -0.463268  0  2.87165  0
N  N48  1  0.01443517  0.24073880  0.33378632  1  0  -0.33399  0  3.286553  0  0  -0.262476  0  3.550357  0  0  -0.280247  0  3.567833  0  0  -0.316945  -0.24973  0  3.538215  0
N  N49  1  0.98555199  0.75926296  0.66620963  1  0  -0.333985  0  3.286328  0  0  -0.2625  0  3.550212  0  0  -0.280261  0  3.567659  0  0  -0.316987  -0.249739  0  3.538027  0
N  N50  1  0.47315486  0.14361024  0.97422482  1  0  0.405  0  4.230681  0  0  0.440737  0  4.511825  0  0  0.456485  0  4.540966  0  0  0.083803  0.430099  0  4.491679  0
N  N51  1  0.52683620  0.85638190  0.02576393  1  0  0.404961  0  4.230983  0  0  0.440803  0  4.511993  0  0  0.456552  0  4.541128  0  0  0.083948  0.430162  0  4.491848  0
N  N52  1  0.30578424  0.08155996  0.88152264  1  0  -0.500288  0  2.607034  0  0  -0.486189  0  2.890329  0  0  -0.502028  0  2.897489  0  0  -0.262693  -0.475071  0  2.885818  0
N  N53  1  0.69422653  0.91844235  0.11847735  1  0  -0.500305  0  2.606806  0  0  -0.486231  0  2.890007  0  0  -0.502087  0  2.897187  0  0  -0.262753  -0.475101  0  2.88549  0
N  N54  1  0.79369361  0.02823262  0.78476311  1  0  0.403528  0  4.202519  0  0  0.435424  0  4.489068  0  0  0.451132  0  4.51666  0  0  0.085179  0.424863  0  4.468411  0
N  N55  1  0.20631624  0.97176496  0.21523619  1  0  0.403519  0  4.202131  0  0  0.43541  0  4.488692  0  0  0.451119  0  4.516286  0  0  0.085155  0.424849  0  4.468038  0
N  N56  1  0.74868726  0.06617194  0.69004069  1  0  -0.390365  0  2.398438  0  0  -0.387834  0  2.624475  0  0  -0.393623  0  2.633505  0  0  -0.187837  -0.382661  0  2.617951  0
N  N57  1  0.25132085  0.93382213  0.30996199  1  0  -0.390388  0  2.39804  0  0  -0.387847  0  2.624072  0  0  -0.393637  0  2.633103  0  0  -0.187839  -0.38268  0  2.617555  0
