# generated using pymatgen
data_Zn4H16C48N4O37
_symmetry_space_group_name_H-M   'P 1'
_cell_length_a   23.69448468
_cell_length_b   23.69614497
_cell_length_c   23.69398070
_cell_angle_alpha   65.89858428
_cell_angle_beta   72.79927636
_cell_angle_gamma   107.21098875
_symmetry_Int_Tables_number   1
_chemical_formula_structural   Zn4H16C48N4O37
_chemical_formula_sum   'Zn8 H32 C96 N8 O74'
_cell_volume   10190.64874358
_cell_formula_units_Z   2
loop_
 _symmetry_equiv_pos_site_id
 _symmetry_equiv_pos_as_xyz
  1  'x, y, z'
loop_
 _atom_site_type_symbol
 _atom_site_label
 _atom_site_symmetry_multiplicity
 _atom_site_fract_x
 _atom_site_fract_y
 _atom_site_fract_z
 _atom_site_occupancy
 _atom_site_pbe_bader_charge
 _atom_site_pbe_bader_spin_density
 _atom_site_pbe_cm5_charge
 _atom_site_pbe_ddec_charge
 _atom_site_pbe_ddec_spin_density
 _atom_site_pbe_ddec_sum_bond_order
 _atom_site_pbe_magmom
Zn  Zn0  1  0.05580913  0.95546576  0.48470742  1  1.322014  0  0.685291  0.976041  0  2.345899  0
Zn  Zn1  1  0.05580649  0.10035459  0.45948407  1  1.32327  0  0.685336  0.976001  0  2.34595  0
Zn  Zn2  1  0.94417788  0.98470462  0.45545779  1  1.321779  0  0.685333  0.976162  0  2.345758  0
Zn  Zn3  1  0.94419234  0.95947429  0.60036437  1  1.323189  0  0.685318  0.97599  0  2.345897  0
Zn  Zn4  1  0.94016130  0.54051485  0.01529155  1  1.32285  0  0.685294  0.975992  0  2.345983  0
Zn  Zn5  1  0.05983920  0.51529244  0.04051878  1  1.322781  0  0.68532  0.976065  0  2.34599  0
Zn  Zn6  1  0.94015630  0.39964132  0.04455052  1  1.319908  0  0.685327  0.975983  0  2.346065  0
Zn  Zn7  1  0.05982479  0.54453665  0.89964404  1  1.320202  0  0.685314  0.976055  0  2.345878  0
H  H8  1  0.92169689  0.64958071  0.11201866  1  0.141821  0  0.127053  0.141128  0  0.971756  0
H  H9  1  0.07830254  0.61200415  0.14963953  1  0.141566  0  0.127055  0.141279  0  0.971569  0
H  H10  1  0.92499339  0.88952395  0.34359526  1  0.152153  0  0.126301  0.140044  0  0.969288  0
H  H11  1  0.07497731  0.84359452  0.38955673  1  0.15178  0  0.126323  0.140073  0  0.96935  0
H  H12  1  0.07832160  0.46625759  0.77211954  1  0.165791  0  0.12709  0.141355  0  0.97146  0
H  H13  1  0.92170451  0.27206409  0.96630697  1  0.166639  0  0.127036  0.141131  0  0.971739  0
H  H14  1  0.07498327  0.23139174  0.53547081  1  0.116786  0  0.126324  0.140062  0  0.969427  0
H  H15  1  0.92499359  0.03547674  0.73138452  1  0.116972  0  0.12622  0.139943  0  0.969369  0
H  H16  1  0.73313217  0.46452383  0.11047010  1  0.153738  0  0.126302  0.143643  0  0.965187  0
H  H17  1  0.73313188  0.26861244  0.15639263  1  0.151171  0  0.126323  0.143689  0  0.965208  0
H  H18  1  0.26162154  0.22792368  0.35035554  1  0.158843  0  0.127056  0.144894  0  0.967419  0
H  H19  1  0.26161714  0.03373462  0.38792963  1  0.119803  0  0.127123  0.145069  0  0.967376  0
H  H20  1  0.26687112  0.61045580  0.96453223  1  0.153591  0  0.126251  0.143638  0  0.965196  0
H  H21  1  0.26685349  0.65639079  0.76860721  1  0.150569  0  0.126295  0.143654  0  0.96511  0
H  H22  1  0.73838313  0.85035274  0.72793229  1  0.158631  0  0.12703  0.144781  0  0.967481  0
H  H23  1  0.73836164  0.88793912  0.53373399  1  0.119241  0  0.127033  0.144859  0  0.967242  0
H  H24  1  0.12055918  0.77802546  0.17399063  1  0.612019  0  0.327784  0.359646  0  0.895935  0
H  H25  1  0.87941247  0.67393926  0.27804033  1  0.612018  0  0.327813  0.359491  0  0.896106  0
H  H26  1  0.01174220  0.68405026  0.35893979  1  0.606832  0  0.328044  0.358704  0  0.896449  0
H  H27  1  0.98823201  0.85890539  0.18405954  1  0.606433  0  0.328072  0.358824  0  0.896475  0
H  H28  1  0.87942061  0.20545468  0.84254529  1  0.602467  0  0.327782  0.359528  0  0.896124  0
H  H29  1  0.12057150  0.34249064  0.70550146  1  0.603269  0  0.327726  0.359369  0  0.896044  0
H  H30  1  0.98823023  0.12931394  0.82770302  1  0.606853  0  0.32802  0.358574  0  0.896592  0
H  H31  1  0.01175252  0.32769659  0.62932993  1  0.606434  0  0.328103  0.358754  0  0.896579  0
H  H32  1  0.54296729  0.17229850  0.31593107  1  0.599644  0  0.328058  0.35923  0  0.89667  0
H  H33  1  0.54297595  0.37067806  0.14106903  1  0.607005  0  0.328066  0.358748  0  0.89641  0
H  H34  1  0.45200102  0.15750322  0.22190770  1  0.585389  0  0.327791  0.359342  0  0.896074  0
H  H35  1  0.45199899  0.29453455  0.32602010  1  0.596405  0  0.327736  0.360029  0  0.896129  0
H  H36  1  0.45701440  0.81592783  0.67229603  1  0.59979  0  0.328033  0.359148  0  0.896678  0
H  H37  1  0.45702439  0.64106734  0.87067747  1  0.607495  0  0.328063  0.358689  0  0.896384  0
H  H38  1  0.54798715  0.72193044  0.65748247  1  0.585737  0  0.327718  0.359356  0  0.896164  0
H  H39  1  0.54801002  0.82600980  0.79455121  1  0.596995  0  0.327834  0.359905  0  0.896162  0
C  C40  1  0.17863605  0.08933683  0.41065108  1  1.497204  0  0.236173  0.608652  0  4.151731  0
C  C41  1  0.99998082  0.13621486  0.36377871  1  1.655194  0  0.234338  0.613985  0  4.171955  0
C  C42  1  0.99999471  0.90798079  0.40797371  1  1.529053  0  0.234186  0.607461  0  4.159681  0
C  C43  1  0.82135856  0.91064576  0.58933891  1  1.497821  0  0.236025  0.608567  0  4.151778  0
C  C44  1  0.00002115  0.86378869  0.63622134  1  1.655825  0  0.234392  0.614123  0  4.171729  0
C  C45  1  0.99999982  0.09202501  0.59202208  1  1.532083  0  0.234077  0.6073  0  4.159877  0
C  C46  1  0.00000519  0.58930839  0.08932987  1  1.51438  0  0.236203  0.608523  0  4.152117  0
C  C47  1  0.00000157  0.36378096  0.13623197  1  1.656058  0  0.234352  0.614019  0  4.171895  0
C  C48  1  0.81594844  0.40797377  0.09202638  1  1.515162  0  0.234072  0.607212  0  4.159856  0
C  C49  1  0.00000055  0.41065587  0.91070266  1  1.553856  0  0.236241  0.608647  0  4.151991  0
C  C50  1  0.99999005  0.63621742  0.86377663  1  1.659902  0  0.234182  0.613984  0  4.171557  0
C  C51  1  0.18404600  0.59202329  0.90797346  1  1.514401  0  0.234224  0.607407  0  4.159097  0
C  C52  1  0.00001208  0.80528152  0.69472173  1  0.078267  0  0.01645  -0.079644  0  3.880338  0
C  C53  1  0.99999423  0.69472076  0.80527545  1  0.08708  0  0.016413  -0.079674  0  3.880053  0
C  C54  1  0.95659192  0.77614690  0.76555826  1  0.272885  0  0.10428  0.036872  0  3.872586  0
C  C55  1  0.04170441  0.72214751  0.73443749  1  0.260762  0  0.104301  0.036806  0  3.872856  0
C  C56  1  0.95829176  0.72385444  0.81955496  1  0.261228  0  0.104284  0.036712  0  3.872779  0
C  C57  1  0.04342002  0.77785332  0.68044300  1  0.259275  0  0.104279  0.036578  0  3.87315  0
C  C58  1  0.99999670  0.19471892  0.30526867  1  0.077544  0  0.016483  -0.079508  0  3.880117  0
C  C59  1  0.00000884  0.30527866  0.19472044  1  0.086864  0  0.016478  -0.079422  0  3.880039  0
C  C60  1  0.95658542  0.18044750  0.27783247  1  0.260567  0  0.1042  0.03643  0  3.872913  0
C  C61  1  0.04171264  0.31954870  0.22386418  1  0.261996  0  0.104206  0.036427  0  3.8729  0
C  C62  1  0.95829854  0.23444682  0.22212902  1  0.259842  0  0.104378  0.036819  0  3.872513  0
C  C63  1  0.04341642  0.26554989  0.27614909  1  0.272339  0  0.104273  0.036788  0  3.872594  0
C  C64  1  0.99999754  0.62684181  0.12688586  1  0.069042  0  -0.004464  -0.020655  0  3.956551  0
C  C65  1  0.95556200  0.65435374  0.13448682  1  -0.009316  0  -0.056068  -0.077628  0  3.899903  0
C  C66  1  0.95310026  0.68694659  0.17192480  1  -0.008766  0  -0.002018  -0.083599  0  3.936175  0
C  C67  1  0.99999535  0.69759197  0.19761811  1  0.113733  0  0.003295  0.075247  0  4.091015  0
C  C68  1  0.04689218  0.67190554  0.18698822  1  -0.008317  0  -0.001953  -0.083429  0  3.93599  0
C  C69  1  0.04443522  0.63446382  0.15439655  1  -0.011522  0  -0.056157  -0.078044  0  3.900799  0
C  C70  1  0.99998739  0.73325394  0.23328945  1  -0.335165  0  -0.041355  -0.12673  0  4.176549  0
C  C71  1  0.99998662  0.76407466  0.26409752  1  -0.192894  0  -0.040187  -0.123859  0  4.175281  0
C  C72  1  0.99998362  0.79973375  0.29976221  1  0.132085  0  0.003632  0.07653  0  4.096263  0
C  C73  1  0.95961496  0.83373475  0.30209073  1  0.015461  0  -0.003402  -0.086338  0  3.940575  0
C  C74  1  0.95823322  0.86628179  0.33956866  1  -0.045828  0  -0.055222  -0.077345  0  3.901664  0
C  C75  1  0.99998583  0.87045695  0.37046937  1  0.076257  0  -0.005679  -0.021969  0  3.960734  0
C  C76  1  0.04173170  0.83955531  0.36631595  1  -0.044782  0  -0.055301  -0.077492  0  3.901692  0
C  C77  1  0.04034930  0.80207120  0.33377503  1  0.014595  0  -0.003366  -0.086171  0  3.94028  0
C  C78  1  0.00001313  0.37310431  0.87316379  1  0.173339  0  -0.004565  -0.02099  0  3.956746  0
C  C79  1  0.04444842  0.40993019  0.80121400  1  -0.090006  0  -0.056123  -0.07808  0  3.899761  0
C  C80  1  0.04690755  0.37495166  0.76616561  1  -0.038705  0  -0.001918  -0.082579  0  3.935395  0
C  C81  1  0.00000567  0.30237518  0.80240825  1  0.199272  0  0.003343  0.074419  0  4.091095  0
C  C82  1  0.95310612  0.26611603  0.87499430  1  -0.037396  0  -0.001941  -0.082256  0  3.934292  0
C  C83  1  0.95557123  0.30116805  0.90998114  1  -0.092374  0  -0.056139  -0.078209  0  3.90063  0
C  C84  1  0.99999636  0.26670872  0.76674294  1  -0.33669  0  -0.041311  -0.126697  0  4.177368  0
C  C85  1  0.99999331  0.23590693  0.73591827  1  -0.188157  0  -0.040211  -0.123959  0  4.175841  0
C  C86  1  0.99998706  0.20024913  0.70025034  1  0.110292  0  0.003524  0.075391  0  4.095612  0
C  C87  1  0.04035467  0.23828206  0.62587832  1  0.028675  0  -0.003334  -0.084548  0  3.93822  0
C  C88  1  0.04173663  0.20218347  0.59195455  1  0.007432  0  -0.055295  -0.07801  0  3.901543  0
C  C89  1  0.99999047  0.12953951  0.62953393  1  0.039356  0  -0.005747  -0.021979  0  3.960972  0
C  C90  1  0.95823538  0.09195670  0.70218114  1  0.006199  0  -0.055078  -0.07775  0  3.901185  0
C  C91  1  0.95961465  0.12588167  0.73828027  1  0.028936  0  -0.003317  -0.0847  0  3.938553  0
C  C92  1  0.74092264  0.37046191  0.12954116  1  0.088158  0  -0.005766  -0.022277  0  3.96278  0
C  C93  1  0.70585800  0.40804186  0.13370937  1  -0.061709  0  -0.055216  -0.080819  0  3.901133  0
C  C94  1  0.63583400  0.37411758  0.16625006  1  0.032012  0  -0.003293  -0.084798  0  3.939287  0
C  C95  1  0.59949327  0.29974742  0.20025055  1  0.146119  0  0.003526  0.075462  0  4.095502  0
C  C96  1  0.63583395  0.26171955  0.19791184  1  0.043828  0  -0.003264  -0.084833  0  3.939455  0
C  C97  1  0.70585891  0.29781877  0.16043227  1  -0.06386  0  -0.055253  -0.080855  0  3.901217  0
C  C98  1  0.52816730  0.26408317  0.23590990  1  -0.240186  0  -0.040286  -0.124039  0  4.175988  0
C  C99  1  0.46654163  0.23328504  0.26670467  1  -0.309535  0  -0.04117  -0.126412  0  4.17684  0
C  C100  1  0.39520787  0.19762036  0.30236400  1  0.12797  0  0.003191  0.074471  0  4.090444  0
C  C101  1  0.35888329  0.23387777  0.31300444  1  -0.010994  0  -0.002059  -0.082658  0  3.935667  0
C  C102  1  0.28884602  0.19882276  0.34559206  1  -0.035318  0  -0.056  -0.081157  0  3.900506  0
C  C103  1  0.25372508  0.12688602  0.37308636  1  0.08336  0  -0.004624  -0.021229  0  3.958639  0
C  C104  1  0.28884670  0.09006283  0.36547540  1  0.067208  0  -0.05611  -0.081207  0  3.899841  0
C  C105  1  0.35887551  0.12504481  0.32803602  1  -0.056755  0  -0.001954  -0.082872  0  3.936032  0
C  C106  1  0.25907241  0.62953153  0.87046418  1  0.08892  0  -0.005773  -0.022237  0  3.96251  0
C  C107  1  0.29414259  0.63369519  0.90804742  1  -0.09471  0  -0.055256  -0.081021  0  3.901407  0
C  C108  1  0.36416614  0.66623807  0.87412231  1  0.064456  0  -0.003301  -0.084692  0  3.939289  0
C  C109  1  0.40049982  0.70024356  0.79975046  1  0.14739  0  0.003568  0.075531  0  4.095303  0
C  C110  1  0.36415608  0.69790497  0.76171690  1  0.043308  0  -0.00335  -0.084766  0  3.939398  0
C  C111  1  0.29413131  0.66042548  0.79781563  1  -0.063296  0  -0.055184  -0.080837  0  3.900939  0
C  C112  1  0.47182471  0.73590622  0.76408869  1  -0.240669  0  -0.040271  -0.124013  0  4.175967  0
C  C113  1  0.53345129  0.76671000  0.73329137  1  -0.309409  0  -0.041213  -0.12652  0  4.177071  0
C  C114  1  0.60478474  0.80237128  0.69762506  1  0.128068  0  0.003324  0.07466  0  4.090462  0
C  C115  1  0.64111737  0.81300653  0.73388551  1  -0.011424  0  -0.002047  -0.082645  0  3.935647  0
C  C116  1  0.71115371  0.84559198  0.69882903  1  -0.0351  0  -0.055963  -0.080934  0  3.900588  0
C  C117  1  0.74626622  0.87308812  0.62688860  1  0.084272  0  -0.004648  -0.021505  0  3.959011  0
C  C118  1  0.71113648  0.86548461  0.59006421  1  0.067291  0  -0.05602  -0.080801  0  3.899897  0
C  C119  1  0.64110809  0.82804960  0.62504373  1  -0.056774  0  -0.001953  -0.082776  0  3.936117  0
C  C120  1  0.10001918  0.68103781  0.21010057  1  1.559928  0  0.230609  0.562942  0  4.129998  0
C  C121  1  0.89997361  0.71005367  0.18103790  1  1.555605  0  0.230701  0.562856  0  4.130322  0
C  C122  1  0.08452723  0.76751356  0.33609294  1  1.536913  0  0.23136  0.564364  0  4.135632  0
C  C123  1  0.91544437  0.83605095  0.26751976  1  1.535738  0  0.230998  0.564005  0  4.135864  0
C  C124  1  0.89997608  0.18988801  0.91899347  1  1.550514  0  0.230542  0.562525  0  4.130035  0
C  C125  1  0.10004136  0.41894607  0.68993493  1  1.546928  0  0.231091  0.563615  0  4.12898  0
C  C126  1  0.91544227  0.07938969  0.81701502  1  1.543823  0  0.230989  0.563675  0  4.135721  0
C  C127  1  0.08452893  0.31701528  0.57939058  1  1.54257  0  0.231384  0.564104  0  4.135197  0
C  C128  1  0.60358958  0.18298860  0.23246705  1  1.540419  0  0.231078  0.563928  0  4.135665  0
C  C129  1  0.60359162  0.42060929  0.16392922  1  1.529231  0  0.231383  0.564085  0  4.135327  0
C  C130  1  0.39111253  0.08105183  0.31890144  1  1.55973  0  0.231098  0.563662  0  4.128774  0
C  C131  1  0.39111129  0.31010189  0.28991229  1  1.566037  0  0.230588  0.562598  0  4.130291  0
C  C132  1  0.39639646  0.73246067  0.68298153  1  1.53991  0  0.230774  0.563235  0  4.136109  0
C  C133  1  0.39641882  0.66391906  0.92061358  1  1.529946  0  0.231225  0.563897  0  4.135262  0
C  C134  1  0.60886458  0.81892461  0.58104501  1  1.556643  0  0.230719  0.562746  0  4.129576  0
C  C135  1  0.60889809  0.78990730  0.81011637  1  1.565835  0  0.230538  0.562455  0  4.130413  0
N  N136  1  0.90643971  0.79981888  0.78512162  1  0.464185  0  0.061435  0.505259  0  4.273043  0
N  N137  1  0.08494020  0.69155854  0.71487331  1  0.43528  0  0.061403  0.50533  0  4.27264  0
N  N138  1  0.91504565  0.70017627  0.89338208  1  0.456371  0  0.06148  0.505361  0  4.272765  0
N  N139  1  0.09357879  0.80844522  0.60661787  1  0.470113  0  0.06152  0.505694  0  4.273053  0
N  N140  1  0.90642061  0.10662724  0.30841092  1  0.469701  0  0.0615  0.505632  0  4.272618  0
N  N141  1  0.08494708  0.39336744  0.20021268  1  0.459089  0  0.061623  0.505603  0  4.272457  0
N  N142  1  0.91506125  0.21489141  0.19153022  1  0.435796  0  0.06123  0.505281  0  4.272735  0
N  N143  1  0.09356796  0.28510743  0.29983353  1  0.463921  0  0.061384  0.505314  0  4.272868  0
O  O144  1  0.99999073  0.99999936  0.50000778  1  -1.23494  0  -0.575047  -1.044947  0  2.544099  0
O  O145  1  0.14991098  0.02224874  0.44399442  1  -1.153852  0  -0.307357  -0.535882  0  2.337703  0
O  O146  1  0.01963604  0.15122571  0.40249893  1  -1.15265  0  -0.296712  -0.520764  0  2.338384  0
O  O147  1  0.95333602  0.92475379  0.42010693  1  -1.163579  0  -0.307308  -0.534453  0  2.328017  0
O  O148  1  0.14990386  0.12769356  0.40606029  1  -1.153286  0  -0.307034  -0.53549  0  2.337667  0
O  O149  1  0.04665846  0.92012710  0.42474248  1  -1.16336  0  -0.307152  -0.534285  0  2.328589  0
O  O150  1  0.98031547  0.07784278  0.36842020  1  -1.150408  0  -0.296912  -0.52094  0  2.338467  0
O  O151  1  0.85007789  0.94398985  0.52224637  1  -1.15383  0  -0.30727  -0.53588  0  2.337393  0
O  O152  1  0.98036691  0.90249731  0.65123757  1  -1.15254  0  -0.296847  -0.52087  0  2.338407  0
O  O153  1  0.85009314  0.90604639  0.62769521  1  -1.153716  0  -0.306954  -0.535346  0  2.338091  0
O  O154  1  0.01967522  0.86842940  0.57784618  1  -1.151044  0  -0.296822  -0.520941  0  2.338056  0
O  O155  1  0.04666787  0.12654244  0.52859453  1  -1.166738  0  -0.307184  -0.534273  0  2.32831  0
O  O156  1  0.95334283  0.02859778  0.62653750  1  -1.167136  0  -0.30713  -0.534298  0  2.328711  0
O  O157  1  0.99999273  0.49999439  0.99999914  1  -1.233856  0  -0.575046  -1.044924  0  2.544202  0
O  O158  1  0.96625276  0.59391616  0.05599014  1  -1.157589  0  -0.307302  -0.535403  0  2.337252  0
O  O159  1  0.05373895  0.42215395  0.09751794  1  -1.152568  0  -0.296951  -0.521037  0  2.338004  0
O  O160  1  0.84485838  0.37345941  0.07987874  1  -1.161987  0  -0.307154  -0.534578  0  2.329148  0
O  O161  1  0.03376889  0.55597998  0.09392980  1  -1.154721  0  -0.307136  -0.535268  0  2.336925  0
O  O162  1  0.84486105  0.47140248  0.07526025  1  -1.166437  0  -0.307175  -0.534576  0  2.329075  0
O  O163  1  0.94627535  0.34877175  0.13159223  1  -1.14972  0  -0.296711  -0.520696  0  2.338718  0
O  O164  1  0.96624441  0.37229937  0.97779214  1  -1.175609  0  -0.307053  -0.535178  0  2.337362  0
O  O165  1  0.05371588  0.63157217  0.84876125  1  -1.149861  0  -0.296647  -0.520809  0  2.338491  0
O  O166  1  0.03373897  0.47774393  0.87233768  1  -1.173852  0  -0.307338  -0.53547  0  2.336891  0
O  O167  1  0.94626198  0.59751046  0.92214521  1  -1.156474  0  -0.296788  -0.520825  0  2.338123  0
O  O168  1  0.15513575  0.57525562  0.97140860  1  -1.166123  0  -0.307262  -0.534711  0  2.328636  0
O  O169  1  0.15513010  0.57987983  0.87345694  1  -1.161911  0  -0.307226  -0.534645  0  2.328879  0
O  O170  1  0.86011653  0.78380645  0.77156038  1  -0.397472  0  -0.099194  -0.278665  0  1.882128  0
O  O171  1  0.91550661  0.83165013  0.81440604  1  -0.403315  0  -0.096653  -0.272402  0  1.863561  0
O  O172  1  0.05536976  0.63168814  0.72841210  1  -0.389624  0  -0.099219  -0.278736  0  1.881999  0
O  O173  1  0.14605491  0.72989759  0.68561004  1  -0.392202  0  -0.096616  -0.272394  0  1.863396  0
O  O174  1  0.94460689  0.71619100  0.92370092  1  -0.399009  0  -0.099129  -0.278678  0  1.881839  0
O  O175  1  0.85393356  0.66833812  0.91613733  1  -0.393001  0  -0.096729  -0.272448  0  1.863472  0
O  O176  1  0.13990718  0.86831516  0.57631897  1  -0.406755  0  -0.099166  -0.278718  0  1.882339  0
O  O177  1  0.08450694  0.77010338  0.58384353  1  -0.405825  0  -0.096717  -0.272624  0  1.863425  0
O  O178  1  0.86009114  0.07631869  0.36828273  1  -0.405779  0  -0.099008  -0.278668  0  1.881721  0
O  O179  1  0.91549203  0.08386465  0.27005955  1  -0.406354  0  -0.096874  -0.272621  0  1.863654  0
O  O180  1  0.05537935  0.42367083  0.21623400  1  -0.402187  0  -0.099133  -0.278684  0  1.881825  0
O  O181  1  0.14606366  0.41613511  0.16838220  1  -0.392632  0  -0.096839  -0.272589  0  1.863427  0
O  O182  1  0.94462866  0.22845102  0.13165032  1  -0.389715  0  -0.099101  -0.278695  0  1.882199  0
O  O183  1  0.85394604  0.18561048  0.22987503  1  -0.392321  0  -0.096584  -0.272395  0  1.863259  0
O  O184  1  0.13988971  0.27155280  0.28382320  1  -0.39811  0  -0.099277  -0.278763  0  1.882229  0
O  O185  1  0.08449896  0.31438073  0.33167384  1  -0.402459  0  -0.096486  -0.272273  0  1.863389  0
O  O186  1  0.13687033  0.74613966  0.19550412  1  -1.095045  0  -0.326077  -0.44962  0  2.226353  0
O  O187  1  0.11173655  0.63335880  0.23775071  1  -1.084867  0  -0.2605  -0.411804  0  2.022934  0
O  O188  1  0.86312121  0.69546791  0.24613622  1  -1.094518  0  -0.326042  -0.449241  0  2.226629  0
O  O189  1  0.88827101  0.73770191  0.13334545  1  -1.081481  0  -0.260506  -0.411818  0  2.022864  0
O  O190  1  0.05721050  0.69988209  0.35335877  1  -1.087879  0  -0.324837  -0.446782  0  2.228443  0
O  O191  1  0.14116474  0.79750221  0.32605629  1  -1.078892  0  -0.261405  -0.413323  0  2.027812  0
O  O192  1  0.94275976  0.85330890  0.19988883  1  -1.087885  0  -0.324769  -0.446788  0  2.228379  0
O  O193  1  0.85880191  0.82600579  0.29750424  1  -1.078636  0  -0.26126  -0.41318  0  2.027697  0
O  O194  1  0.86312082  0.16763094  0.89073936  1  -1.092417  0  -0.326038  -0.449413  0  2.22662  0
O  O195  1  0.88826129  0.15052977  0.97838803  1  -1.080022  0  -0.260484  -0.411813  0  2.023323  0
O  O196  1  0.13687320  0.39068347  0.66767824  1  -1.089667  0  -0.326143  -0.449484  0  2.226391  0
O  O197  1  0.11175998  0.47834108  0.65058020  1  -1.079575  0  -0.260762  -0.412433  0  2.022731  0
O  O198  1  0.94276018  0.08943591  0.85733700  1  -1.086885  0  -0.324679  -0.446537  0  2.228815  0
O  O199  1  0.85879917  0.03279739  0.84366126  1  -1.089076  0  -0.261271  -0.413287  0  2.027954  0
O  O200  1  0.05722015  0.35733240  0.58944729  1  -1.085531  0  -0.325012  -0.446987  0  2.228613  0
O  O201  1  0.14116591  0.34367045  0.53278502  1  -1.088521  0  -0.261378  -0.413452  0  2.027668  0
O  O202  1  0.55321285  0.14266709  0.30009508  1  -1.093896  0  -0.324819  -0.447564  0  2.228848  0
O  O203  1  0.62353913  0.15634065  0.20247961  1  -1.076835  0  -0.261321  -0.41348  0  2.028103  0
O  O204  1  0.55322029  0.41055649  0.14666060  1  -1.086131  0  -0.324901  -0.446908  0  2.228265  0
O  O205  1  0.62354028  0.46720142  0.17397219  1  -1.079046  0  -0.261446  -0.413538  0  2.028207  0
O  O206  1  0.44163153  0.10931318  0.25380543  1  -1.072704  0  -0.326178  -0.449387  0  2.226514  0
O  O207  1  0.37107220  0.02165742  0.36658118  1  -1.092075  0  -0.260781  -0.41256  0  2.022788  0
O  O208  1  0.44162440  0.33235693  0.30450771  1  -1.079653  0  -0.326011  -0.450159  0  2.226709  0
O  O209  1  0.37107038  0.34946142  0.26227537  1  -1.082986  0  -0.260455  -0.41182  0  2.023263  0
O  O210  1  0.44676539  0.80008963  0.64266257  1  -1.093972  0  -0.324574  -0.447193  0  2.229048  0
O  O211  1  0.37644582  0.70246670  0.65633176  1  -1.076669  0  -0.261177  -0.413137  0  2.028053  0
O  O212  1  0.44678425  0.64665185  0.91056160  1  -1.086787  0  -0.32485  -0.446774  0  2.228136  0
O  O213  1  0.37647902  0.67395973  0.96721508  1  -1.079523  0  -0.261387  -0.413521  0  2.028063  0
O  O214  1  0.55835214  0.75382982  0.60929239  1  -1.073085  0  -0.325988  -0.449156  0  2.226698  0
O  O215  1  0.62889793  0.86661092  0.52165046  1  -1.089502  0  -0.260583  -0.412132  0  2.023082  0
O  O216  1  0.55838866  0.80449852  0.83237529  1  -1.079877  0  -0.3261  -0.449951  0  2.226547  0
O  O217  1  0.62894206  0.76227190  0.84947169  1  -1.082876  0  -0.260439  -0.411805  0  2.023706  0
