# generated using pymatgen
data_TbH19(C3O)8
_symmetry_space_group_name_H-M   'P 1'
_cell_length_a   15.08245970
_cell_length_b   15.08306141
_cell_length_c   25.66298685
_cell_angle_alpha   95.32511855
_cell_angle_beta   102.70265189
_cell_angle_gamma   117.89972215
_symmetry_Int_Tables_number   1
_chemical_formula_structural   TbH19(C3O)8
_chemical_formula_sum   'Tb4 H76 C96 O32'
_cell_volume   4901.82586835
_cell_formula_units_Z   4
loop_
 _symmetry_equiv_pos_site_id
 _symmetry_equiv_pos_as_xyz
  1  'x, y, z'
loop_
 _atom_site_type_symbol
 _atom_site_label
 _atom_site_symmetry_multiplicity
 _atom_site_fract_x
 _atom_site_fract_y
 _atom_site_fract_z
 _atom_site_occupancy
 _atom_site_pbe_bader_charge
 _atom_site_pbe_bader_spin_density
 _atom_site_pbe_cm5_charge
 _atom_site_pbe_ddec_charge
 _atom_site_pbe_ddec_spin_density
 _atom_site_pbe_ddec_sum_bond_order
 _atom_site_pbe_magmom
Tb  Tb0  1  0.84913622  0.92784937  0.05177598  1  2.158472  0  1.531332  2.02668  0  2.220362  0
Tb  Tb1  1  0.37600061  0.79728739  0.44823380  1  2.157877  0  1.531919  2.026744  0  2.220299  0
Tb  Tb2  1  0.15087804  0.07216938  0.94822289  1  2.15841  0  1.531321  2.026527  0  2.220544  0
Tb  Tb3  1  0.62400229  0.20271618  0.55176681  1  2.157876  0  1.531886  2.02668  0  2.220369  0
H  H4  1  0.07332969  0.00926402  0.23947694  1  0.073863  0  0.104485  0.107911  0  1.023003  0
H  H5  1  0.26964488  0.83376797  0.26044414  1  0.080384  0  0.104242  0.107469  0  1.023013  0
H  H6  1  0.92667845  0.99074315  0.76052275  1  0.073793  0  0.104427  0.107819  0  1.023062  0
H  H7  1  0.73035093  0.16622398  0.73955402  1  0.079449  0  0.104238  0.107447  0  1.023039  0
H  H8  1  0.14902578  0.36991343  0.27433006  1  0.056218  0  0.10585  0.107083  0  1.010264  0
H  H9  1  0.59560529  0.87459535  0.22574309  1  0.060098  0  0.105506  0.106992  0  1.009848  0
H  H10  1  0.85096264  0.63008497  0.72567379  1  0.056251  0  0.105855  0.107088  0  1.010259  0
H  H11  1  0.40439271  0.12540119  0.77425802  1  0.060088  0  0.105523  0.107008  0  1.009854  0
H  H12  1  0.03070576  0.24956881  0.18548761  1  0.090875  0  0.109405  0.11612  0  0.991166  0
H  H13  1  0.56388201  0.84502901  0.31454044  1  0.09054  0  0.1094  0.116673  0  0.989689  0
H  H14  1  0.96928440  0.75043014  0.81451413  1  0.090762  0  0.109453  0.11617  0  0.991114  0
H  H15  1  0.43611461  0.15496586  0.68546007  1  0.090466  0  0.109363  0.116594  0  0.989722  0
H  H16  1  0.39146877  0.21108560  0.47015862  1  0.120301  0  0.112932  0.115205  0  1.030384  0
H  H17  1  0.24081258  0.92108751  0.02978130  1  0.112074  0  0.112972  0.115866  0  1.02959  0
H  H18  1  0.60853156  0.78891894  0.52984250  1  0.12031  0  0.112871  0.115133  0  1.030409  0
H  H19  1  0.75920268  0.07892625  0.97022164  1  0.112277  0  0.112961  0.115862  0  1.029597  0
H  H20  1  0.14976603  0.96890540  0.29264307  1  0.055755  0  0.100979  0.099917  0  1.019585  0
H  H21  1  0.17646986  0.85747490  0.20740670  1  0.058543  0  0.101317  0.100664  0  1.01822  0
H  H22  1  0.85023705  0.03109699  0.70735772  1  0.055688  0  0.100994  0.099935  0  1.019536  0
H  H23  1  0.82352257  0.14250960  0.79258808  1  0.0585  0  0.101307  0.100637  0  1.018317  0
H  H24  1  0.24031538  0.91358153  0.36257147  1  0.110841  0  0.10408  0.109896  0  1.043177  0
H  H25  1  0.05118494  0.87794192  0.13747239  1  0.096863  0  0.103845  0.110714  0  1.042667  0
H  H26  1  0.75968985  0.08642331  0.63743070  1  0.110756  0  0.104098  0.109933  0  1.04317  0
H  H27  1  0.94881909  0.12206023  0.86252550  1  0.097181  0  0.103909  0.110774  0  1.042501  0
H  H28  1  0.22412224  0.45596668  0.34594928  1  0.086569  0  0.106908  0.112174  0  1.024476  0
H  H29  1  0.61016724  0.87831700  0.15406901  1  0.070013  0  0.106771  0.115178  0  1.020583  0
H  H30  1  0.77587785  0.54403522  0.65405084  1  0.086589  0  0.106898  0.112147  0  1.024405  0
H  H31  1  0.38983713  0.12168217  0.84593077  1  0.070026  0  0.106712  0.115047  0  1.020667  0
H  H32  1  0.39612602  0.33941605  0.48863385  1  0.079207  0  0.1068  0.110596  0  1.014156  0
H  H33  1  0.35073615  0.90728267  0.01131438  1  0.094374  0  0.106677  0.109321  0  1.014827  0
H  H34  1  0.60386919  0.66058706  0.51136831  1  0.079351  0  0.106764  0.110523  0  1.014198  0
H  H35  1  0.64926447  0.09271567  0.98868626  1  0.094242  0  0.106678  0.109342  0  1.014887  0
H  H36  1  0.41720187  0.51243136  0.50801579  1  0.096227  0  0.10592  0.109886  0  1.008226  0
H  H37  1  0.50451902  0.90921876  0.99198580  1  0.083098  0  0.105603  0.109077  0  1.008502  0
H  H38  1  0.58279167  0.48756909  0.49198548  1  0.096232  0  0.105944  0.109908  0  1.008208  0
H  H39  1  0.49548212  0.09078276  0.00801383  1  0.082245  0  0.105589  0.109078  0  1.008394  0
H  H40  1  0.67704377  0.85533354  0.91892692  1  0.072621  0  0.112017  0.080985  0  0.974946  0
H  H41  1  0.43616530  0.75804062  0.58101031  1  0.073896  0  0.11218  0.082154  0  0.974822  0
H  H42  1  0.32295324  0.14466782  0.08107397  1  0.07266  0  0.112013  0.081011  0  0.974955  0
H  H43  1  0.56382717  0.24195258  0.41898835  1  0.073328  0  0.112181  0.082189  0  0.974754  0
H  H44  1  0.64384005  0.72501726  0.89724222  1  0.042667  0  0.100327  0.059751  0  0.954329  0
H  H45  1  0.32760008  0.74660346  0.60273790  1  0.041873  0  0.100416  0.06015  0  0.954241  0
H  H46  1  0.35616216  0.27498478  0.10276155  1  0.042688  0  0.100357  0.059797  0  0.954312  0
H  H47  1  0.67239182  0.25339054  0.39726020  1  0.041975  0  0.100453  0.06021  0  0.954206  0
H  H48  1  0.78901492  0.78183767  0.85405144  1  2.4e-05  0  0.089902  0.080337  0  0.985053  0
H  H49  1  0.42775545  0.93499737  0.64592891  1  -0.002176  0  0.089862  0.080635  0  0.986277  0
H  H50  1  0.21098274  0.21816231  0.14595009  1  4e-05  0  0.08988  0.080275  0  0.985055  0
H  H51  1  0.57223808  0.06499652  0.35407005  1  -0.002286  0  0.089888  0.080722  0  0.986157  0
H  H52  1  0.82553850  0.91204019  0.87640264  1  0.028748  0  0.091748  0.084386  0  1.012368  0
H  H53  1  0.53560057  0.94902589  0.62359306  1  0.013875  0  0.092272  0.086157  0  1.012127  0
H  H54  1  0.17445484  0.08795993  0.12359535  1  0.028685  0  0.091743  0.084347  0  1.012404  0
H  H55  1  0.46439305  0.05096741  0.37640598  1  0.013767  0  0.092287  0.086163  0  1.012073  0
H  H56  1  0.60910482  0.74649523  0.79728626  1  0.01622  0  0.085484  0.108829  0  1.001508  0
H  H57  1  0.44892089  0.81168755  0.70264798  1  0.016139  0  0.085536  0.109025  0  1.002727  0
H  H58  1  0.39089038  0.25349352  0.20271435  1  0.016401  0  0.085494  0.108846  0  1.001424  0
H  H59  1  0.55106953  0.18830368  0.29735018  1  0.016101  0  0.085589  0.109135  0  1.002685  0
H  H60  1  0.71398402  0.83999120  0.77742689  1  0.068508  0  0.084913  0.116043  0  1.029934  0
H  H61  1  0.56237086  0.93635828  0.72258543  1  0.066683  0  0.084757  0.115579  0  1.028739  0
H  H62  1  0.28600761  0.15999740  0.22257018  1  0.068649  0  0.084872  0.115929  0  1.029999  0
H  H63  1  0.43762012  0.06363215  0.27741330  1  0.066745  0  0.084777  0.115634  0  1.028699  0
H  H64  1  0.65225302  0.87958065  0.81825412  1  0.021941  0  0.085175  0.112154  0  1.013343  0
H  H65  1  0.56103662  0.83377848  0.68171809  1  0.029644  0  0.085434  0.112298  0  1.01299  0
H  H66  1  0.34773554  0.12040804  0.18174218  1  0.022015  0  0.085191  0.112179  0  1.013309  0
H  H67  1  0.43895380  0.16621275  0.31828006  1  0.029299  0  0.085409  0.112264  0  1.013009  0
H  H68  1  0.83711971  0.80548236  0.95207616  1  0.602608  0  0.340761  0.380482  0  0.87722  0
H  H69  1  0.35339051  0.88513543  0.54791451  1  0.619518  0  0.340264  0.379521  0  0.87715  0
H  H70  1  0.16288128  0.19452203  0.04792254  1  0.602801  0  0.340778  0.380451  0  0.877178  0
H  H71  1  0.64660401  0.11485974  0.45208466  1  0.619448  0  0.340241  0.379501  0  0.877182  0
H  H72  1  0.86800158  0.76023443  0.07747311  1  0.633993  0  0.32493  0.412416  0  0.88483  0
H  H73  1  0.18280078  0.79061410  0.42259063  1  0.630692  0  0.325102  0.41232  0  0.885152  0
H  H74  1  0.13200594  0.23976910  0.92252673  1  0.634159  0  0.324901  0.41254  0  0.884745  0
H  H75  1  0.81718976  0.20937884  0.57740533  1  0.630718  0  0.32508  0.412276  0  0.885217  0
H  H76  1  0.78694112  0.76220249  0.10616078  1  0.639242  0  0.337389  0.426669  0  0.854753  0
H  H77  1  0.15601002  0.68087583  0.39387033  1  0.633926  0  0.338563  0.428442  0  0.85216  0
H  H78  1  0.21305334  0.23779698  0.89382911  1  0.639429  0  0.337454  0.426701  0  0.854679  0
H  H79  1  0.84399073  0.31911795  0.60613198  1  0.633885  0  0.338538  0.428431  0  0.852172  0
C  C80  1  0.97357089  0.05011114  0.15449894  1  1.520263  0  0.187478  0.571298  0  4.237528  0
C  C81  1  0.39534796  0.81888951  0.34546545  1  1.530288  0  0.188157  0.573233  0  4.23621  0
C  C82  1  0.02643192  0.94989303  0.84550159  1  1.520284  0  0.187555  0.571332  0  4.237562  0
C  C83  1  0.60464920  0.18110853  0.65453404  1  1.530196  0  0.188129  0.5731  0  4.236425  0
C  C84  1  0.04494296  0.12181961  0.20833007  1  0.038811  0  -0.016677  -0.020407  0  3.984691  0
C  C85  1  0.41331855  0.83646393  0.29165007  1  0.012602  0  -0.017416  -0.0232  0  3.992091  0
C  C86  1  0.95505859  0.87818337  0.79167073  1  0.038627  0  -0.016667  -0.020367  0  3.984648  0
C  C87  1  0.58667497  0.16352889  0.70834811  1  0.012513  0  -0.017455  -0.023295  0  3.992196  0
C  C88  1  0.09197619  0.08900934  0.24881818  1  -0.080686  0  -0.075954  -0.126549  0  3.925713  0
C  C89  1  0.34010564  0.84311652  0.25115261  1  -0.055649  0  -0.076134  -0.12616  0  3.928543  0
C  C90  1  0.90802689  0.91099306  0.75118261  1  -0.080404  0  -0.075913  -0.12649  0  3.92583  0
C  C91  1  0.65988987  0.15687445  0.74884525  1  -0.054704  0  -0.076182  -0.125704  0  3.928949  0
C  C92  1  0.16124626  0.15589355  0.29977729  1  -0.021421  0  -0.005387  0.017813  0  3.976372  0
C  C93  1  0.35619109  0.86151559  0.20023236  1  -0.038053  0  -0.004945  0.018747  0  3.980002  0
C  C94  1  0.83875250  0.84410881  0.70022380  1  -0.021702  0  -0.005342  0.017863  0  3.97633  0
C  C95  1  0.64380527  0.13847450  0.79976557  1  -0.038049  0  -0.004949  0.01737  0  3.981734  0
C  C96  1  0.18068769  0.25879659  0.30995259  1  0.018405  0  0.002025  0.042831  0  3.961058  0
C  C97  1  0.44888047  0.87071125  0.19005965  1  0.00302  0  0.002106  0.043203  0  3.9615  0
C  C98  1  0.81930989  0.74120398  0.69004886  1  0.018598  0  0.001962  0.042741  0  3.961002  0
C  C99  1  0.55111795  0.12928188  0.80993957  1  0.00326  0  0.002166  0.043677  0  3.961666  0
C  C100  1  0.13333337  0.29095419  0.26776057  1  -0.036585  0  -0.088907  -0.13129  0  3.998711  0
C  C101  1  0.52317009  0.86547275  0.23226123  1  -0.02065  0  -0.089178  -0.132371  0  3.997175  0
C  C102  1  0.86665980  0.70904694  0.73224110  1  -0.036893  0  -0.088917  -0.131333  0  3.998678  0
C  C103  1  0.47682593  0.13452015  0.76773867  1  -0.020964  0  -0.089231  -0.13241  0  3.997189  0
C  C104  1  0.06701658  0.22446198  0.21786204  1  -0.059449  0  -0.081133  -0.089261  0  3.991629  0
C  C105  1  0.50643705  0.84898678  0.28213181  1  -0.073157  0  -0.0803  -0.088687  0  3.992764  0
C  C106  1  0.93297927  0.77553867  0.78213999  1  -0.059086  0  -0.081198  -0.089318  0  3.991434  0
C  C107  1  0.49355868  0.15100621  0.71786858  1  -0.072716  0  -0.080191  -0.088445  0  3.992982  0
C  C108  1  0.37420887  0.02575613  0.46395263  1  1.571032  0  0.240336  0.665003  0  4.159637  0
C  C109  1  0.06170855  0.91011751  0.03601125  1  1.568292  0  0.242961  0.669803  0  4.1542  0
C  C110  1  0.62579654  0.97424815  0.53604818  1  1.571013  0  0.240365  0.665019  0  4.159592  0
C  C111  1  0.93831547  0.08991070  0.96399120  1  1.568075  0  0.242921  0.669693  0  4.153809  0
C  C112  1  0.31850707  0.05914311  0.42168446  1  -0.037421  0  -0.020304  -0.052145  0  3.995332  0
C  C113  1  0.13743161  0.89671427  0.07828310  1  -0.006805  0  -0.02088  -0.05409  0  3.993304  0
C  C114  1  0.68149526  0.94086065  0.57831712  1  -0.037435  0  -0.020324  -0.052183  0  3.995415  0
C  C115  1  0.86258237  0.10329784  0.92171780  1  -0.006324  0  -0.020839  -0.054025  0  3.993272  0
C  C116  1  0.33541868  0.15879990  0.43146060  1  -0.040329  0  -0.071149  -0.120086  0  3.915335  0
C  C117  1  0.22727694  0.90378214  0.06848838  1  -0.058996  0  -0.071099  -0.119382  0  3.913906  0
C  C118  1  0.66458123  0.84120256  0.56854087  1  -0.039836  0  -0.071133  -0.11999  0  3.915255  0
C  C119  1  0.77273272  0.09622383  0.93151283  1  -0.059417  0  -0.07105  -0.118872  0  3.914319  0
C  C120  1  0.28264020  0.19198950  0.39279164  1  -0.02425  0  -0.003825  0.023956  0  3.969219  0
C  C121  1  0.29917261  0.88971872  0.10717417  1  0.003227  0  -0.004696  0.022315  0  3.967295  0
C  C122  1  0.71735885  0.80801322  0.60721128  1  -0.024947  0  -0.003805  0.023861  0  3.96931  0
C  C123  1  0.70082939  0.11027580  0.89282555  1  0.003921  0  -0.004755  0.020779  0  3.96932  0
C  C124  1  0.21393850  0.12253109  0.34151100  1  0.044553  0  0.001964  0.038018  0  3.964959  0
C  C125  1  0.28108885  0.87245351  0.15848967  1  -0.043016  0  0.000979  0.036697  0  3.965915  0
C  C126  1  0.78606140  0.87747030  0.65848969  1  0.044993  0  0.002021  0.038139  0  3.965029  0
C  C127  1  0.71891025  0.12753992  0.84150946  1  -0.043242  0  0.000978  0.037585  0  3.966442  0
C  C128  1  0.20023040  0.02246207  0.33196196  1  -0.061308  0  -0.091064  -0.127765  0  3.998607  0
C  C129  1  0.19061432  0.86840310  0.16805550  1  -0.054825  0  -0.090767  -0.127594  0  3.997708  0
C  C130  1  0.79977299  0.97754130  0.66803913  1  -0.061501  0  -0.091075  -0.127748  0  3.998671  0
C  C131  1  0.80938196  0.13158819  0.83194082  1  -0.054941  0  -0.090786  -0.127623  0  3.997808  0
C  C132  1  0.24981816  0.99022297  0.37117459  1  -0.060706  0  -0.087481  -0.099456  0  3.995397  0
C  C133  1  0.11912506  0.87869220  0.12883041  1  -0.000647  0  -0.086436  -0.099255  0  3.992592  0
C  C134  1  0.75018706  0.00978080  0.62882680  1  -0.060547  0  -0.087505  -0.099551  0  3.995702  0
C  C135  1  0.88087685  0.12130964  0.87116767  1  -0.001034  0  -0.086495  -0.09926  0  3.992544  0
C  C136  1  0.33507053  0.59835437  0.43713065  1  1.534902  0  0.190472  0.575833  0  4.227019  0
C  C137  1  0.66130559  0.89800264  0.06288882  1  1.525743  0  0.191925  0.578321  0  4.226815  0
C  C138  1  0.66492880  0.40164781  0.56286947  1  1.524687  0  0.190589  0.575962  0  4.226835  0
C  C139  1  0.33870116  0.10200835  0.93711180  1  1.525481  0  0.192021  0.578205  0  4.226561  0
C  C140  1  0.32181247  0.49356812  0.42705562  1  0.020788  0  -0.018322  -0.026631  0  3.999604  0
C  C141  1  0.56656278  0.89474956  0.07293809  1  -0.020055  0  -0.018383  -0.028105  0  4.002816  0
C  C142  1  0.67818288  0.50643166  0.57294515  1  0.020755  0  -0.018302  -0.026527  0  3.999608  0
C  C143  1  0.43344000  0.10525185  0.92706240  1  -0.028776  0  -0.018336  -0.027982  0  4.002749  0
C  C144  1  0.26101236  0.42754427  0.37593326  1  -0.081896  0  -0.075262  -0.123931  0  3.928443  0
C  C145  1  0.55165659  0.88508116  0.12406313  1  -0.046084  0  -0.074437  -0.125369  0  3.927842  0
C  C146  1  0.73898523  0.57245692  0.62406666  1  -0.081927  0  -0.075263  -0.123925  0  3.928407  0
C  C147  1  0.44834721  0.11491818  0.87593761  1  -0.04597  0  -0.074388  -0.125209  0  3.927856  0
C  C148  1  0.24694177  0.32816429  0.36344563  1  -0.021128  0  -0.005584  0.0222  0  3.980893  0
C  C149  1  0.46473654  0.88343377  0.13655761  1  0.007524  0  -0.00626  0.021857  0  3.980552  0
C  C150  1  0.75305358  0.67183550  0.63655514  1  -0.021074  0  -0.005552  0.022236  0  3.980822  0
C  C151  1  0.53526424  0.11656231  0.86344242  1  0.007258  0  -0.006312  0.021751  0  3.980295  0
C  C152  1  0.29675266  0.29514277  0.40461814  1  0.000164  0  0.002255  0.041885  0  3.958705  0
C  C153  1  0.39049718  0.89198329  0.09535033  1  -0.000446  0  0.003209  0.042047  0  3.958131  0
C  C154  1  0.70324407  0.70485868  0.59538323  1  0.001071  0  0.002178  0.041813  0  3.958747  0
C  C155  1  0.60950534  0.10801379  0.90464991  1  -0.000322  0  0.003315  0.042696  0  3.958084  0
C  C156  1  0.35766338  0.36326236  0.45654206  1  -0.062623  0  -0.087598  -0.130465  0  3.979837  0
C  C157  1  0.40670056  0.90095667  0.04342323  1  -0.046913  0  -0.087743  -0.127969  0  3.979818  0
C  C158  1  0.64233208  0.63673790  0.54345959  1  -0.063633  0  -0.087573  -0.13035  0  3.979749  0
C  C159  1  0.59330111  0.09904129  0.95657692  1  -0.046841  0  -0.087694  -0.127895  0  3.979752  0
C  C160  1  0.37018818  0.46061337  0.46785700  1  -0.03445  0  -0.080469  -0.086054  0  3.981848  0
C  C161  1  0.49278990  0.90227639  0.03212213  1  -0.040333  0  -0.08016  -0.085725  0  3.982924  0
C  C162  1  0.62980650  0.53938611  0.53214387  1  -0.034487  0  -0.080497  -0.086178  0  3.981864  0
C  C163  1  0.50721469  0.09772435  0.96787786  1  -0.030587  0  -0.080236  -0.08591  0  3.982992  0
C  C164  1  0.70864029  0.80569127  0.90890948  1  0.397857  0  -0.062401  0.102767  0  3.88109  0
C  C165  1  0.39661869  0.79970221  0.59107178  1  0.387201  0  -0.06258  0.100344  0  3.88336  0
C  C166  1  0.29135953  0.19431179  0.09109190  1  0.397796  0  -0.062458  0.10257  0  3.881118  0
C  C167  1  0.60337339  0.20029060  0.40892649  1  0.387797  0  -0.062597  0.100315  0  3.883357  0
C  C168  1  0.75801506  0.83301306  0.86293493  1  0.00484  0  -0.17053  -0.150499  0  3.989663  0
C  C169  1  0.46996672  0.89501118  0.63703903  1  0.036363  0  -0.171155  -0.153415  0  3.993159  0
C  C170  1  0.24198095  0.16698595  0.13706496  1  0.004834  0  -0.170484  -0.150346  0  3.989597  0
C  C171  1  0.53002720  0.10498310  0.36296032  1  0.036322  0  -0.171221  -0.153577  0  3.992993  0
C  C172  1  0.67881886  0.82419702  0.81105628  1  -0.082132  0  -0.243369  -0.347448  0  3.965328  0
C  C173  1  0.51292900  0.86761039  0.68892106  1  -0.09187  0  -0.243452  -0.34659  0  3.964749  0
C  C174  1  0.32117356  0.17579342  0.18894235  1  -0.082463  0  -0.24338  -0.347398  0  3.965291  0
C  C175  1  0.48706297  0.13238132  0.31107788  1  -0.091473  0  -0.243478  -0.346693  0  3.964752  0
O  O176  1  0.93628192  0.08474412  0.11693554  1  -1.1732  0  -0.405763  -0.641225  0  2.157499  0
O  O177  1  0.46762410  0.81931467  0.38305892  1  -1.170954  0  -0.406472  -0.641821  0  2.156055  0
O  O178  1  0.06371776  0.91526226  0.88306724  1  -1.173183  0  -0.405775  -0.641221  0  2.157458  0
O  O179  1  0.53237434  0.18068564  0.61694109  1  -1.171009  0  -0.40648  -0.641762  0  2.156121  0
O  O180  1  0.95161609  0.95602917  0.14549022  1  -1.181919  0  -0.394006  -0.659535  0  2.213351  0
O  O181  1  0.31023918  0.80583750  0.35445514  1  -1.187518  0  -0.393975  -0.660163  0  2.212465  0
O  O182  1  0.04839195  0.04397753  0.85450859  1  -1.182065  0  -0.394041  -0.659512  0  2.213278  0
O  O183  1  0.68975964  0.19416319  0.64554525  1  -1.187579  0  -0.393923  -0.660066  0  2.212507  0
O  O184  1  0.33738458  0.92893435  0.45943790  1  -1.207499  0  -0.410764  -0.701005  0  2.326611  0
O  O185  1  0.96938563  0.87773712  0.04053409  1  -1.216702  0  -0.412388  -0.703044  0  2.325052  0
O  O186  1  0.66261927  0.07106837  0.54056135  1  -1.207591  0  -0.410794  -0.701011  0  2.326719  0
O  O187  1  0.03064065  0.12230198  0.95946601  1  -1.21705  0  -0.412402  -0.703075  0  2.324872  0
O  O188  1  0.45418136  0.09327255  0.50226330  1  -1.21183  0  -0.413873  -0.680792  0  2.352857  0
O  O189  1  0.09090318  0.95185931  0.99772217  1  -1.201348  0  -0.414647  -0.683087  0  2.353538  0
O  O190  1  0.54582537  0.90672957  0.49773728  1  -1.211708  0  -0.41384  -0.68075  0  2.35273  0
O  O191  1  0.90913742  0.04817848  0.00228528  1  -1.201443  0  -0.414669  -0.683077  0  2.353279  0
O  O192  1  0.40096382  0.66553583  0.48145924  1  -1.189884  0  -0.395547  -0.647029  0  2.158504  0
O  O193  1  0.68422615  0.91966625  0.01858945  1  -1.180422  0  -0.396013  -0.648424  0  2.160951  0
O  O194  1  0.59903559  0.33446576  0.51854097  1  -1.17976  0  -0.39557  -0.64707  0  2.158488  0
O  O195  1  0.31578686  0.08035832  0.98141433  1  -1.180281  0  -0.396049  -0.6483  0  2.16077  0
O  O196  1  0.28181090  0.62171933  0.40059835  1  -1.179406  0  -0.400606  -0.641693  0  2.180452  0
O  O197  1  0.72115810  0.88121199  0.09941037  1  -1.182746  0  -0.400651  -0.641615  0  2.178304  0
O  O198  1  0.71818949  0.37828355  0.59940207  1  -1.179359  0  -0.400672  -0.641759  0  2.180339  0
O  O199  1  0.27884632  0.11879117  0.90058638  1  -1.182688  0  -0.400716  -0.641587  0  2.178233  0
O  O200  1  0.78393851  0.81977297  0.95964589  1  -1.129582  0  -0.452914  -0.579274  0  2.389999  0
O  O201  1  0.35994361  0.82428482  0.54033240  1  -1.146569  0  -0.452334  -0.577133  0  2.389291  0
O  O202  1  0.21606925  0.18024099  0.04035418  1  -1.129711  0  -0.452946  -0.579146  0  2.389887  0
O  O203  1  0.64005178  0.17571116  0.45966611  1  -1.146473  0  -0.452319  -0.577135  0  2.389364  0
O  O204  1  0.79882534  0.75433578  0.07059080  1  -1.227358  0  -0.607629  -0.796801  0  1.978052  0
O  O205  1  0.18374732  0.72829936  0.42945524  1  -1.219723  0  -0.608755  -0.798039  0  1.977261  0
O  O206  1  0.20118289  0.24567220  0.92940206  1  -1.227751  0  -0.607683  -0.796979  0  1.977774  0
O  O207  1  0.81625137  0.27169918  0.57054503  1  -1.219704  0  -0.608726  -0.79799  0  1.977299  0
