# generated using pymatgen
data_Sm2CuH20C32(NO7)4
_symmetry_space_group_name_H-M   'P 1'
_cell_length_a   10.26134568
_cell_length_b   10.75425668
_cell_length_c   11.37648498
_cell_angle_alpha   86.28299025
_cell_angle_beta   75.02746567
_cell_angle_gamma   68.19194264
_symmetry_Int_Tables_number   1
_chemical_formula_structural   Sm2CuH20C32(NO7)4
_chemical_formula_sum   'Sm2 Cu1 H20 C32 N4 O28'
_cell_volume   1125.33307700
_cell_formula_units_Z   1
loop_
 _symmetry_equiv_pos_site_id
 _symmetry_equiv_pos_as_xyz
  1  'x, y, z'
loop_
 _atom_site_type_symbol
 _atom_site_label
 _atom_site_symmetry_multiplicity
 _atom_site_fract_x
 _atom_site_fract_y
 _atom_site_fract_z
 _atom_site_occupancy
 _atom_site_hle17_ddec_charge
 _atom_site_hle17_ddec_spin_density
 _atom_site_hle17_ddec_sum_bond_order
 _atom_site_hle17_magmom
 _atom_site_hse06_10hf_ddec_charge
 _atom_site_hse06_10hf_ddec_spin_density
 _atom_site_hse06_10hf_ddec_sum_bond_order
 _atom_site_hse06_10hf_magmom
 _atom_site_hse06_ddec_charge
 _atom_site_hse06_ddec_spin_density
 _atom_site_hse06_ddec_sum_bond_order
 _atom_site_hse06_magmom
 _atom_site_pbe_cm5_charge
 _atom_site_pbe_ddec_charge
 _atom_site_pbe_ddec_spin_density
 _atom_site_pbe_ddec_sum_bond_order
 _atom_site_pbe_magmom
Sm  Sm0  1  0.58320370  0.61075280  0.63157417  1  2.352844  0.000345  1.602295  0.0  2.263749  0.000344  1.962431  0.0  2.305013  0.000266  1.918313  0.0  1.515471  2.233886  0.000452  1.993089  0.001
Sm  Sm1  1  0.41679823  0.38923970  0.36842511  1  2.352844  0.000344  1.602354  0.0  2.26375  0.000347  1.962496  0.0  2.305016  0.000261  1.918377  0.0  1.515506  2.233898  0.000453  1.993156  0.001
Cu  Cu2  1  0.00000028  0.50000876  0.49999963  1  0.982872  0.696466  1.691021  0.519  0.97827  0.785404  2.072959  0.635  1.079899  0.847102  1.985934  0.717  0.749788  0.911811  0.742213  2.136717  0.582
H  H3  1  0.36277306  0.98205370  0.45087056  1  0.13421  -4.3e-05  0.908213  0.0  0.143677  -7e-06  0.965025  0.0  0.148074  -4e-06  0.96106  0.0  0.126586  0.140266  -6e-06  0.96827  0.0
H  H4  1  0.63721243  0.01794263  0.54914816  1  0.134264  -3.5e-05  0.908134  0.0  0.143674  -7e-06  0.964997  0.0  0.148072  -5e-06  0.961032  0.0  0.126541  0.140257  -7e-06  0.968251  0.0
H  H5  1  0.96101780  0.17981008  0.34821261  1  0.131467  0.000299  0.942176  0.0  0.13745  0.000241  1.007517  0.0  0.141646  0.000165  1.003234  0.0  0.120926  0.134145  0.000289  1.011074  0.0
H  H6  1  0.03898514  0.82020138  0.65178918  1  0.131449  0.000296  0.942192  0.0  0.137439  0.000241  1.007518  0.0  0.141628  0.000165  1.003241  0.0  0.120902  0.134131  0.000289  1.011076  0.0
H  H7  1  0.15673202  0.74770655  0.33114261  1  0.135014  -2e-05  0.944477  0.0  0.137834  -1.3e-05  1.014009  0.0  0.141808  -1.4e-05  1.010259  0.0  0.122421  0.135008  -2.3e-05  1.016511  0.0
H  H8  1  0.84326304  0.25229862  0.66884403  1  0.135077  -2.7e-05  0.944415  0.0  0.137828  -1.3e-05  1.014031  0.0  0.1418  -1.4e-05  1.010286  0.0  0.12243  0.135  -2.3e-05  1.016532  0.0
H  H9  1  0.67833114  0.47220982  0.94375058  1  0.143845  -7e-06  0.917899  0.0  0.150954  -6e-06  0.979617  0.0  0.155652  -3e-06  0.974976  0.0  0.12552  0.14743  -3e-06  0.983151  0.0
H  H10  1  0.32167054  0.52778059  0.05624543  1  0.143777  1e-06  0.918045  0.0  0.150871  -6e-06  0.979742  0.0  0.155566  -2e-06  0.975106  0.0  0.125498  0.147352  -3e-06  0.983276  0.0
H  H11  1  0.93774135  0.31127231  0.20134595  1  0.12999  -1.2e-05  0.945845  0.0  0.133612  -2.9e-05  1.016483  0.0  0.138286  -2.7e-05  1.011443  0.0  0.118048  0.130203  -2.2e-05  1.020123  0.0
H  H12  1  0.06225771  0.68872503  0.79864744  1  0.129873  -1.3e-05  0.945945  0.0  0.133545  -2.9e-05  1.016539  0.0  0.138216  -2.7e-05  1.011502  0.0  0.117968  0.130137  -2.2e-05  1.020175  0.0
H  H13  1  0.14597701  0.33702691  0.82510315  1  0.133283  0.000298  0.929441  0.0  0.139986  0.000278  0.990817  0.0  0.144768  0.000198  0.98577  0.0  0.12276  0.13646  0.000351  0.994582  0.0
H  H14  1  0.85402370  0.66297157  0.17489590  1  0.133286  0.000298  0.929427  0.0  0.140005  0.000277  0.990763  0.0  0.144788  0.000198  0.985716  0.0  0.122762  0.136479  0.000351  0.994528  0.0
H  H15  1  0.45850851  0.84346887  0.82914756  1  0.447844  1e-06  0.799235  0.0  0.432901  -1e-06  0.842609  0.0  0.440994  -0.0  0.830861  0.0  0.340709  0.427083  -1e-06  0.851121  0.0
H  H16  1  0.54149358  0.15653906  0.17083539  1  0.447954  -2e-06  0.799254  0.0  0.43297  -1e-06  0.842552  0.0  0.441068  -0.0  0.830794  0.0  0.340783  0.427153  -1e-06  0.851063  0.0
H  H17  1  0.34315088  0.88012178  0.75143599  1  0.440568  0.0  0.845728  0.0  0.408919  -1e-06  0.909272  0.0  0.419857  -1e-06  0.892896  0.0  0.307551  0.401132  0.0  0.920967  0.0
H  H18  1  0.65684924  0.11989403  0.24854323  1  0.440491  -1e-06  0.845857  0.0  0.408857  -1e-06  0.909366  0.0  0.419792  -1e-06  0.892996  0.0  0.307567  0.401077  0.0  0.921047  0.0
H  H19  1  0.80403448  0.56157646  0.37937629  1  0.447103  -0.000323  0.844615  0.0  0.41961  -0.000211  0.901743  0.0  0.429634  -0.000241  0.886918  0.0  0.307669  0.412539  -0.000164  0.912247  0.0
H  H20  1  0.19596397  0.43842808  0.62062454  1  0.447041  -0.000323  0.844664  0.0  0.419546  -0.000211  0.901802  0.0  0.42957  -0.000241  0.886978  0.0  0.307646  0.412472  -0.000164  0.91231  0.0
H  H21  1  0.71543862  0.46741745  0.37827720  1  0.456923  2.7e-05  0.836326  0.0  0.428853  1.2e-05  0.89411  0.0  0.439972  1.2e-05  0.87791  0.0  0.305373  0.420952  9e-06  0.905633  0.0
H  H22  1  0.28456112  0.53258897  0.62172052  1  0.456949  2.8e-05  0.836295  0.0  0.428884  1.2e-05  0.894068  0.0  0.440002  1.2e-05  0.877871  0.0  0.305388  0.420982  9e-06  0.905591  0.0
C  C23  1  0.27087710  0.85202838  0.39405077  1  -0.055205  0.000784  3.689524  0.001  -0.027913  0.000354  3.921916  0.0  -0.039352  0.000292  3.945586  0.0  -0.001364  -0.02073  0.000527  3.906068  0.001
C  C24  1  0.72910936  0.14797872  0.60596238  1  -0.055193  0.000807  3.689694  0.001  -0.027729  0.000362  3.921815  0.0  -0.039164  0.000285  3.945486  0.0  -0.001299  -0.020555  0.000527  3.905966  0.001
C  C25  1  0.27513053  0.97739008  0.41615389  1  -0.016925  0.000188  3.598816  0.001  -0.064416  0.000617  3.851294  0.001  -0.059139  0.000191  3.86813  0.0  -0.050414  -0.067466  0.000935  3.840087  0.001
C  C26  1  0.72485770  0.02261507  0.58386165  1  -0.016993  0.000124  3.598886  0.001  -0.064461  0.000609  3.851317  0.001  -0.059188  0.000202  3.868159  0.0  -0.050371  -0.067512  0.000936  3.840112  0.001
C  C27  1  0.16495250  0.09545592  0.39841416  1  -0.050273  0.007974  3.71761  0.009  -0.024027  0.004656  3.954898  0.005  -0.03546  0.003398  3.977486  0.004  -0.006385  -0.016945  0.005634  3.939869  0.006
C  C28  1  0.83503758  0.90454448  0.60161014  1  -0.050268  0.007997  3.717119  0.009  -0.024141  0.004662  3.954503  0.005  -0.035576  0.003394  3.977092  0.004  -0.006529  -0.017031  0.005636  3.939409  0.006
C  C29  1  0.05097310  0.08898925  0.35665069  1  -0.076569  -0.001196  3.685679  -0.001  -0.119386  -0.00018  3.94575  0.0  -0.113945  -0.000354  3.962117  0.0  -0.063945  -0.122538  -9.5e-05  3.934743  0.0
C  C30  1  0.94902928  0.91101851  0.64336035  1  -0.076556  -0.001209  3.685223  -0.001  -0.119309  -0.000184  3.945294  0.0  -0.113866  -0.000345  3.961667  0.0  -0.063834  -0.122457  -9.6e-05  3.934286  0.0
C  C31  1  0.05214281  0.96429043  0.32978295  1  0.053179  0.000185  3.720861  0.0  0.048317  5.9e-05  3.982973  0.0  0.041476  7.9e-05  4.007513  0.0  0.07478  0.052597  1.5e-05  3.966412  0.0
C  C32  1  0.94786456  0.03572004  0.67022138  1  0.053115  0.000209  3.720691  0.0  0.048171  6.2e-05  3.98288  0.0  0.04133  7.6e-05  4.007419  0.0  0.074698  0.052445  1.5e-05  3.966318  0.0
C  C33  1  0.16007273  0.84461484  0.34822853  1  -0.066888  -0.00071  3.644058  0.0  -0.105233  -0.000133  3.896304  0.0  -0.099989  -0.000348  3.912936  0.0  -0.057321  -0.10836  -6e-06  3.884872  0.0
C  C34  1  0.83991497  0.15538628  0.65178485  1  -0.066943  -0.000713  3.643984  0.0  -0.105258  -0.000142  3.896202  0.0  -0.100016  -0.000335  3.912835  0.0  -0.057333  -0.108381  -5e-06  3.884766  0.0
C  C35  1  0.37931472  0.72680648  0.43016238  1  0.738514  0.0001  3.847388  0.0  0.695447  8.5e-05  4.131708  0.0  0.731187  4.8e-05  4.12087  0.0  0.24497  0.671164  0.000128  4.138574  0.0
C  C36  1  0.62066466  0.27320047  0.56984193  1  0.738787  0.000111  3.847091  0.0  0.695662  8.2e-05  4.131437  0.0  0.731404  4.9e-05  4.120596  0.0  0.245161  0.671382  0.000128  4.138294  0.0
C  C37  1  0.16076534  0.23103265  0.42805095  1  0.696793  -0.007074  3.859108  -0.007  0.649492  -0.00182  4.162002  -0.003  0.688429  -0.002224  4.153038  -0.002  0.228093  0.623305  -0.001421  4.166658  -0.003
C  C38  1  0.83923211  0.76896130  0.57196159  1  0.696715  -0.007055  3.859297  -0.007  0.649547  -0.001823  4.162011  -0.003  0.688489  -0.002222  4.153043  -0.002  0.22812  0.623355  -0.001422  4.166676  -0.003
C  C39  1  0.91048950  0.41310486  0.87167973  1  -0.069838  0.007263  3.725917  0.008  -0.045955  0.004693  3.966845  0.005  -0.058817  0.003516  3.99115  0.004  -0.012209  -0.037706  0.005574  3.950543  0.006
C  C40  1  0.08951871  0.58689245  0.12831763  1  -0.069761  0.007327  3.72588  0.008  -0.045905  0.004692  3.966757  0.005  -0.058767  0.003516  3.991062  0.004  -0.0122  -0.037655  0.005577  3.950457  0.006
C  C41  1  0.78430464  0.42989293  0.96402034  1  -0.016666  -0.001074  3.581581  0.0  -0.060063  -8.7e-05  3.827843  0.0  -0.054152  -0.000361  3.844453  0.0  -0.049875  -0.063382  0.000102  3.816287  0.0
C  C42  1  0.21570598  0.57008442  0.03597642  1  -0.016602  -0.0012  3.581598  0.0  -0.059956  -7.8e-05  3.827812  0.0  -0.054043  -0.000359  3.844419  0.0  -0.049949  -0.063278  0.000102  3.816258  0.0
C  C43  1  0.79382688  0.39235946  0.08276881  1  -0.047742  0.000976  3.705518  0.001  -0.019995  0.000403  3.941066  0.001  -0.031577  0.000366  3.965038  0.0  -0.007403  -0.012624  0.000482  3.924715  0.001
C  C44  1  0.20618401  0.60763875  0.91722695  1  -0.047963  0.001029  3.705306  0.001  -0.020225  0.000397  3.940863  0.001  -0.031809  0.000366  3.964836  0.0  -0.007461  -0.01285  0.000482  3.924513  0.001
C  C45  1  0.92938013  0.33864595  0.10920838  1  -0.067502  -0.001958  3.654088  -0.001  -0.110211  -0.000797  3.914259  0.0  -0.104787  -0.000864  3.930237  0.0  -0.061097  -0.113301  -0.000763  3.903419  0.0
C  C46  1  0.07062586  0.66133820  0.89078011  1  -0.067341  -0.002025  3.65358  -0.001  -0.110131  -0.000789  3.913769  0.0  -0.104705  -0.000863  3.929743  0.0  -0.060961  -0.11322  -0.000764  3.902924  0.0
C  C47  1  0.05363175  0.31907806  0.01490632  1  0.055853  0.000455  3.720657  0.001  0.047154  6.3e-05  3.975775  0.0  0.04064  0.000145  4.000235  0.0  0.071764  0.051098  2.8e-05  3.959344  0.0
C  C48  1  0.94636435  0.68091651  0.98509242  1  0.055869  0.000485  3.72035  0.001  0.047151  6.6e-05  3.975381  0.0  0.040639  0.000142  3.999835  0.0  0.071692  0.051096  2.8e-05  3.958951  0.0
C  C49  1  0.04681234  0.35484518  0.89646813  1  -0.066458  -0.00176  3.684019  -0.001  -0.110176  -0.000305  3.947241  0.0  -0.104132  -0.000516  3.962698  0.0  -0.062619  -0.113741  -0.000187  3.936812  0.0
C  C50  1  0.95319426  0.64514020  0.10352889  1  -0.066461  -0.001833  3.683986  -0.001  -0.110148  -0.000303  3.947095  0.0  -0.104108  -0.000513  3.962555  0.0  -0.062551  -0.113712  -0.000186  3.936669  0.0
C  C51  1  0.89998502  0.45660642  0.74584138  1  0.70314  -0.006531  3.858376  -0.006  0.653405  -0.002197  4.158642  -0.003  0.691495  -0.002663  4.150127  -0.003  0.231019  0.627759  -0.001647  4.163401  -0.003
C  C52  1  0.10002181  0.54338123  0.25416506  1  0.703028  -0.006547  3.858527  -0.006  0.653299  -0.002198  4.158812  -0.003  0.691393  -0.002665  4.150298  -0.003  0.231102  0.627655  -0.001649  4.163572  -0.003
C  C53  1  0.65948977  0.40494975  0.18091837  1  0.648499  8.4e-05  3.931262  0.0  0.600428  7.2e-05  4.226364  0.0  0.634365  4.1e-05  4.21959  0.0  0.199917  0.577602  0.00011  4.230097  0.0
C  C54  1  0.34052515  0.59502139  0.81907262  1  0.648727  0.000108  3.931116  0.0  0.600707  7e-05  4.226126  0.0  0.634647  4.3e-05  4.21935  0.0  0.200046  0.577878  0.00011  4.229863  0.0
N  N55  1  0.93099912  0.96086170  0.28628219  1  0.499586  -4.9e-05  3.900424  0.0  0.526606  -1.7e-05  4.198617  0.0  0.547568  -2e-06  4.208335  0.0  0.059751  0.512499  5e-06  4.192166  0.0
N  N56  1  0.06899815  0.03915680  0.71371859  1  0.49979  -7e-05  3.900434  0.0  0.526819  -2e-05  4.198632  0.0  0.547784  -3e-06  4.208344  0.0  0.059727  0.512712  5e-06  4.192182  0.0
N  N57  1  0.19754626  0.25994131  0.04088683  1  0.469123  -3e-06  3.958596  0.0  0.524806  -1.8e-05  4.216237  0.0  0.5452  -3.3e-05  4.226456  0.0  0.056705  0.511209  -2e-06  4.209194  0.0
N  N58  1  0.80245612  0.74005802  0.95910823  1  0.468921  -8.3e-05  3.95887  0.0  0.524798  -1.9e-05  4.216232  0.0  0.545195  -3.6e-05  4.226445  0.0  0.056712  0.511199  -2e-06  4.209191  0.0
O  O59  1  0.39139815  0.61363150  0.39236289  1  -0.749142  0.000475  2.034623  0.001  -0.707767  0.000176  2.290091  0.0  -0.733081  0.0001  2.276564  0.0  -0.399242  -0.690166  0.00022  2.298999  0.0
O  O60  1  0.60859760  0.38637229  0.60764481  1  -0.749269  0.000468  2.034757  0.001  -0.707865  0.000177  2.290198  0.0  -0.733182  9.7e-05  2.276673  0.0  -0.39932  -0.690266  0.00022  2.299103  0.0
O  O61  1  0.44825232  0.74507400  0.50102313  1  -0.719712  8.8e-05  2.016862  0.0  -0.67877  3.9e-05  2.261481  0.0  -0.703945  3.8e-05  2.248782  0.0  -0.400494  -0.661087  9.9e-05  2.269644  0.0
O  O62  1  0.55173723  0.25491382  0.49897953  1  -0.719836  8.8e-05  2.016665  0.0  -0.678903  4.1e-05  2.261319  0.0  -0.704074  3.9e-05  2.248617  0.0  -0.4006  -0.661219  9.9e-05  2.269471  0.0
O  O63  1  0.27548055  0.24780896  0.42945090  1  -0.71298  -0.001511  2.01868  0.0  -0.676711  -0.001308  2.272802  0.0  -0.702164  -0.001909  2.259614  -0.001  -0.380042  -0.659044  -0.000727  2.281304  0.001
O  O64  1  0.72450944  0.75219422  0.57056614  1  -0.712999  -0.001514  2.018932  0.0  -0.676743  -0.001307  2.272954  0.0  -0.702191  -0.001913  2.259759  -0.001  -0.379983  -0.659082  -0.000728  2.28146  0.001
O  O65  1  0.03276115  0.32133139  0.45062465  1  -0.590907  0.083305  2.091124  0.115  -0.567876  0.052298  2.384324  0.079  -0.612596  0.039784  2.373515  0.065  -0.314972  -0.537615  0.060581  2.390383  0.086
O  O66  1  0.96724186  0.67866899  0.54937281  1  -0.590795  0.083298  2.091165  0.115  -0.567828  0.052303  2.384379  0.079  -0.612553  0.039788  2.373568  0.065  -0.314992  -0.53757  0.060584  2.390427  0.086
O  O67  1  0.85025072  0.06890458  0.25307392  1  -0.385886  -4.2e-05  1.786745  0.0  -0.360004  -3.8e-05  1.991777  0.0  -0.374633  -4.8e-05  1.987302  0.0  -0.124729  -0.350517  3e-06  1.995469  0.0
O  O68  1  0.14974717  0.93110661  0.74691591  1  -0.385994  -2.2e-05  1.786809  0.0  -0.360134  -3.9e-05  1.991876  0.0  -0.374763  -4.5e-05  1.987399  0.0  -0.124785  -0.350645  3e-06  1.995572  0.0
O  O69  1  0.91376153  0.85318857  0.28514386  1  -0.331947  3e-05  1.782493  0.0  -0.31217  1.1e-05  1.98841  0.0  -0.323409  -3e-06  1.985965  0.0  -0.109298  -0.304894  9e-06  1.990426  0.0
O  O70  1  0.08623903  0.14683410  0.71483203  1  -0.331996  1.9e-05  1.782427  0.0  -0.312173  1.4e-05  1.988321  0.0  -0.323413  -7e-06  1.98587  0.0  -0.109183  -0.304894  9e-06  1.990337  0.0
O  O71  1  0.01929656  0.43814813  0.66539466  1  -0.606355  0.073923  2.130202  0.102  -0.559694  0.052764  2.394239  0.079  -0.60309  0.040796  2.384939  0.066  -0.302105  -0.530991  0.060324  2.399907  0.086
O  O72  1  0.98070328  0.56185539  0.33460593  1  -0.606229  0.073927  2.130199  0.102  -0.559641  0.052764  2.3943  0.079  -0.603031  0.040798  2.384995  0.066  -0.3021  -0.530938  0.060322  2.39997  0.086
O  O73  1  0.77680937  0.50732744  0.72411101  1  -0.751865  -0.001944  2.093235  0.0  -0.721428  -0.001624  2.370309  0.0  -0.745961  -0.002231  2.354838  0.0  -0.394897  -0.704235  -0.001075  2.380198  0.001
O  O74  1  0.22320533  0.49266862  0.27588139  1  -0.751836  -0.001937  2.093279  0.0  -0.721389  -0.001625  2.370353  0.0  -0.74592  -0.002232  2.35488  0.0  -0.394936  -0.704199  -0.001074  2.380253  0.001
O  O75  1  0.53994629  0.43192794  0.15414647  1  -0.664864  5.7e-05  1.937075  0.0  -0.629354  1.1e-05  2.165088  0.0  -0.652043  2.4e-05  2.154235  0.0  -0.355154  -0.613768  2.1e-05  2.17222  0.0
O  O76  1  0.46005884  0.56806959  0.84585688  1  -0.664957  4.6e-05  1.937084  0.0  -0.629472  1.5e-05  2.165064  0.0  -0.652158  2.1e-05  2.154209  0.0  -0.355173  -0.613884  2.1e-05  2.172197  0.0
O  O77  1  0.67108228  0.38093594  0.29107756  1  -0.727387  0.000176  2.046573  0.0  -0.674929  8.2e-05  2.280345  0.0  -0.700874  5.7e-05  2.270193  0.0  -0.373827  -0.656797  0.000155  2.287007  0.0
O  O78  1  0.32891983  0.61906139  0.70891687  1  -0.727423  0.000173  2.046542  0.0  -0.674993  8.1e-05  2.280318  0.0  -0.700941  5.8e-05  2.270168  0.0  -0.373886  -0.656861  0.000155  2.286981  0.0
O  O79  1  0.20163892  0.24113870  0.14904223  1  -0.349344  5.2e-05  1.771316  0.0  -0.341357  -2e-05  1.965428  0.0  -0.354766  8e-06  1.963354  0.0  -0.122635  -0.332285  -2.6e-05  1.966901  0.0
O  O80  1  0.79836617  0.75886968  0.85095756  1  -0.349162  6.4e-05  1.771444  0.0  -0.341289  -2.1e-05  1.965518  0.0  -0.354694  5e-06  1.96344  0.0  -0.122594  -0.332224  -2.6e-05  1.966994  0.0
O  O81  1  0.30628766  0.23298775  0.95374704  1  -0.341373  -3.5e-05  1.706002  0.0  -0.339376  -1.5e-05  1.876279  0.0  -0.349963  -1.5e-05  1.872853  0.0  -0.135309  -0.332175  -2.4e-05  1.878788  0.0
O  O82  1  0.69372170  0.76699587  0.04625915  1  -0.341306  2.3e-05  1.705917  0.0  -0.339377  -1.7e-05  1.876108  0.0  -0.349967  -1e-05  1.87268  0.0  -0.135325  -0.332176  -2.4e-05  1.878617  0.0
O  O83  1  0.44662115  0.83241390  0.74887610  1  -0.884549  -5e-06  1.822897  0.0  -0.847926  -1.3e-05  1.982934  0.0  -0.863587  -8e-06  1.952206  0.0  -0.610633  -0.836888  -6e-06  2.004468  0.0
O  O84  1  0.55337725  0.16759315  0.25110869  1  -0.884596  1e-06  1.823065  0.0  -0.847943  -1.2e-05  1.982988  0.0  -0.863605  -9e-06  1.952259  0.0  -0.610735  -0.83691  -6e-06  2.004523  0.0
O  O85  1  0.73136400  0.52875952  0.43051125  1  -0.958884  -0.000955  1.884547  0.0  -0.927614  -0.001124  2.089571  0.0  -0.944583  -0.00121  2.05256  0.0  -0.65899  -0.915008  -0.000964  2.115379  0.0
O  O86  1  0.26863724  0.47124292  0.56948733  1  -0.958868  -0.00096  1.884522  0.0  -0.927634  -0.001124  2.089618  0.0  -0.944579  -0.00121  2.052558  0.0  -0.659009  -0.915028  -0.000965  2.115429  0.0
