# generated using pymatgen
data_CdH24(C18N7)2
_symmetry_space_group_name_H-M   'P 1'
_cell_length_a   8.14923874
_cell_length_b   13.05437327
_cell_length_c   16.33204598
_cell_angle_alpha   85.19363819
_cell_angle_beta   75.54553876
_cell_angle_gamma   71.83328194
_symmetry_Int_Tables_number   1
_chemical_formula_structural   CdH24(C18N7)2
_chemical_formula_sum   'Cd2 H48 C72 N28'
_cell_volume   1598.55999884
_cell_formula_units_Z   2
loop_
 _symmetry_equiv_pos_site_id
 _symmetry_equiv_pos_as_xyz
  1  'x, y, z'
loop_
 _atom_site_type_symbol
 _atom_site_label
 _atom_site_symmetry_multiplicity
 _atom_site_fract_x
 _atom_site_fract_y
 _atom_site_fract_z
 _atom_site_occupancy
 _atom_site_hle17_bader_spin_density
 _atom_site_hle17_ddec_charge
 _atom_site_hle17_ddec_spin_density
 _atom_site_hle17_ddec_sum_bond_order
 _atom_site_hle17_magmom
 _atom_site_hse06_10hf_bader_spin_density
 _atom_site_hse06_10hf_ddec_charge
 _atom_site_hse06_10hf_ddec_spin_density
 _atom_site_hse06_10hf_ddec_sum_bond_order
 _atom_site_hse06_10hf_magmom
 _atom_site_hse06_bader_spin_density
 _atom_site_hse06_ddec_charge
 _atom_site_hse06_ddec_spin_density
 _atom_site_hse06_ddec_sum_bond_order
 _atom_site_hse06_magmom
 _atom_site_pbe_bader_spin_density
 _atom_site_pbe_cm5_charge
 _atom_site_pbe_ddec_charge
 _atom_site_pbe_ddec_spin_density
 _atom_site_pbe_ddec_sum_bond_order
 _atom_site_pbe_magmom
Cd  Cd0  1  0.99999963  0.49999992  0.49999994  1  0  0.937615  0  1.892712  0  0  0.717889  0  2.33663  0  0  0.765989  0  2.304002  0  0  0.776473  0.684364  0  2.358308  0
Cd  Cd1  1  0.99999998  0.00000003  0.99999998  1  0  0.937217  0  1.893997  0  0  0.717634  0  2.337687  0  0  0.765748  0  2.305056  0  0  0.776441  0.684155  0  2.359275  0
H  H2  1  0.19884373  0.21512652  0.46343221  1  0  0.105043  0  0.970931  0  0  0.106906  0  1.044806  0  0  0.110657  0  1.039985  0  0  0.132772  0.104167  0  1.048205  0
H  H3  1  0.87708370  0.28463010  0.03665376  1  0  0.103865  0  0.971731  0  0  0.105585  0  1.045797  0  0  0.109344  0  1.040951  0  0  0.132227  0.102855  0  1.049213  0
H  H4  1  0.80115832  0.78487454  0.53656780  1  0  0.105038  0  0.970969  0  0  0.106911  0  1.044822  0  0  0.110661  0  1.040002  0  0  0.132774  0.104172  0  1.048227  0
H  H5  1  0.12291287  0.71536935  0.96334745  1  0  0.103833  0  0.971753  0  0  0.105578  0  1.045799  0  0  0.109337  0  1.040952  0  0  0.132203  0.102846  0  1.049211  0
H  H6  1  0.75424144  0.15545942  0.63444370  1  0  0.121404  0  0.958521  0  0  0.132861  0  1.013814  0  0  0.135649  0  1.012665  0  0  0.124608  0.130847  0  1.014721  0
H  H7  1  0.54436397  0.34446466  0.86545943  1  0  0.123649  0  0.958501  0  0  0.134917  0  1.01373  0  0  0.137686  0  1.012561  0  0  0.125692  0.132914  0  1.014637  0
H  H8  1  0.24575907  0.84454003  0.36555737  1  0  0.12142  0  0.958488  0  0  0.132899  0  1.01376  0  0  0.135673  0  1.012628  0  0  0.124615  0.130886  0  1.014661  0
H  H9  1  0.45563648  0.65553640  0.13453964  1  0  0.12365  0  0.958495  0  0  0.13493  0  1.013708  0  0  0.137698  0  1.012542  0  0  0.12569  0.132924  0  1.014612  0
H  H10  1  0.67728327  0.37471589  0.59920273  1  0  0.105381  0  0.950495  0  0  0.116146  0  1.007695  0  0  0.118904  0  1.006506  0  0  0.1145  0.114157  0  1.008622  0
H  H11  1  0.65099648  0.12516903  0.90063203  1  0  0.105268  0  0.950348  0  0  0.116022  0  1.007768  0  0  0.118835  0  1.006505  0  0  0.114144  0.11403  0  1.008709  0
H  H12  1  0.32271758  0.62528437  0.40079635  1  0  0.105337  0  0.950527  0  0  0.116132  0  1.007698  0  0  0.118884  0  1.006517  0  0  0.114503  0.114147  0  1.008623  0
H  H13  1  0.34900216  0.87483122  0.09936673  1  0  0.105278  0  0.950337  0  0  0.11598  0  1.007813  0  0  0.1188  0  1.006541  0  0  0.114138  0.113986  0  1.008755  0
H  H14  1  0.15077051  0.82964630  0.68965310  1  0  0.088435  0  0.9773  0  0  0.102048  0  1.039337  0  0  0.103763  0  1.039755  0  0  0.09757  0.100833  0  1.039063  0
H  H15  1  0.67049651  0.67024739  0.81044653  1  0  0.087361  0  0.977871  0  0  0.101218  0  1.039635  0  0  0.102948  0  1.040056  0  0  0.097244  0.100013  0  1.039341  0
H  H16  1  0.84922738  0.17035396  0.31034765  1  0  0.08846  0  0.977271  0  0  0.102075  0  1.039306  0  0  0.103788  0  1.039728  0  0  0.097575  0.100856  0  1.039029  0
H  H17  1  0.32950452  0.32975125  0.18955317  1  0  0.087351  0  0.977864  0  0  0.101205  0  1.039635  0  0  0.102934  0  1.040056  0  0  0.097243  0.1  0  1.039338  0
H  H18  1  0.95314656  0.01199753  0.67350986  1  0  0.092769  0  0.968336  0  0  0.106169  0  1.028888  0  0  0.108595  0  1.0279  0  0  0.099415  0.104411  0  1.029696  0
H  H19  1  0.63918944  0.48785041  0.82648534  1  0  0.091306  0  0.968827  0  0  0.104826  0  1.029372  0  0  0.107254  0  1.028369  0  0  0.099252  0.103104  0  1.030143  0
H  H20  1  0.04685254  0.98800352  0.32649182  1  0  0.092821  0  0.968337  0  0  0.106215  0  1.028888  0  0  0.108642  0  1.027899  0  0  0.099421  0.104446  0  1.029707  0
H  H21  1  0.36080948  0.51214903  0.17351481  1  0  0.0913  0  0.968838  0  0  0.104823  0  1.029375  0  0  0.107251  0  1.02837  0  0  0.099256  0.103098  0  1.030145  0
H  H22  1  0.60730442  0.68215091  0.46187355  1  0  0.103227  0  0.95885  0  0  0.105623  0  1.03204  0  0  0.109527  0  1.027318  0  0  0.13352  0.102756  0  1.03544  0
H  H23  1  0.75115681  0.81794935  0.03824736  1  0  0.102758  0  0.958706  0  0  0.105812  0  1.031283  0  0  0.109541  0  1.026746  0  0  0.133552  0.1031  0  1.034511  0
H  H24  1  0.39269529  0.31785015  0.53812752  1  0  0.103259  0  0.958741  0  0  0.105626  0  1.031964  0  0  0.109524  0  1.027248  0  0  0.133503  0.102757  0  1.035368  0
H  H25  1  0.24884134  0.18205090  0.96175063  1  0  0.10277  0  0.958723  0  0  0.10582  0  1.031307  0  0  0.109553  0  1.026764  0  0  0.133513  0.103109  0  1.034537  0
H  H26  1  0.70046635  0.55078605  0.69710739  1  0  0.096809  0  0.979248  0  0  0.106687  0  1.04118  0  0  0.108923  0  1.040649  0  0  0.112371  0.105066  0  1.041645  0
H  H27  1  0.94872060  0.94921240  0.80299738  1  0  0.097447  0  0.979079  0  0  0.107143  0  1.04146  0  0  0.109469  0  1.040774  0  0  0.112551  0.105477  0  1.042031  0
H  H28  1  0.29953053  0.44921501  0.30289397  1  0  0.096807  0  0.97931  0  0  0.106694  0  1.041226  0  0  0.10892  0  1.040708  0  0  0.11238  0.10507  0  1.041694  0
H  H29  1  0.05128964  0.05078382  0.19700068  1  0  0.097377  0  0.979067  0  0  0.107074  0  1.041473  0  0  0.109401  0  1.040787  0  0  0.11251  0.105418  0  1.042016  0
H  H30  1  0.40911503  0.73550388  0.72493627  1  0  0.114559  0  0.956352  0  0  0.126648  0  1.013172  0  0  0.129553  0  1.011537  0  0  0.124474  0.124567  0  1.014414  0
H  H31  1  0.86978768  0.76445750  0.77517114  1  0  0.114252  0  0.956181  0  0  0.12685  0  1.012471  0  0  0.129739  0  1.010859  0  0  0.124669  0.124757  0  1.013722  0
H  H32  1  0.59087954  0.26449637  0.27506400  1  0  0.114579  0  0.956231  0  0  0.126677  0  1.013054  0  0  0.129582  0  1.011418  0  0  0.124459  0.12459  0  1.014301  0
H  H33  1  0.13021712  0.23553953  0.22482689  1  0  0.114116  0  0.956259  0  0  0.126747  0  1.01252  0  0  0.129634  0  1.010906  0  0  0.124626  0.124664  0  1.013765  0
H  H34  1  0.40956788  0.11503237  0.25875815  1  0  0.101001  0  0.975873  0  0  0.105595  0  1.048366  0  0  0.109628  0  1.046177  0  0  0.099952  0.102724  0  1.050039  0
H  H35  1  0.78347697  0.38482209  0.24141916  1  0  0.100811  0  0.976677  0  0  0.105227  0  1.049378  0  0  0.109205  0  1.047218  0  0  0.100061  0.102405  0  1.051008  0
H  H36  1  0.59042908  0.88496949  0.74124398  1  0  0.101023  0  0.975855  0  0  0.105619  0  1.04834  0  0  0.109652  0  1.04615  0  0  0.099966  0.102752  0  1.050015  0
H  H37  1  0.21652176  0.61517897  0.75858036  1  0  0.100774  0  0.97669  0  0  0.105196  0  1.04938  0  0  0.109173  0  1.047222  0  0  0.100059  0.102372  0  1.051024  0
H  H38  1  0.61466240  0.12277153  0.11633308  1  0  0.077245  0  0.958629  0  0  0.082658  0  1.026172  0  0  0.085407  0  1.024298  0  0  0.107902  0.080706  0  1.027476  0
H  H39  1  0.85393474  0.37718689  0.38380517  1  0  0.076644  0  0.958613  0  0  0.081989  0  1.026332  0  0  0.084785  0  1.024405  0  0  0.107825  0.080029  0  1.02763  0
H  H40  1  0.38533497  0.87722953  0.88366906  1  0  0.077209  0  0.958657  0  0  0.082634  0  1.02619  0  0  0.085382  0  1.024318  0  0  0.107905  0.080703  0  1.027475  0
H  H41  1  0.14606236  0.62281175  0.61619466  1  0  0.076675  0  0.958601  0  0  0.082032  0  1.026302  0  0  0.084828  0  1.024374  0  0  0.107843  0.080076  0  1.027604  0
H  H42  1  0.98720115  0.84124992  0.16553611  1  0  0.064903  0  0.978586  0  0  0.072551  0  1.046467  0  0  0.074509  0  1.045669  0  0  0.106699  0.071117  0  1.047132  0
H  H43  1  0.99403595  0.65886042  0.33451204  1  0  0.063808  0  0.979958  0  0  0.071662  0  1.047576  0  0  0.073626  0  1.046751  0  0  0.10615  0.070199  0  1.04827  0
H  H44  1  0.01279616  0.15875275  0.83446403  1  0  0.064912  0  0.978538  0  0  0.072519  0  1.04645  0  0  0.074476  0  1.045655  0  0  0.106692  0.071085  0  1.047116  0
H  H45  1  0.00596860  0.34113661  0.66548875  1  0  0.063791  0  0.979963  0  0  0.071646  0  1.047588  0  0  0.073609  0  1.046763  0  0  0.10613  0.070185  0  1.048277  0
H  H46  1  0.79536168  0.82224749  0.30908014  1  0  0.108484  0  0.967132  0  0  0.113977  0  1.036309  0  0  0.11776  0  1.034246  0  0  0.104378  0.111279  0  1.037886  0
H  H47  1  0.92670055  0.67777780  0.19097968  1  0  0.109674  0  0.965153  0  0  0.115602  0  1.033851  0  0  0.119408  0  1.031734  0  0  0.105045  0.112875  0  1.035499  0
H  H48  1  0.20463594  0.17775357  0.69091922  1  0  0.108463  0  0.967133  0  0  0.113961  0  1.036314  0  0  0.117748  0  1.03424  0  0  0.104357  0.111261  0  1.037895  0
H  H49  1  0.07330532  0.32222003  0.80902067  1  0  0.109747  0  0.965078  0  0  0.115629  0  1.033824  0  0  0.119438  0  1.031707  0  0  0.105037  0.112901  0  1.035475  0
C  C50  1  0.06743074  0.23293780  0.50511120  1  0  0.180277  0  3.611596  0  0  0.11835  0  3.882053  0  0  0.133592  0  3.891299  0  0  0.142747  0.108482  0  3.875557  0
C  C51  1  0.80535467  0.26684255  0.99486848  1  0  0.181126  0  3.613317  0  0  0.119678  0  3.883699  0  0  0.134899  0  3.892953  0  0  0.142966  0.109826  0  3.877189  0
C  C52  1  0.93256786  0.76706326  0.49488971  1  0  0.180285  0  3.611554  0  0  0.118336  0  3.882028  0  0  0.133578  0  3.891273  0  0  0.142734  0.108468  0  3.875537  0
C  C53  1  0.19464190  0.73315690  0.00513273  1  0  0.181109  0  3.613281  0  0  0.119616  0  3.883691  0  0  0.134836  0  3.892946  0  0  0.142933  0.109761  0  3.877183  0
C  C54  1  0.83520957  0.20160467  0.59596959  1  0  -0.058953  0  3.674008  0  0  -0.100351  0  3.93297  0  0  -0.097508  0  3.950781  0  0  0.000321  -0.10218  0  3.921039  0
C  C55  1  0.63294308  0.29827279  0.90390593  1  0  -0.063101  0  3.675117  0  0  -0.104382  0  3.934334  0  0  -0.101502  0  3.952105  0  0  -0.001141  -0.106213  0  3.922429  0
C  C56  1  0.16479054  0.79839558  0.40403148  1  0  -0.058905  0  3.673967  0  0  -0.100335  0  3.932933  0  0  -0.097481  0  3.95075  0  0  0.000334  -0.102161  0  3.920993  0
C  C57  1  0.36705645  0.70172666  0.09609360  1  0  -0.063126  0  3.675089  0  0  -0.104418  0  3.934291  0  0  -0.101539  0  3.952067  0  0  -0.001146  -0.106244  0  3.922375  0
C  C58  1  0.79840305  0.30968220  0.57721034  1  0  -0.021606  0  3.778241  0  0  -0.055089  0  4.050454  0  0  -0.054283  0  4.069766  0  0  -0.014367  -0.055615  0  4.037405  0
C  C59  1  0.68505218  0.19019547  0.92271813  1  0  -0.021374  0  3.779749  0  0  -0.055073  0  4.052279  0  0  -0.054292  0  4.071586  0  0  -0.014644  -0.055601  0  4.039207  0
C  C60  1  0.20159679  0.69031886  0.42278934  1  0  -0.021589  0  3.778247  0  0  -0.055098  0  4.050467  0  0  -0.054286  0  4.069779  0  0  -0.014386  -0.055617  0  4.037415  0
C  C61  1  0.31494544  0.80980559  0.07728124  1  0  -0.021362  0  3.779677  0  0  -0.055021  0  4.052216  0  0  -0.054246  0  4.07152  0  0  -0.014622  -0.055547  0  4.039141  0
C  C62  1  0.11079238  0.04395930  0.55336231  1  0  0.113531  0  3.758872  0  0  0.09997  0  4.013187  0  0  0.104636  0  4.034962  0  0  0.09031  0.09684  0  3.998496  0
C  C63  1  0.70849009  0.45583318  0.94664252  1  0  0.114195  0  3.756319  0  0  0.100886  0  4.010517  0  0  0.105542  0  4.032322  0  0  0.091652  0.097776  0  3.995805  0
C  C64  1  0.88920539  0.95604095  0.44663983  1  0  0.113646  0  3.758879  0  0  0.100009  0  4.013263  0  0  0.104679  0  4.035035  0  0  0.090306  0.096854  0  3.998596  0
C  C65  1  0.29150882  0.54416627  0.05335763  1  0  0.114177  0  3.756243  0  0  0.100807  0  4.010508  0  0  0.105462  0  4.032314  0  0  0.09162  0.097703  0  3.995795  0
C  C66  1  0.26130755  0.99903743  0.48803536  1  0  0.089596  0  3.832287  0  0  0.085566  0  4.088357  0  0  0.087521  0  4.111303  0  0  0.083995  0.084196  0  4.0729  0
C  C67  1  0.74864226  0.50076554  0.01201633  1  0  0.08952  0  3.832926  0  0  0.085441  0  4.088953  0  0  0.087408  0  4.111916  0  0  0.082913  0.084057  0  4.073494  0
C  C68  1  0.73869256  0.00096283  0.51196571  1  0  0.089629  0  3.832351  0  0  0.085619  0  4.088386  0  0  0.087573  0  4.111331  0  0  0.084028  0.084254  0  4.072938  0
C  C69  1  0.25135797  0.49923471  0.98798337  1  0  0.089533  0  3.832904  0  0  0.085465  0  4.088923  0  0  0.087432  0  4.111887  0  0  0.082935  0.084071  0  4.073471  0
C  C70  1  0.37902176  0.89295344  0.49807613  1  0  0.08637  0  3.853307  0  0  0.082775  0  4.10942  0  0  0.084645  0  4.133301  0  0  0.08234  0.081468  0  4.093335  0
C  C71  1  0.77036086  0.60686380  0.00198785  1  0  0.086143  0  3.855929  0  0  0.082305  0  4.111646  0  0  0.084134  0  4.135588  0  0  0.082719  0.081014  0  4.095549  0
C  C72  1  0.62097613  0.10704682  0.50192463  1  0  0.086325  0  3.853337  0  0  0.082791  0  4.109358  0  0  0.084661  0  4.133238  0  0  0.082344  0.081489  0  4.093268  0
C  C73  1  0.22964150  0.39313564  0.99801140  1  0  0.086118  0  3.856052  0  0  0.082314  0  4.111685  0  0  0.084139  0  4.13563  0  0  0.082718  0.08103  0  4.095585  0
C  C74  1  0.34150435  0.83301037  0.57251232  1  0  0.107547  0  3.770961  0  0  0.093143  0  4.027113  0  0  0.096891  0  4.050139  0  0  0.084707  0.090637  0  4.011571  0
C  C75  1  0.74737970  0.66685973  0.92757698  1  0  0.107648  0  3.77271  0  0  0.094312  0  4.027085  0  0  0.098121  0  4.050045  0  0  0.085297  0.091749  0  4.011621  0
C  C76  1  0.65849355  0.16698989  0.42748843  1  0  0.107533  0  3.770806  0  0  0.093099  0  4.026959  0  0  0.096847  0  4.049983  0  0  0.084674  0.090581  0  4.011422  0
C  C77  1  0.25262257  0.33313891  0.07242150  1  0  0.10753  0  3.772786  0  0  0.094232  0  4.027078  0  0  0.098045  0  4.050033  0  0  0.085257  0.091666  0  4.011612  0
C  C78  1  0.18465857  0.87597972  0.63282496  1  0  -0.15893  0  3.797099  0  0  -0.184618  0  4.065143  0  0  -0.188822  0  4.08889  0  0  -0.11092  -0.181596  0  4.048811  0
C  C79  1  0.69397036  0.62386361  0.86722770  1  0  -0.158973  0  3.798007  0  0  -0.185192  0  4.065951  0  0  -0.189437  0  4.089697  0  0  -0.111523  -0.182155  0  4.049648  0
C  C80  1  0.81533871  0.12402054  0.36717641  1  0  -0.158941  0  3.7971  0  0  -0.184618  0  4.065137  0  0  -0.188823  0  4.088884  0  0  -0.110918  -0.181587  0  4.048787  0
C  C81  1  0.30602957  0.37613503  0.13277184  1  0  -0.158908  0  3.797983  0  0  -0.18514  0  4.065904  0  0  -0.189385  0  4.08965  0  0  -0.111506  -0.182095  0  4.04959  0
C  C82  1  0.07175490  0.98020471  0.62369589  1  0  -0.147757  0  3.800887  0  0  -0.177313  0  4.074038  0  0  -0.181167  0  4.096589  0  0  -0.107035  -0.174574  0  4.058611  0
C  C83  1  0.67617242  0.51961330  0.87631492  1  0  -0.146066  0  3.798674  0  0  -0.175683  0  4.071806  0  0  -0.179529  0  4.094393  0  0  -0.106833  -0.172994  0  4.056361  0
C  C84  1  0.92824481  0.01979635  0.37630518  1  0  -0.147871  0  3.800892  0  0  -0.177406  0  4.074057  0  0  -0.181261  0  4.096607  0  0  -0.107048  -0.174648  0  4.058626  0
C  C85  1  0.32382710  0.48038614  0.12368461  1  0  -0.146036  0  3.798725  0  0  -0.175637  0  4.071861  0  0  -0.179481  0  4.094449  0  0  -0.106819  -0.172949  0  4.056407  0
C  C86  1  0.59361488  0.66650590  0.52905773  1  0  0.171647  0  3.629628  0  0  0.111211  0  3.897347  0  0  0.125803  0  3.906933  0  0  0.140641  0.101803  0  3.890579  0
C  C87  1  0.78930128  0.83349212  0.97105122  1  0  0.173801  0  3.628685  0  0  0.112854  0  3.896207  0  0  0.127569  0  3.905928  0  0  0.14195  0.103342  0  3.889355  0
C  C88  1  0.40638437  0.33349758  0.47094133  1  0  0.1716  0  3.629677  0  0  0.111183  0  3.897401  0  0  0.12578  0  3.906991  0  0  0.140646  0.101765  0  3.890648  0
C  C89  1  0.21069646  0.16650894  0.02894677  1  0  0.173595  0  3.628808  0  0  0.112643  0  3.89634  0  0  0.127356  0  3.906064  0  0  0.141922  0.103122  0  3.889496  0
C  C90  1  0.63588400  0.60384266  0.65227105  1  0  -0.012604  0  3.783115  0  0  -0.045513  0  4.047978  0  0  -0.043749  0  4.06798  0  0  -0.012085  -0.046645  0  4.034447  0
C  C91  1  0.89225902  0.89614291  0.84783187  1  0  -0.013424  0  3.78566  0  0  -0.046392  0  4.05085  0  0  -0.044637  0  4.070851  0  0  -0.011842  -0.047513  0  4.037272  0
C  C92  1  0.36411350  0.39615839  0.34772970  1  0  -0.012701  0  3.783297  0  0  -0.045622  0  4.048167  0  0  -0.043848  0  4.068173  0  0  -0.012151  -0.046755  0  4.034641  0
C  C93  1  0.10775033  0.10385412  0.15216542  1  0  -0.013318  0  3.785636  0  0  -0.046296  0  4.050819  0  0  -0.04454  0  4.07082  0  0  -0.011749  -0.047408  0  4.03723  0
C  C94  1  0.49133579  0.69439129  0.66721241  1  0  -0.066703  0  3.681368  0  0  -0.104737  0  3.937041  0  0  -0.102926  0  3.954588  0  0  -0.001437  -0.105911  0  3.925302  0
C  C95  1  0.85312445  0.80559728  0.83290051  1  0  -0.06646  0  3.679443  0  0  -0.105139  0  3.935173  0  0  -0.103339  0  3.952715  0  0  -0.002378  -0.106287  0  3.923412  0
C  C96  1  0.50866038  0.30560896  0.33278880  1  0  -0.066723  0  3.681213  0  0  -0.104767  0  3.936883  0  0  -0.102957  0  3.954429  0  0  -0.001433  -0.105938  0  3.925138  0
C  C97  1  0.14688247  0.19439894  0.16709707  1  0  -0.066292  0  3.679439  0  0  -0.105  0  3.935175  0  0  -0.103197  0  3.952713  0  0  -0.002311  -0.106164  0  3.923414  0
C  C98  1  0.47464098  0.95855241  0.37826479  1  0  0.296574  0  3.835689  0  0  0.282206  0  4.107122  0  0  0.293109  0  4.122799  0  0  0.188073  0.275182  0  4.095962  0
C  C99  1  0.81172201  0.54126671  0.12180325  1  0  0.293345  0  3.837767  0  0  0.279501  0  4.1092  0  0  0.290336  0  4.125023  0  0  0.186501  0.272517  0  4.097954  0
C  C100  1  0.52535811  0.04144864  0.62173690  1  0  0.296666  0  3.835533  0  0  0.282279  0  4.106979  0  0  0.29318  0  4.12266  0  0  0.188117  0.275255  0  4.095822  0
C  C101  1  0.18828097  0.45873274  0.87819538  1  0  0.293336  0  3.837803  0  0  0.279524  0  4.109189  0  0  0.29036  0  4.12501  0  0  0.186494  0.272534  0  4.097952  0
C  C102  1  0.58683954  0.96713366  0.29510926  1  0  0.076444  0  3.761073  0  0  0.090837  0  3.983568  0  0  0.096039  0  4.002127  0  0  0.016721  0.087393  0  3.970865  0
C  C103  1  0.84927225  0.53275741  0.20497462  1  0  0.077229  0  3.757496  0  0  0.090348  0  3.981549  0  0  0.095533  0  4.000155  0  0  0.016938  0.086898  0  3.968869  0
C  C104  1  0.41315755  0.03286820  0.70489148  1  0  0.076372  0  3.761041  0  0  0.090799  0  3.983504  0  0  0.096001  0  4.002061  0  0  0.016691  0.087352  0  3.97081  0
C  C105  1  0.15073122  0.46724204  0.79502478  1  0  0.077242  0  3.757573  0  0  0.09036  0  3.981609  0  0  0.095545  0  4.000216  0  0  0.016946  0.086914  0  3.968927  0
C  C106  1  0.53665556  0.05305993  0.23956607  1  0  -0.159172  0  3.731524  0  0  -0.177983  0  3.979125  0  0  -0.185016  0  3.998714  0  0  -0.089808  -0.17334  0  3.965913  0
C  C107  1  0.82946687  0.44683060  0.26055327  1  0  -0.157572  0  3.728961  0  0  -0.175692  0  3.976537  0  0  -0.182724  0  3.99628  0  0  -0.08922  -0.1711  0  3.963298  0
C  C108  1  0.46334394  0.94694033  0.76043561  1  0  -0.159152  0  3.731373  0  0  -0.177974  0  3.978962  0  0  -0.185005  0  3.998547  0  0  -0.089819  -0.173334  0  3.965769  0
C  C109  1  0.17053328  0.55316885  0.73944566  1  0  -0.157509  0  3.728958  0  0  -0.175633  0  3.976539  0  0  -0.182668  0  3.996284  0  0  -0.0892  -0.171038  0  3.963301  0
C  C110  1  0.64972235  0.05736650  0.16106898  1  0  0.107367  0  3.742234  0  0  0.080772  0  3.989361  0  0  0.087941  0  4.006651  0  0  0.03094  0.075751  0  3.9782  0
C  C111  1  0.86824252  0.44261557  0.33905183  1  0  0.106546  0  3.741141  0  0  0.079951  0  3.988624  0  0  0.08725  0  4.005557  0  0  0.029829  0.074938  0  3.977496  0
C  C112  1  0.35027434  0.94263617  0.83893177  1  0  0.107389  0  3.742366  0  0  0.080782  0  3.989508  0  0  0.087952  0  4.006799  0  0  0.030933  0.075744  0  3.978346  0
C  C113  1  0.13175528  0.55738387  0.66094816  1  0  0.106497  0  3.7412  0  0  0.079889  0  3.988685  0  0  0.087194  0  4.005609  0  0  0.029811  0.074869  0  3.977568  0
C  C114  1  0.85725265  0.89987971  0.18812544  1  0  0.103865  0  3.748942  0  0  0.077609  0  3.996635  0  0  0.084491  0  4.014073  0  0  0.030855  0.072937  0  3.985068  0
C  C115  1  0.94530192  0.60017456  0.31194541  1  0  0.106233  0  3.749616  0  0  0.080087  0  3.997038  0  0  0.08696  0  4.014526  0  0  0.032263  0.075624  0  3.985106  0
C  C116  1  0.14274444  0.10012215  0.81187530  1  0  0.10394  0  3.748761  0  0  0.077734  0  3.996447  0  0  0.084614  0  4.01389  0  0  0.030894  0.073086  0  3.984836  0
C  C117  1  0.05470022  0.39982408  0.68805445  1  0  0.106281  0  3.749601  0  0  0.080137  0  3.997018  0  0  0.087011  0  4.014511  0  0  0.03228  0.075671  0  3.985082  0
C  C118  1  0.75208742  0.88927844  0.26735704  1  0  -0.143791  0  3.715142  0  0  -0.160848  0  3.958567  0  0  -0.167055  0  3.977342  0  0  -0.084989  -0.156814  0  3.945987  0
C  C119  1  0.90887355  0.61069761  0.23271025  1  0  -0.14588  0  3.713094  0  0  -0.163084  0  3.956946  0  0  -0.169312  0  3.975746  0  0  -0.08542  -0.159069  0  3.94436  0
C  C120  1  0.24791201  0.11072343  0.73264264  1  0  -0.143823  0  3.715134  0  0  -0.160897  0  3.958541  0  0  -0.167103  0  3.977317  0  0  -0.084986  -0.156862  0  3.945962  0
C  C121  1  0.09113072  0.38930023  0.76728916  1  0  -0.145957  0  3.713074  0  0  -0.163143  0  3.956963  0  0  -0.169373  0  3.97576  0  0  -0.085403  -0.15913  0  3.944381  0
N  N122  1  0.94458083  0.32845746  0.52079098  1  0  -0.393703  0  3.232798  0  0  -0.318982  0  3.513406  0  0  -0.338827  0  3.530942  0  0  -0.358509  -0.305356  0  3.500928  0
N  N123  1  0.79358419  0.17135718  0.97911699  1  0  -0.39349  0  3.235982  0  0  -0.318676  0  3.516165  0  0  -0.33856  0  3.533805  0  0  -0.357706  -0.305029  0  3.503629  0
N  N124  1  0.05541980  0.67154198  0.47920872  1  0  -0.39371  0  3.232758  0  0  -0.318979  0  3.513371  0  0  -0.338827  0  3.530911  0  0  -0.358507  -0.305359  0  3.500898  0
N  N125  1  0.20641211  0.82864308  0.02088283  1  0  -0.393429  0  3.235865  0  0  -0.318592  0  3.516031  0  0  -0.338477  0  3.533677  0  0  -0.357675  -0.304948  0  3.503496  0
N  N126  1  0.00683519  0.15326154  0.54969499  1  0  -0.066058  0  3.578505  0  0  0.02483  0  3.786911  0  0  0.010343  0  3.811861  0  0  -0.217225  0.03432  0  3.770023  0
N  N127  1  0.70996556  0.34656546  0.95023300  1  0  -0.064103  0  3.579759  0  0  0.026477  0  3.788293  0  0  0.012025  0  3.813239  0  0  -0.216732  0.035941  0  3.771405  0
N  N128  1  0.99316563  0.84673952  0.45030624  1  0  -0.066161  0  3.578526  0  0  0.024771  0  3.786945  0  0  0.010284  0  3.811891  0  0  -0.217212  0.034272  0  3.770062  0
N  N129  1  0.29003145  0.65343560  0.04976698  1  0  -0.064107  0  3.579619  0  0  0.026504  0  3.788164  0  0  0.012054  0  3.813108  0  0  -0.216713  0.035965  0  3.771275  0
N  N130  1  0.46545053  0.73405599  0.58827106  1  0  -0.063629  0  3.585642  0  0  0.026715  0  3.795171  0  0  0.012882  0  3.81987  0  0  -0.218185  0.035787  0  3.778395  0
N  N131  1  0.78795058  0.76589588  0.91183852  1  0  -0.06349  0  3.583494  0  0  0.026611  0  3.792716  0  0  0.012821  0  3.817306  0  0  -0.217953  0.035667  0  3.776013  0
N  N132  1  0.53454634  0.26594507  0.41173030  1  0  -0.063568  0  3.585473  0  0  0.026782  0  3.794998  0  0  0.012949  0  3.819695  0  0  -0.218148  0.035863  0  3.778216  0
N  N133  1  0.21204908  0.23410356  0.08815963  1  0  -0.063447  0  3.583498  0  0  0.02663  0  3.792734  0  0  0.01284  0  3.817323  0  0  -0.218017  0.035688  0  3.776033  0
N  N134  1  0.69877802  0.58720345  0.56613026  1  0  -0.384066  0  3.229118  0  0  -0.31023  0  3.508611  0  0  -0.329652  0  3.525704  0  0  -0.36128  -0.296957  0  3.496485  0
N  N135  1  0.85238251  0.91275747  0.93396674  1  0  -0.385301  0  3.233232  0  0  -0.311398  0  3.512991  0  0  -0.330864  0  3.530103  0  0  -0.362413  -0.2981  0  3.50085  0
N  N136  1  0.30122280  0.41279761  0.43387097  1  0  -0.384002  0  3.229329  0  0  -0.310156  0  3.508796  0  0  -0.329576  0  3.525884  0  0  -0.361241  -0.296887  0  3.496686  0
N  N137  1  0.14762210  0.08724117  0.06603068  1  0  -0.385181  0  3.233126  0  0  -0.31126  0  3.512853  0  0  -0.330727  0  3.52997  0  0  -0.362377  -0.297959  0  3.500712  0
N  N138  1  0.32453773  0.03926107  0.41090312  1  0  -0.476753  0  2.954284  0  0  -0.452431  0  3.230072  0  0  -0.467516  0  3.244765  0  0  -0.361203  -0.44195  0  3.219759  0
N  N139  1  0.77494164  0.46053708  0.08914854  1  0  -0.475944  0  2.954575  0  0  -0.451807  0  3.23032  0  0  -0.466865  0  3.245038  0  0  -0.360894  -0.441342  0  3.22  0
N  N140  1  0.67546136  0.96073999  0.58909856  1  0  -0.476755  0  2.954212  0  0  -0.452445  0  3.230008  0  0  -0.467529  0  3.244703  0  0  -0.361197  -0.44197  0  3.219708  0
N  N141  1  0.22506183  0.53946236  0.91085086  1  0  -0.4759  0  2.954536  0  0  -0.45178  0  3.230276  0  0  -0.46684  0  3.244995  0  0  -0.360883  -0.441311  0  3.21996  0
N  N142  1  0.51514582  0.86895337  0.42763823  1  0  -0.487652  0  2.969903  0  0  -0.462973  0  3.246775  0  0  -0.479299  0  3.262746  0  0  -0.362469  -0.45165  0  3.235589  0
N  N143  1  0.81207694  0.63086017  0.07241540  1  0  -0.485801  0  2.972302  0  0  -0.461282  0  3.249175  0  0  -0.477579  0  3.265222  0  0  -0.361338  -0.449972  0  3.237951  0
N  N144  1  0.48485278  0.13104769  0.57236268  1  0  -0.487679  0  2.969854  0  0  -0.463005  0  3.2467  0  0  -0.479337  0  3.262681  0  0  -0.362492  -0.451677  0  3.235507  0
N  N145  1  0.18792604  0.36913928  0.92758323  1  0  -0.48583  0  2.972368  0  0  -0.461324  0  3.249191  0  0  -0.477625  0  3.26524  0  0  -0.361339  -0.450016  0  3.237972  0
N  N146  1  0.80869260  0.98234914  0.13488493  1  0  -0.339983  0  3.249078  0  0  -0.259909  0  3.507751  0  0  -0.278147  0  3.526382  0  0  -0.339021  -0.247293  0  3.494569  0
N  N147  1  0.92601245  0.51768331  0.36519165  1  0  -0.340176  0  3.250375  0  0  -0.260158  0  3.5092  0  0  -0.278477  0  3.52793  0  0  -0.339146  -0.247562  0  3.496029  0
N  N148  1  0.19130835  0.01765192  0.86511491  1  0  -0.340042  0  3.249228  0  0  -0.259975  0  3.507888  0  0  -0.278213  0  3.526518  0  0  -0.339032  -0.247365  0  3.494719  0
N  N149  1  0.07398686  0.48231533  0.63480850  1  0  -0.340196  0  3.250432  0  0  -0.260151  0  3.509187  0  0  -0.278472  0  3.527921  0  0  -0.339132  -0.247548  0  3.496014  0
