# generated using pymatgen
data_CdH16C6N(ClO)3
_symmetry_space_group_name_H-M   'P 1'
_cell_length_a   7.71557708
_cell_length_b   9.39390421
_cell_length_c   16.56390000
_cell_angle_alpha   90.00000000
_cell_angle_beta   90.00000000
_cell_angle_gamma   101.88325881
_symmetry_Int_Tables_number   1
_chemical_formula_structural   CdH16C6N(ClO)3
_chemical_formula_sum   'Cd4 H64 C24 N4 Cl12 O12'
_cell_volume   1174.81283102
_cell_formula_units_Z   4
loop_
 _symmetry_equiv_pos_site_id
 _symmetry_equiv_pos_as_xyz
  1  'x, y, z'
loop_
 _atom_site_type_symbol
 _atom_site_label
 _atom_site_symmetry_multiplicity
 _atom_site_fract_x
 _atom_site_fract_y
 _atom_site_fract_z
 _atom_site_occupancy
 _atom_site_hle17_bader_spin_density
 _atom_site_hle17_ddec_charge
 _atom_site_hle17_ddec_spin_density
 _atom_site_hle17_ddec_sum_bond_order
 _atom_site_hle17_magmom
 _atom_site_hse06_10hf_bader_spin_density
 _atom_site_hse06_10hf_ddec_charge
 _atom_site_hse06_10hf_ddec_spin_density
 _atom_site_hse06_10hf_ddec_sum_bond_order
 _atom_site_hse06_10hf_magmom
 _atom_site_hse06_bader_spin_density
 _atom_site_hse06_ddec_charge
 _atom_site_hse06_ddec_spin_density
 _atom_site_hse06_ddec_sum_bond_order
 _atom_site_hse06_magmom
 _atom_site_pbe_bader_charge
 _atom_site_pbe_bader_spin_density
 _atom_site_pbe_cm5_charge
 _atom_site_pbe_ddec_charge
 _atom_site_pbe_ddec_spin_density
 _atom_site_pbe_ddec_sum_bond_order
 _atom_site_pbe_magmom
Cd  Cd0  1  0.72461512  0.32100980  0.23967846  1  0  0.994612  0  1.927864  0  0  0.847483  0  2.381277  0  0  0.893527  0  2.338298  0  1.15358  0  0.542638  0.814912  0  2.410816  0
Cd  Cd1  1  0.77538355  0.67898962  0.73967906  1  0  0.99457  0  1.927913  0  0  0.847442  0  2.381331  0  0  0.893485  0  2.338351  0  1.153571  0  0.542623  0.814869  0  2.410871  0
Cd  Cd2  1  0.27538336  0.67898962  0.76032094  1  0  0.994608  0  1.92788  0  0  0.847477  0  2.381295  0  0  0.893519  0  2.338315  0  1.153547  0  0.542636  0.814905  0  2.410835  0
Cd  Cd3  1  0.22461520  0.32101089  0.26032094  1  0  0.994607  0  1.927908  0  0  0.847482  0  2.381328  0  0  0.893524  0  2.338344  0  1.153516  0  0.542637  0.814911  0  2.410867  0
H  H4  1  0.03534187  0.22077032  0.66707056  1  0  0.050682  0  0.92487  0  0  0.064814  0  0.993291  0  0  0.065118  0  0.992924  0  0.040668  0  0.095106  0.064667  0  0.993538  0
H  H5  1  0.46465697  0.77923128  0.16707056  1  0  0.050692  0  0.924879  0  0  0.064822  0  0.993309  0  0  0.065127  0  0.992942  0  0.040658  0  0.095105  0.064674  0  0.993554  0
H  H6  1  0.96465764  0.77922802  0.33293065  1  0  0.050676  0  0.924875  0  0  0.064795  0  0.993304  0  0  0.065097  0  0.99294  0  0.040667  0  0.095109  0.064644  0  0.993547  0
H  H7  1  0.53534233  0.22077141  0.83293065  1  0  0.050705  0  0.924858  0  0  0.064823  0  0.993295  0  0  0.065127  0  0.99293  0  0.040668  0  0.095112  0.064673  0  0.993539  0
H  H8  1  0.81722403  0.13007549  0.69246373  1  0  0.049371  0  0.951962  0  0  0.060426  0  1.024243  0  0  0.061171  0  1.023536  0  0.080856  0  0.091365  0.059924  0  1.024589  0
H  H9  1  0.68277519  0.86992612  0.19246434  1  0  0.049365  0  0.951923  0  0  0.060415  0  1.024225  0  0  0.061162  0  1.023515  0  0.080867  0  0.091338  0.05991  0  1.02457  0
H  H10  1  0.18277548  0.86992285  0.30753687  1  0  0.049301  0  0.951999  0  0  0.060387  0  1.02425  0  0  0.061132  0  1.023543  0  0.080879  0  0.091325  0.059885  0  1.024597  0
H  H11  1  0.31722411  0.13007657  0.80753627  1  0  0.04939  0  0.951908  0  0  0.060453  0  1.024181  0  0  0.061198  0  1.023474  0  0.080867  0  0.091365  0.059949  0  1.024525  0
H  H12  1  0.59067155  0.42437028  0.54755341  1  0  0.091391  0  0.935127  0  0  0.103382  0  1.001616  0  0  0.104038  0  1.002253  0  0.090985  0  0.106283  0.102551  0  1.00188  0
H  H13  1  0.90933026  0.57563132  0.04755523  1  0  0.091387  0  0.935124  0  0  0.103363  0  1.001624  0  0  0.104024  0  1.002267  0  0.090958  0  0.106287  0.102532  0  1.001888  0
H  H14  1  0.40933109  0.57563023  0.45244598  1  0  0.091388  0  0.935118  0  0  0.103368  0  1.001624  0  0  0.104029  0  1.002266  0  0.090978  0  0.106279  0.102536  0  1.001887  0
H  H15  1  0.09066850  0.42436919  0.95244477  1  0  0.091403  0  0.935098  0  0  0.103379  0  1.001611  0  0  0.104043  0  1.002253  0  0.090963  0  0.106281  0.102548  0  1.001875  0
H  H16  1  0.54901527  0.23832469  0.66515434  1  0  0.09096  0  0.933664  0  0  0.105794  0  0.996288  0  0  0.10643  0  0.996701  0  0.079531  0  0.105547  0.104885  0  0.996724  0
H  H17  1  0.95098449  0.76167909  0.16515555  1  0  0.090982  0  0.933639  0  0  0.1058  0  0.996293  0  0  0.106432  0  0.996704  0  0.079532  0  0.105542  0.104892  0  0.996726  0
H  H18  1  0.45098478  0.76167583  0.33484505  1  0  0.090942  0  0.933658  0  0  0.105794  0  0.996293  0  0  0.106426  0  0.996702  0  0.080018  0  0.105546  0.104884  0  0.996726  0
H  H19  1  0.04901713  0.23832251  0.83484445  1  0  0.090943  0  0.933685  0  0  0.105758  0  0.996322  0  0  0.106388  0  0.996733  0  0.080026  0  0.105532  0.104852  0  0.996754  0
H  H20  1  0.56595323  0.05822845  0.63579592  1  0  0.100019  0  0.956807  0  0  0.110255  0  1.020554  0  0  0.111952  0  1.019878  0  0.130372  0  0.104026  0.108957  0  1.02105  0
H  H21  1  0.93404626  0.94177424  0.13579592  1  0  0.099989  0  0.956824  0  0  0.110244  0  1.020565  0  0  0.111937  0  1.019887  0  0.130338  0  0.104007  0.108945  0  1.021061  0
H  H22  1  0.43404682  0.94177206  0.36420408  1  0  0.100009  0  0.956788  0  0  0.110267  0  1.020536  0  0  0.111959  0  1.019858  0  0.130366  0  0.10403  0.108966  0  1.021033  0
H  H23  1  0.06595795  0.05822736  0.86420408  1  0  0.099968  0  0.956835  0  0  0.11022  0  1.020563  0  0  0.111911  0  1.019885  0  0.130347  0  0.104014  0.108921  0  1.021061  0
H  H24  1  0.86709717  0.46337672  0.46604966  1  0  0.045281  0  0.976292  0  0  0.055056  0  1.05273  0  0  0.055539  0  1.052162  0  0.089733  0  0.090648  0.054611  0  1.053307  0
H  H25  1  0.63290328  0.53661944  0.96605268  1  0  0.045242  0  0.97629  0  0  0.055015  0  1.052715  0  0  0.055498  0  1.052147  0  0.089505  0  0.090631  0.054576  0  1.053295  0
H  H26  1  0.13290439  0.53661944  0.53394853  1  0  0.045277  0  0.976257  0  0  0.055045  0  1.052661  0  0  0.055527  0  1.052094  0  0.089521  0  0.090652  0.054607  0  1.05324  0
H  H27  1  0.36709473  0.46338325  0.03394792  1  0  0.045236  0  0.976255  0  0  0.055029  0  1.052656  0  0  0.055511  0  1.05209  0  0.089527  0  0.090647  0.05459  0  1.053234  0
H  H28  1  0.26163935  0.07428161  0.63835751  1  0  0.053852  0  0.948056  0  0  0.065439  0  1.018333  0  0  0.066363  0  1.01718  0  0.082201  0  0.09179  0.064723  0  1.01915  0
H  H29  1  0.23836208  0.92572000  0.13835812  1  0  0.053863  0  0.948042  0  0  0.065441  0  1.01831  0  0  0.066365  0  1.017158  0  0.082191  0  0.091795  0.064725  0  1.019128  0
H  H30  1  0.73836275  0.92571673  0.36164188  1  0  0.053842  0  0.948056  0  0  0.065432  0  1.01834  0  0  0.066358  0  1.017188  0  0.0822  0  0.091788  0.064716  0  1.019159  0
H  H31  1  0.76164159  0.07427943  0.86164249  1  0  0.05385  0  0.948103  0  0  0.065465  0  1.018345  0  0  0.06639  0  1.017196  0  0.0822  0  0.091805  0.064748  0  1.019163  0
H  H32  1  0.66548452  0.13295607  0.51034901  1  0  0.282579  0  0.891398  0  0  0.263461  0  0.951436  0  0  0.271685  0  0.945401  0  0.52386  0  0.315084  0.257696  0  0.955802  0
H  H33  1  0.83451675  0.86704336  0.01034962  1  0  0.282578  0  0.891404  0  0  0.263454  0  0.95146  0  0  0.271678  0  0.945425  0  0.523876  0  0.315084  0.257688  0  0.955827  0
H  H34  1  0.33451758  0.86704227  0.48965099  1  0  0.282604  0  0.89139  0  0  0.263475  0  0.951445  0  0  0.271698  0  0.945412  0  0.523853  0  0.31509  0.257709  0  0.955812  0
H  H35  1  0.16548487  0.13295824  0.98965099  1  0  0.28254  0  0.891351  0  0  0.263442  0  0.951392  0  0  0.271665  0  0.945357  0  0.523858  0  0.315073  0.257678  0  0.955758  0
H  H36  1  0.48172252  0.29392276  0.47487126  1  0  0.099863  0  0.948543  0  0  0.108722  0  1.015357  0  0  0.110428  0  1.014616  0  0.101121  0  0.107452  0.107313  0  1.01614  0
H  H37  1  0.01827863  0.70607776  0.97487186  1  0  0.099885  0  0.948574  0  0  0.108735  0  1.015378  0  0  0.110448  0  1.01464  0  0.101132  0  0.107474  0.107329  0  1.016159  0
H  H38  1  0.51827985  0.70607667  0.52512935  1  0  0.099854  0  0.948593  0  0  0.108705  0  1.015406  0  0  0.110418  0  1.01467  0  0.101119  0  0.107464  0.107299  0  1.016187  0
H  H39  1  0.98171910  0.29392384  0.02512814  1  0  0.099883  0  0.94857  0  0  0.108724  0  1.015383  0  0  0.110439  0  1.014649  0  0.101133  0  0.107464  0.107319  0  1.016164  0
H  H40  1  0.84731098  0.37118067  0.61836403  1  0  0.092772  0  0.945076  0  0  0.102775  0  1.014499  0  0  0.103524  0  1.015002  0  0.125829  0  0.103202  0.101267  0  1.016084  0
H  H41  1  0.65268694  0.62882093  0.11836524  1  0  0.092759  0  0.945073  0  0  0.102743  0  1.014509  0  0  0.103492  0  1.015012  0  0.125517  0  0.103179  0.101235  0  1.016094  0
H  H42  1  0.15268880  0.62881875  0.38163657  1  0  0.092771  0  0.945106  0  0  0.102778  0  1.014521  0  0  0.103527  0  1.015024  0  0.125833  0  0.103215  0.10127  0  1.016106  0
H  H43  1  0.34731236  0.37118176  0.88163536  1  0  0.092775  0  0.945061  0  0  0.102773  0  1.014486  0  0  0.103522  0  1.014989  0  0.125802  0  0.103197  0.101265  0  1.016072  0
H  H44  1  0.29502375  0.23146916  0.57533612  1  0  0.041957  0  0.947409  0  0  0.053928  0  1.019781  0  0  0.054051  0  1.019571  0  0.045377  0  0.092984  0.053675  0  1.020045  0
H  H45  1  0.20497454  0.76853027  0.07533612  1  0  0.042017  0  0.947361  0  0  0.053954  0  1.019758  0  0  0.054077  0  1.019546  0  0.045332  0  0.092989  0.0537  0  1.020021  0
H  H46  1  0.70497575  0.76852918  0.42466388  1  0  0.041992  0  0.947338  0  0  0.053951  0  1.019733  0  0  0.054075  0  1.019523  0  0.045359  0  0.092994  0.053696  0  1.019999  0
H  H47  1  0.79502653  0.23146916  0.92466267  1  0  0.041993  0  0.947409  0  0  0.053951  0  1.01982  0  0  0.054076  0  1.019611  0  0.045362  0  0.09299  0.0537  0  1.020081  0
H  H48  1  0.68360060  0.48993726  0.40785503  1  0  0.060446  0  0.949913  0  0  0.074292  0  1.017758  0  0  0.074802  0  1.017103  0  0.08204  0  0.090194  0.073692  0  1.018481  0
H  H49  1  0.81640012  0.51006000  0.90785805  1  0  0.060405  0  0.949927  0  0  0.074239  0  1.017765  0  0  0.074748  0  1.017111  0  0.080715  0  0.090222  0.073646  0  1.018488  0
H  H50  1  0.31639966  0.51005891  0.59214315  1  0  0.060378  0  0.949937  0  0  0.074217  0  1.017766  0  0  0.074727  0  1.017111  0  0.080697  0  0.090201  0.073622  0  1.018494  0
H  H51  1  0.18359761  0.48994161  0.09214255  1  0  0.060412  0  0.949931  0  0  0.074223  0  1.017819  0  0  0.074733  0  1.017165  0  0.080682  0  0.090217  0.073628  0  1.018545  0
H  H52  1  0.93893573  0.29158283  0.53457217  1  0  0.090422  0  0.95447  0  0  0.103339  0  1.017634  0  0  0.104708  0  1.017215  0  0.083259  0  0.104545  0.102376  0  1.017967  0
H  H53  1  0.56106376  0.70841986  0.03457278  1  0  0.090428  0  0.954503  0  0  0.103335  0  1.017657  0  0  0.104705  0  1.017236  0  0.08326  0  0.10454  0.102371  0  1.017991  0
H  H54  1  0.06106562  0.70841769  0.46542843  1  0  0.090423  0  0.954529  0  0  0.103346  0  1.017676  0  0  0.104714  0  1.017259  0  0.083245  0  0.104546  0.102383  0  1.018009  0
H  H55  1  0.43893581  0.29158391  0.96542783  1  0  0.090404  0  0.954498  0  0  0.103318  0  1.017659  0  0  0.104686  0  1.017241  0  0.083246  0  0.104535  0.102355  0  1.017992  0
H  H56  1  0.89677314  0.29245201  0.38778066  1  0  0.343227  0  0.949784  0  0  0.314453  0  1.03556  0  0  0.32452  0  1.024741  0  0.610598  0  0.257547  0.307395  0  1.043104  0
H  H57  1  0.60322444  0.70754307  0.88778247  1  0  0.343234  0  0.949765  0  0  0.314464  0  1.035539  0  0  0.324532  0  1.024722  0  0.610569  0  0.257552  0.307405  0  1.043083  0
H  H58  1  0.10322555  0.70754307  0.61221814  1  0  0.343222  0  0.949809  0  0  0.31445  0  1.035591  0  0  0.324519  0  1.024771  0  0.610577  0  0.257534  0.307391  0  1.043135  0
H  H59  1  0.39677329  0.29245853  0.11221753  1  0  0.343209  0  0.949728  0  0  0.314444  0  1.0355  0  0  0.324514  0  1.02468  0  0.610595  0  0.25753  0.307386  0  1.043044  0
H  H60  1  0.95667196  0.96416402  0.63408557  1  0  0.356678  0  0.903769  0  0  0.330517  0  0.98513  0  0  0.339111  0  0.975177  0  0.634761  0  0.278902  0.323155  0  0.994474  0
H  H61  1  0.54332726  0.03583758  0.13408557  1  0  0.356771  0  0.903617  0  0  0.330561  0  0.985012  0  0  0.339154  0  0.975059  0  0.634804  0  0.278938  0.3232  0  0.994351  0
H  H62  1  0.04332782  0.03583540  0.36591443  1  0  0.356668  0  0.903787  0  0  0.330509  0  0.985146  0  0  0.339101  0  0.975192  0  0.63482  0  0.278904  0.323147  0  0.994487  0
H  H63  1  0.45667231  0.96416620  0.86591443  1  0  0.356688  0  0.90377  0  0  0.330531  0  0.985125  0  0  0.339125  0  0.975169  0  0.634775  0  0.278906  0.323168  0  0.994468  0
H  H64  1  0.21305694  0.04664411  0.48687990  1  0  0.379699  0  0.887886  0  0  0.350615  0  0.969055  0  0  0.360959  0  0.956484  0  0.635531  0  0.298759  0.343571  0  0.977497  0
H  H65  1  0.28694135  0.95335531  0.98688051  1  0  0.3797  0  0.887936  0  0  0.350622  0  0.9691  0  0  0.360967  0  0.956529  0  0.635532  0  0.298774  0.34358  0  0.977537  0
H  H66  1  0.78694127  0.95335422  0.51312010  1  0  0.379697  0  0.887949  0  0  0.350623  0  0.969105  0  0  0.360966  0  0.956535  0  0.635528  0  0.29877  0.343579  0  0.977545  0
H  H67  1  0.71305870  0.04664520  0.01312010  1  0  0.379673  0  0.887847  0  0  0.350582  0  0.969038  0  0  0.360927  0  0.956466  0  0.635515  0  0.298759  0.343538  0  0.977479  0
C  C68  1  0.60842586  0.34062997  0.50384692  1  0  -0.0521  0  3.538486  0  0  -0.106707  0  3.787016  0  0  -0.104699  0  3.797492  0  0.201625  0  -0.071883  -0.10811  0  3.780577  0
C  C69  1  0.89157357  0.65936729  0.00384813  1  0  -0.052169  0  3.538421  0  0  -0.106781  0  3.786959  0  0  -0.104806  0  3.797474  0  0.201993  0  -0.071927  -0.108181  0  3.78053  0
C  C70  1  0.39157263  0.65936946  0.49615248  1  0  -0.052139  0  3.538617  0  0  -0.106749  0  3.787107  0  0  -0.104779  0  3.79763  0  0.201986  0  -0.071899  -0.108146  0  3.780676  0
C  C71  1  0.10842751  0.34063214  0.99615127  1  0  -0.052293  0  3.538579  0  0  -0.106808  0  3.786989  0  0  -0.104851  0  3.797527  0  0.20197  0  -0.071889  -0.10821  0  3.78056  0
C  C72  1  0.84671709  0.26942584  0.58561933  1  0  -0.049139  0  3.526236  0  0  -0.104094  0  3.773404  0  0  -0.102045  0  3.784358  0  0.189016  0  -0.070838  -0.104989  0  3.766667  0
C  C73  1  0.65328212  0.73057576  0.08561933  1  0  -0.049158  0  3.526341  0  0  -0.104047  0  3.773429  0  0  -0.102  0  3.784388  0  0.189328  0  -0.070796  -0.104941  0  3.76669  0
C  C74  1  0.15328268  0.73057359  0.41438188  1  0  -0.049182  0  3.526276  0  0  -0.104137  0  3.773434  0  0  -0.10209  0  3.78439  0  0.189012  0  -0.070858  -0.105035  0  3.766694  0
C  C75  1  0.34671847  0.26942693  0.91438127  1  0  -0.049179  0  3.526194  0  0  -0.104094  0  3.773349  0  0  -0.102047  0  3.784303  0  0.189006  0  -0.070847  -0.104991  0  3.76661  0
C  C76  1  0.53176569  0.15976681  0.61515947  1  0  -0.055399  0  3.538271  0  0  -0.112423  0  3.789808  0  0  -0.110734  0  3.800946  0  0.201161  0  -0.07245  -0.113152  0  3.781967  0
C  C77  1  0.96823353  0.84023479  0.11516068  1  0  -0.055367  0  3.538239  0  0  -0.112401  0  3.789761  0  0  -0.110686  0  3.800862  0  0.201168  0  -0.072413  -0.11313  0  3.781922  0
C  C78  1  0.46823436  0.84023371  0.38483932  1  0  -0.055311  0  3.538174  0  0  -0.112397  0  3.789778  0  0  -0.110679  0  3.800876  0  0.200672  0  -0.072419  -0.113122  0  3.781935  0
C  C79  1  0.03176809  0.15976681  0.88484053  1  0  -0.055354  0  3.538221  0  0  -0.112355  0  3.789814  0  0  -0.110628  0  3.800901  0  0.200694  0  -0.07242  -0.113087  0  3.78198  0
C  C80  1  0.34062585  0.13005482  0.58776375  1  0  0.136208  0  3.649167  0  0  0.07345  0  3.924857  0  0  0.080997  0  3.929702  0  0.428529  0  -0.076713  0.068468  0  3.921143  0
C  C81  1  0.15937401  0.86994570  0.08776315  1  0  0.136121  0  3.649147  0  0  0.073409  0  3.924834  0  0  0.080952  0  3.929675  0  0.428603  0  -0.07671  0.068426  0  3.921125  0
C  C82  1  0.65937366  0.86994352  0.41223625  1  0  0.136217  0  3.649036  0  0  0.073469  0  3.924772  0  0  0.081001  0  3.929619  0  0.428543  0  -0.076712  0.068484  0  3.92106  0
C  C83  1  0.84062706  0.13005373  0.91223564  1  0  0.136181  0  3.649184  0  0  0.073356  0  3.92499  0  0  0.080888  0  3.929841  0  0.428565  0  -0.07673  0.068373  0  3.921278  0
C  C84  1  0.74055353  0.40788743  0.43993444  1  0  0.116974  0  3.634558  0  0  0.053762  0  3.904764  0  0  0.061517  0  3.910364  0  0.385214  0  -0.085824  0.048527  0  3.900926  0
C  C85  1  0.75944562  0.59210873  0.93993625  1  0  0.117092  0  3.63447  0  0  0.053936  0  3.904591  0  0  0.061701  0  3.9102  0  0.386722  0  -0.085795  0.048677  0  3.900784  0
C  C86  1  0.25944672  0.59210873  0.56006436  1  0  0.117156  0  3.634479  0  0  0.054033  0  3.904552  0  0  0.061797  0  3.910164  0  0.386845  0  -0.085762  0.04877  0  3.900751  0
C  C87  1  0.24055211  0.40789287  0.06006436  1  0  0.117327  0  3.634394  0  0  0.054137  0  3.904588  0  0  0.061907  0  3.910205  0  0.386856  0  -0.085721  0.048879  0  3.900781  0
C  C88  1  0.90830481  0.16238087  0.64144072  1  0  0.126738  0  3.652672  0  0  0.06261  0  3.932967  0  0  0.069523  0  3.939214  0  0.429825  0  -0.079582  0.057518  0  3.928496  0
C  C89  1  0.59169441  0.83762073  0.14144072  1  0  0.126727  0  3.65275  0  0  0.062568  0  3.933031  0  0  0.069481  0  3.939279  0  0.429809  0  -0.079565  0.057481  0  3.928555  0
C  C90  1  0.09169340  0.83761747  0.35855988  1  0  0.126848  0  3.652597  0  0  0.062713  0  3.932886  0  0  0.069625  0  3.93913  0  0.429823  0  -0.07953  0.057633  0  3.928396  0
C  C91  1  0.40830462  0.16238087  0.85856048  1  0  0.126751  0  3.652648  0  0  0.062618  0  3.932951  0  0  0.069531  0  3.939198  0  0.429854  0  -0.079556  0.057537  0  3.928466  0
N  N92  1  0.66354089  0.22008172  0.55045430  1  0  -0.08727  0  3.315061  0  0  -0.002409  0  3.520792  0  0  -0.015088  0  3.538696  0  -1.019728  0  -0.347363  0.005926  0  3.508541  0
N  N93  1  0.83645935  0.77991879  0.05045430  1  0  -0.087216  0  3.314919  0  0  -0.002369  0  3.520637  0  0  -0.015047  0  3.538543  0  -1.020083  0  -0.347365  0.005966  0  3.508389  0
N  N94  1  0.33645991  0.77991662  0.44954691  1  0  -0.087278  0  3.315024  0  0  -0.002404  0  3.520752  0  0  -0.015083  0  3.53866  0  -1.020082  0  -0.347365  0.00593  0  3.508502  0
N  N95  1  0.16354098  0.22008281  0.94954570  1  0  -0.087156  0  3.314992  0  0  -0.002371  0  3.520729  0  0  -0.015044  0  3.538637  0  -1.020097  0  -0.347368  0.005963  0  3.508481  0
Cl  Cl96  1  0.02563160  0.51551113  0.23141048  1  0  -0.575108  0  0.970657  0  0  -0.508532  0  1.241923  0  0  -0.527776  0  1.221777  0  -0.645547  0  -0.297298  -0.494203  0  1.255919  0
Cl  Cl97  1  0.47436696  0.48448939  0.73141048  1  0  -0.575096  0  0.970647  0  0  -0.508536  0  1.241928  0  0  -0.52778  0  1.221783  0  -0.645572  0  -0.297302  -0.494206  0  1.255925  0
Cl  Cl98  1  0.97436715  0.48448939  0.76858952  1  0  -0.575095  0  0.970656  0  0  -0.50852  0  1.241922  0  0  -0.527765  0  1.221777  0  -0.645572  0  -0.297299  -0.494191  0  1.255919  0
Cl  Cl99  1  0.52563309  0.51551113  0.26858892  1  0  -0.575088  0  0.970636  0  0  -0.508528  0  1.241923  0  0  -0.527772  0  1.221776  0  -0.645575  0  -0.2973  -0.494198  0  1.255919  0
Cl  Cl100  1  0.66361752  0.31823801  0.08549979  1  0  -0.593126  0  0.947982  0  0  -0.529332  0  1.209106  0  0  -0.546784  0  1.189753  0  -0.671801  0  -0.283652  -0.516303  0  1.224173  0
Cl  Cl101  1  0.83637986  0.68176142  0.58550040  1  0  -0.593132  0  0.947984  0  0  -0.529338  0  1.209113  0  0  -0.546791  0  1.18976  0  -0.671776  0  -0.283659  -0.516307  0  1.224173  0
Cl  Cl102  1  0.33637994  0.68176251  0.91450021  1  0  -0.593148  0  0.947991  0  0  -0.529349  0  1.209117  0  0  -0.5468  0  1.189764  0  -0.671794  0  -0.28366  -0.516319  0  1.22418  0
Cl  Cl103  1  0.16361862  0.31823801  0.41449960  1  0  -0.59315  0  0.947993  0  0  -0.529356  0  1.20913  0  0  -0.546806  0  1.189779  0  -0.671784  0  -0.283658  -0.516323  0  1.224187  0
Cl  Cl104  1  0.92557915  0.12108672  0.24698290  1  0  -0.558333  0  1.017847  0  0  -0.490818  0  1.292204  0  0  -0.510053  0  1.271065  0  -0.641211  0  -0.273207  -0.47634  0  1.306571  0
Cl  Cl105  1  0.57442109  0.87891379  0.74698350  1  0  -0.558322  0  1.017837  0  0  -0.490805  0  1.292194  0  0  -0.510041  0  1.271054  0  -0.64121  0  -0.273196  -0.476321  0  1.30655  0
Cl  Cl106  1  0.07442062  0.87891271  0.75301650  1  0  -0.558317  0  1.017853  0  0  -0.490799  0  1.292217  0  0  -0.510036  0  1.271078  0  -0.641228  0  -0.273199  -0.476316  0  1.306575  0
Cl  Cl107  1  0.42557665  0.12108781  0.25301590  1  0  -0.558335  0  1.017846  0  0  -0.490808  0  1.292188  0  0  -0.510042  0  1.271047  0  -0.641202  0  -0.273192  -0.476328  0  1.306551  0
O  O108  1  0.76983600  0.29955338  0.38317848  1  0  -0.543985  0  2.175964  0  0  -0.474383  0  2.415389  0  0  -0.494931  0  2.405238  0  -1.132351  0  -0.410475  -0.45989  0  2.42207  0
O  O109  1  0.73016185  0.70044278  0.88317969  1  0  -0.544012  0  2.175901  0  0  -0.474441  0  2.415317  0  0  -0.494975  0  2.405132  0  -1.132247  0  -0.410518  -0.459941  0  2.422007  0
O  O110  1  0.23016296  0.70044278  0.61682031  1  0  -0.544104  0  2.176049  0  0  -0.474532  0  2.415438  0  0  -0.495055  0  2.405223  0  -1.13239  0  -0.410543  -0.460032  0  2.422133  0
O  O111  1  0.26983588  0.29955882  0.11682031  1  0  -0.544149  0  2.175971  0  0  -0.474581  0  2.415423  0  0  -0.495104  0  2.405202  0  -1.132376  0  -0.41058  -0.460082  0  2.422114  0
O  O112  1  0.32169672  0.04122562  0.51725620  1  0  -0.544846  0  2.132523  0  0  -0.48911  0  2.367804  0  0  -0.505036  0  2.355195  0  -1.150115  0  -0.403669  -0.477638  0  2.375707  0
O  O113  1  0.17830703  0.95877490  0.01725620  1  0  -0.544829  0  2.132574  0  0  -0.489106  0  2.367828  0  0  -0.505037  0  2.355222  0  -1.150101  0  -0.403688  -0.477627  0  2.375715  0
O  O114  1  0.67830694  0.95877381  0.48274380  1  0  -0.544864  0  2.132516  0  0  -0.489141  0  2.367803  0  0  -0.50506  0  2.355192  0  -1.150095  0  -0.403686  -0.477666  0  2.375704  0
O  O115  1  0.82169821  0.04122562  0.98274380  1  0  -0.54479  0  2.132443  0  0  -0.489032  0  2.367758  0  0  -0.50496  0  2.355155  0  -1.150096  0  -0.40366  -0.477563  0  2.375666  0
O  O116  1  0.93151799  0.03795994  0.59625934  1  0  -0.544411  0  2.117166  0  0  -0.486751  0  2.349089  0  0  -0.502816  0  2.338618  0  -1.1649  0  -0.403119  -0.475175  0  2.358105  0
O  O117  1  0.56848123  0.96204166  0.09625934  1  0  -0.544537  0  2.117162  0  0  -0.486785  0  2.349112  0  0  -0.502853  0  2.338643  0  -1.164955  0  -0.403165  -0.475209  0  2.358122  0
O  O118  1  0.06848050  0.96203949  0.40374066  1  0  -0.544425  0  2.117146  0  0  -0.486771  0  2.34908  0  0  -0.50283  0  2.338603  0  -1.164961  0  -0.403139  -0.475197  0  2.358091  0
O  O119  1  0.43151780  0.03795994  0.90374066  1  0  -0.544436  0  2.117188  0  0  -0.48678  0  2.349119  0  0  -0.502846  0  2.338646  0  -1.16492  0  -0.403133  -0.475207  0  2.358131  0
