# generated using pymatgen
data_CoPH6C2NO3
_symmetry_space_group_name_H-M   'P 1'
_cell_length_a   6.42767752
_cell_length_b   8.32713762
_cell_length_c   9.75077011
_cell_angle_alpha   89.99996592
_cell_angle_beta   99.83950518
_cell_angle_gamma   89.99996422
_symmetry_Int_Tables_number   1
_chemical_formula_structural   CoPH6C2NO3
_chemical_formula_sum   'Co4 P4 H24 C8 N4 O12'
_cell_volume   514.22471865
_cell_formula_units_Z   4
loop_
 _symmetry_equiv_pos_site_id
 _symmetry_equiv_pos_as_xyz
  1  'x, y, z'
loop_
 _atom_site_type_symbol
 _atom_site_label
 _atom_site_symmetry_multiplicity
 _atom_site_fract_x
 _atom_site_fract_y
 _atom_site_fract_z
 _atom_site_occupancy
 _atom_site_hle17_ddec_charge
 _atom_site_hle17_ddec_spin_density
 _atom_site_hle17_ddec_sum_bond_order
 _atom_site_hle17_magmom
 _atom_site_hse06_10hf_ddec_charge
 _atom_site_hse06_10hf_ddec_spin_density
 _atom_site_hse06_10hf_ddec_sum_bond_order
 _atom_site_hse06_10hf_magmom
 _atom_site_hse06_ddec_charge
 _atom_site_hse06_ddec_spin_density
 _atom_site_hse06_ddec_sum_bond_order
 _atom_site_hse06_magmom
 _atom_site_pbe_cm5_charge
 _atom_site_pbe_ddec_charge
 _atom_site_pbe_ddec_spin_density
 _atom_site_pbe_ddec_sum_bond_order
 _atom_site_pbe_magmom
Co  Co0  1  0.50991811  0.66375005  0.34318954  1  1.095773  2.805016  1.881934  2.544  1.053192  2.829031  2.320488  2.609  1.135901  2.870671  2.241138  2.69  0.669028  0.979379  2.78948  2.389752  2.535
Co  Co1  1  0.49008184  0.16374997  0.15681001  1  1.095795  2.805018  1.881903  2.544  1.053189  2.829031  2.320458  2.609  1.135908  2.870674  2.241111  2.69  0.669036  0.979392  2.789477  2.389729  2.535
Co  Co2  1  0.49008184  0.33624965  0.65681049  1  1.095744  2.805018  1.881982  2.544  1.053147  2.829031  2.320549  2.609  1.135869  2.870675  2.241197  2.69  0.669012  0.979344  2.789476  2.389819  2.535
Co  Co3  1  0.50991811  0.83624973  0.84319002  1  1.095747  2.805017  1.881915  2.544  1.053158  2.82903  2.320474  2.609  1.135872  2.870673  2.241123  2.69  0.669017  0.979349  2.789479  2.389741  2.535
P  P4  1  0.75813006  0.85708780  0.15324021  1  1.489722  0.007968  4.855959  0.004  1.351423  0.014166  5.358956  0.01  1.403787  0.010489  5.327274  0.008  0.340191  1.313151  0.017524  5.377274  0.011
P  P5  1  0.24186970  0.35708771  0.34676024  1  1.489714  0.00797  4.855941  0.004  1.351412  0.014166  5.358953  0.01  1.403779  0.010489  5.327267  0.008  0.340181  1.313131  0.017523  5.377262  0.011
P  P6  1  0.24186989  0.14291190  0.84675982  1  1.489732  0.00797  4.855928  0.004  1.35144  0.014166  5.35893  0.01  1.403805  0.010489  5.327247  0.008  0.340183  1.313167  0.017523  5.377245  0.011
P  P7  1  0.75813183  0.64291079  0.65323996  1  1.489755  0.007966  4.855872  0.004  1.351462  0.014167  5.358864  0.01  1.403828  0.010488  5.327179  0.008  0.340193  1.313179  0.017523  5.377175  0.011
H  H8  1  0.09256525  0.72672503  0.16547866  1  0.132589  0.000121  0.954285  0.0  0.145803  0.000378  1.013599  0.0  0.147569  0.000238  1.014111  0.0  0.106423  0.144521  0.00052  1.013479  0.001
H  H9  1  0.90743622  0.22672223  0.33452103  1  0.13255  0.000121  0.954279  0.0  0.145773  0.000378  1.0136  0.0  0.14754  0.000238  1.014111  0.0  0.106408  0.144491  0.00052  1.013478  0.001
H  H10  1  0.90743470  0.27327587  0.83451932  1  0.132565  0.000122  0.954285  0.0  0.145787  0.000378  1.013603  0.0  0.147554  0.000238  1.014114  0.0  0.106412  0.144504  0.00052  1.013482  0.001
H  H11  1  0.09256531  0.77327507  0.66547918  1  0.132576  0.000121  0.954274  0.0  0.1458  0.000378  1.013585  0.0  0.147567  0.000238  1.014096  0.0  0.106428  0.144518  0.00052  1.013462  0.001
H  H12  1  0.11209410  0.93985108  0.16789963  1  0.146326  -0.000425  0.940914  0.0  0.15968  -6.4e-05  0.997439  0.0  0.161618  -0.000161  0.997828  0.0  0.110989  0.158313  5.6e-05  0.997257  0.0
H  H13  1  0.88790558  0.43984829  0.33209872  1  0.146326  -0.000424  0.94092  0.0  0.159711  -6.4e-05  0.997414  0.0  0.16165  -0.000161  0.997802  0.0  0.111008  0.158344  5.6e-05  0.997232  0.0
H  H14  1  0.88790585  0.06015102  0.83210040  1  0.146303  -0.000424  0.940947  0.0  0.159687  -6.4e-05  0.99744  0.0  0.161625  -0.000162  0.997829  0.0  0.110994  0.158321  5.6e-05  0.997259  0.0
H  H15  1  0.11209595  0.56015021  0.66790046  1  0.146321  -0.000425  0.940914  0.0  0.159687  -6.4e-05  0.997428  0.0  0.161625  -0.000161  0.997817  0.0  0.110988  0.15832  5.6e-05  0.997244  0.0
H  H16  1  0.02805140  0.93091877  0.41669650  1  0.047687  0.002287  0.938689  0.004  0.067362  0.001481  0.998289  0.003  0.067364  0.000961  0.9984  0.002  0.099277  0.067115  0.002012  0.998865  0.003
H  H17  1  0.97194829  0.43092092  0.08330391  1  0.047699  0.002286  0.938691  0.004  0.067376  0.001481  0.998283  0.003  0.067376  0.000961  0.998394  0.002  0.099289  0.067131  0.002012  0.998859  0.003
H  H18  1  0.97194855  0.06907732  0.58330456  1  0.047684  0.002285  0.938676  0.004  0.067362  0.001481  0.998289  0.003  0.067363  0.000962  0.9984  0.002  0.099275  0.067117  0.002012  0.998863  0.003
H  H19  1  0.02805166  0.56908238  0.91669715  1  0.047685  0.002287  0.938696  0.004  0.067357  0.001481  0.998294  0.003  0.06736  0.000961  0.998403  0.002  0.099274  0.067111  0.002012  0.998871  0.003
H  H20  1  0.05122208  0.71883389  0.41148607  1  0.066022  -0.000178  0.936191  0.0  0.085972  -0.000152  0.994782  0.0  0.085703  -0.000236  0.996213  0.0  0.107872  0.085944  -5.7e-05  0.993944  0.001
H  H21  1  0.94877940  0.21883484  0.08851157  1  0.06601  -0.000179  0.936236  0.0  0.085959  -0.000152  0.994828  0.0  0.085689  -0.000236  0.996259  0.0  0.107877  0.085932  -5.7e-05  0.99399  0.001
H  H22  1  0.94877945  0.28116341  0.58851106  1  0.066002  -0.00018  0.936228  0.0  0.085968  -0.000152  0.994811  0.0  0.085697  -0.000236  0.996244  0.0  0.107875  0.08594  -5.7e-05  0.993972  0.001
H  H23  1  0.05122371  0.78116726  0.91148575  1  0.066042  -0.000178  0.936239  0.0  0.085988  -0.000152  0.994823  0.0  0.085729  -0.000236  0.996243  0.0  0.107893  0.085961  -5.6e-05  0.993987  0.001
H  H24  1  0.37968341  0.84274670  0.51610073  1  0.301885  -0.001177  0.910495  0.0  0.293822  0.000326  0.966746  0.001  0.300149  6.2e-05  0.963147  0.001  0.293765  0.289152  0.000609  0.969131  0.001
H  H25  1  0.62031654  0.34274754  0.98389978  1  0.301879  -0.001177  0.910511  0.0  0.293818  0.000326  0.966756  0.001  0.300145  6.2e-05  0.963158  0.001  0.293769  0.289152  0.000609  0.969142  0.001
H  H26  1  0.62031655  0.15725060  0.48389930  1  0.301889  -0.001177  0.910488  0.0  0.293832  0.000326  0.966726  0.001  0.300157  6.2e-05  0.963131  0.001  0.293771  0.289164  0.000609  0.969111  0.001
H  H27  1  0.37968341  0.65725216  0.01610127  1  0.30188  -0.001178  0.910493  0.0  0.293817  0.000326  0.966744  0.001  0.300144  6.2e-05  0.963145  0.001  0.293761  0.289149  0.000609  0.96913  0.001
H  H28  1  0.38209553  0.95288904  0.37666186  1  0.307267  -0.001054  0.914928  0.0  0.297774  0.000497  0.973503  0.001  0.304311  0.000245  0.96965  0.001  0.292166  0.292938  0.000773  0.97613  0.002
H  H29  1  0.61790730  0.45288893  0.12333992  1  0.307277  -0.001054  0.914905  0.0  0.297786  0.000497  0.973482  0.001  0.304325  0.000245  0.969624  0.001  0.292168  0.292951  0.000773  0.976115  0.002
H  H30  1  0.61790600  0.04711066  0.62333938  1  0.307265  -0.001053  0.914934  0.0  0.297771  0.000497  0.973514  0.001  0.304311  0.000245  0.969656  0.001  0.292166  0.292935  0.000773  0.976143  0.002
H  H31  1  0.38209423  0.54711077  0.87666132  1  0.307274  -0.001054  0.914931  0.0  0.297786  0.000497  0.973498  0.001  0.304326  0.000245  0.969639  0.001  0.292171  0.292949  0.000774  0.976125  0.002
C  C32  1  0.03951415  0.83638576  0.21200315  1  -0.474259  0.004794  3.645654  0.007  -0.486543  0.003895  3.885837  0.005  -0.497963  0.002658  3.895601  0.003  -0.171131  -0.478301  0.005204  3.879273  0.006
C  C33  1  0.96048721  0.33638297  0.28799647  1  -0.474194  0.004793  3.645607  0.007  -0.486525  0.003895  3.88581  0.005  -0.497948  0.002659  3.895574  0.003  -0.171143  -0.478283  0.005204  3.879241  0.006
C  C34  1  0.96048580  0.16361514  0.78799586  1  -0.474218  0.00479  3.64559  0.007  -0.486525  0.003895  3.885791  0.005  -0.497948  0.002659  3.895556  0.003  -0.171149  -0.478287  0.005205  3.879239  0.006
C  C35  1  0.03951432  0.66361553  0.71200374  1  -0.474208  0.004794  3.645616  0.007  -0.486524  0.003895  3.885821  0.005  -0.497948  0.002659  3.89559  0.003  -0.171143  -0.478284  0.005205  3.879257  0.006
C  C36  1  0.10365985  0.83123746  0.36967656  1  0.140726  -0.001442  3.64046  -0.002  0.08095  0.001586  3.910928  0.001  0.087314  0.000895  3.924163  0.001  -0.070016  0.076533  0.00236  3.90161  0.002
C  C37  1  0.89634152  0.33123601  0.13032306  1  0.140736  -0.001431  3.640446  -0.002  0.080967  0.001585  3.910912  0.001  0.087333  0.000894  3.924146  0.001  -0.070009  0.07655  0.00236  3.9016  0.002
C  C38  1  0.89634010  0.16876104  0.63032347  1  0.140779  -0.001423  3.640402  -0.002  0.080961  0.001585  3.91093  0.001  0.087328  0.000894  3.924164  0.001  -0.06999  0.076547  0.00236  3.901609  0.002
C  C39  1  0.10366001  0.66876369  0.86967715  1  0.140666  -0.001443  3.640533  -0.002  0.08091  0.001585  3.910976  0.001  0.087267  0.000894  3.924215  0.001  -0.070031  0.076494  0.00236  3.90166  0.002
N  N40  1  0.33644550  0.84298332  0.40950575  1  -0.653078  0.044979  3.125193  0.07  -0.629033  0.032381  3.406985  0.04  -0.657567  0.024741  3.400864  0.029  -0.633158  -0.606299  0.038911  3.41119  0.048
N  N41  1  0.66355586  0.34298321  0.09049386  1  -0.653112  0.044975  3.125165  0.07  -0.629063  0.032381  3.406951  0.04  -0.657602  0.024741  3.400832  0.029  -0.633184  -0.606343  0.038912  3.411167  0.048
N  N42  1  0.66355603  0.15701638  0.59049343  1  -0.653095  0.044974  3.1252  0.07  -0.629044  0.032381  3.407016  0.04  -0.657581  0.024741  3.400902  0.029  -0.633166  -0.606318  0.038911  3.411227  0.048
N  N43  1  0.33644567  0.65701649  0.90950635  1  -0.653074  0.044977  3.125212  0.07  -0.629037  0.032381  3.406997  0.04  -0.657574  0.024741  3.400882  0.029  -0.633159  -0.606303  0.038911  3.411204  0.048
O  O44  1  0.68312336  0.99538741  0.23870142  1  -0.869575  0.045179  2.032026  0.074  -0.81163  0.037808  2.33767  0.053  -0.850903  0.029082  2.314613  0.04  -0.384457  -0.779056  0.046127  2.352411  0.065
O  O45  1  0.31687153  0.49539095  0.26130046  1  -0.869567  0.045181  2.032061  0.074  -0.811626  0.037809  2.337702  0.053  -0.850895  0.029083  2.314641  0.04  -0.384442  -0.779046  0.046129  2.352428  0.065
O  O46  1  0.31687343  0.00461109  0.76129928  1  -0.869589  0.045179  2.032051  0.074  -0.811631  0.037808  2.337666  0.053  -0.850902  0.029082  2.314609  0.04  -0.384442  -0.779048  0.046126  2.352397  0.065
O  O47  1  0.68312842  0.50460875  0.73870059  1  -0.869583  0.045181  2.032042  0.074  -0.811643  0.037809  2.337691  0.053  -0.850917  0.029083  2.314632  0.04  -0.384465  -0.779062  0.046129  2.352418  0.065
O  O48  1  0.64389414  0.69811122  0.17955207  1  -0.864958  0.045869  2.029477  0.076  -0.796921  0.037337  2.318956  0.054  -0.83576  0.028519  2.29586  0.041  -0.379736  -0.764709  0.04591  2.333581  0.066
O  O49  1  0.35611052  0.19811230  0.32044902  1  -0.864974  0.045869  2.029496  0.076  -0.796917  0.037336  2.318959  0.054  -0.835759  0.028519  2.295865  0.041  -0.379763  -0.764707  0.045912  2.333577  0.066
O  O50  1  0.35610897  0.30188728  0.82044935  1  -0.864933  0.045868  2.029452  0.076  -0.796911  0.037336  2.318947  0.054  -0.835754  0.028519  2.295852  0.041  -0.379739  -0.764708  0.04591  2.333583  0.066
O  O51  1  0.64389259  0.80188740  0.67955240  1  -0.864928  0.04587  2.029401  0.076  -0.796895  0.037337  2.318883  0.054  -0.835735  0.028519  2.295788  0.041  -0.379727  -0.764687  0.045912  2.333515  0.066
O  O52  1  0.73058878  0.89435722  0.99635388  1  -0.866121  0.048057  2.049435  0.077  -0.81184  0.041333  2.364854  0.057  -0.851518  0.031835  2.339938  0.043  -0.381211  -0.77867  0.05057  2.380926  0.07
O  O53  1  0.26940954  0.39435496  0.50364744  1  -0.866137  0.048057  2.049441  0.077  -0.811854  0.041332  2.364867  0.057  -0.851534  0.031835  2.33995  0.043  -0.381203  -0.778686  0.050573  2.380934  0.07
O  O54  1  0.26940960  0.10564488  0.00364700  1  -0.866143  0.048057  2.049425  0.077  -0.811859  0.041333  2.364847  0.057  -0.851536  0.031835  2.339932  0.043  -0.381197  -0.778693  0.050572  2.380922  0.07
O  O55  1  0.73059041  0.60564474  0.49635259  1  -0.866148  0.048058  2.049416  0.077  -0.811868  0.041332  2.36484  0.057  -0.851545  0.031835  2.339921  0.043  -0.381204  -0.778697  0.050572  2.380905  0.07
