# generated using pymatgen
data_ZnH13C14N5O
_symmetry_space_group_name_H-M   'P 1'
_cell_length_a   6.17544670
_cell_length_b   10.40720283
_cell_length_c   11.28245577
_cell_angle_alpha   67.04947493
_cell_angle_beta   86.77324119
_cell_angle_gamma   79.79828693
_symmetry_Int_Tables_number   1
_chemical_formula_structural   ZnH13C14N5O
_chemical_formula_sum   'Zn2 H26 C28 N10 O2'
_cell_volume   657.09330806
_cell_formula_units_Z   2
loop_
 _symmetry_equiv_pos_site_id
 _symmetry_equiv_pos_as_xyz
  1  'x, y, z'
loop_
 _atom_site_type_symbol
 _atom_site_label
 _atom_site_symmetry_multiplicity
 _atom_site_fract_x
 _atom_site_fract_y
 _atom_site_fract_z
 _atom_site_occupancy
 _atom_site_pbe_bader_spin_density
 _atom_site_pbe_cm5_charge
 _atom_site_pbe_ddec_charge
 _atom_site_pbe_ddec_spin_density
 _atom_site_pbe_ddec_sum_bond_order
 _atom_site_pbe_magmom
Zn  Zn0  1  0.25329303  0.45240420  0.97131195  1  0  0.699644  0.778532  0  2.424887  0
Zn  Zn1  1  0.74670199  0.54759198  0.02868913  1  0  0.699647  0.7786  0  2.42488  0
H  H2  1  0.54126395  0.55565238  0.72518970  1  0  0.115171  0.087171  0  1.020351  0
H  H3  1  0.45874236  0.44434380  0.27481638  1  0  0.115127  0.087074  0  1.020439  0
H  H4  1  0.69859900  0.46459927  0.55716859  1  0  0.103673  0.105739  0  1.037152  0
H  H5  1  0.30140592  0.53540220  0.44283476  1  0  0.103678  0.105729  0  1.037179  0
H  H6  1  0.62858820  0.22796460  0.57344847  1  0  0.109044  0.105992  0  0.994544  0
H  H7  1  0.37140404  0.77204219  0.42654447  1  0  0.109025  0.105926  0  0.994619  0
H  H8  1  0.40941467  0.08952435  0.76050997  1  0  0.105788  0.115881  0  1.061097  0
H  H9  1  0.59057729  0.91048350  0.23948261  1  0  0.105821  0.1159  0  1.06107  0
H  H10  1  0.30443980  0.06204833  0.99499670  1  0  0.106498  0.056079  0  0.980479  0
H  H11  1  0.69555925  0.93795105  0.00500136  1  0  0.106496  0.056109  0  0.980455  0
H  H12  1  0.89530177  0.12348627  0.97989312  1  0  0.088127  0.126381  0  1.044254  0
H  H13  1  0.10469699  0.87651416  0.02010545  1  0  0.088139  0.126409  0  1.044231  0
H  H14  1  0.00816705  0.13383662  0.82742201  1  0  0.087476  0.12525  0  1.022679  0
H  H15  1  0.99182952  0.86616591  0.17257676  1  0  0.087491  0.125269  0  1.022585  0
H  H16  1  0.91346090  0.29190253  0.85711895  1  0  0.089117  0.134994  0  1.028472  0
H  H17  1  0.08653431  0.70809894  0.14288201  1  0  0.08911  0.134969  0  1.028539  0
H  H18  1  0.22250468  0.04638047  0.19467319  1  0  0.109131  0.060514  0  1.017982  0
H  H19  1  0.77749329  0.95361677  0.80532832  1  0  0.109131  0.060478  0  1.017956  0
H  H20  1  0.25782336  0.00214690  0.40742400  1  0  0.097606  0.09173  0  1.022038  0
H  H21  1  0.74217996  0.99785458  0.59257673  1  0  0.097629  0.091744  0  1.021961  0
H  H22  1  0.18863930  0.06735568  0.59679975  1  0  0.092999  0.098522  0  1.055565  0
H  H23  1  0.81135752  0.93264578  0.40320206  1  0  0.093009  0.098489  0  1.055656  0
H  H24  1  0.04272759  0.32026953  0.56138027  1  0  0.092549  0.084939  0  1.029688  0
H  H25  1  0.95726680  0.67973513  0.43861692  1  0  0.092542  0.084942  0  1.029658  0
H  H26  1  0.97398450  0.50259123  0.33902053  1  0  0.095172  0.107736  0  1.029379  0
H  H27  1  0.02601400  0.49741026  0.66097501  1  0  0.095178  0.107739  0  1.02937  0
C  C28  1  0.51765572  0.45310633  0.72810992  1  0  0.050942  0.106393  0  3.937221  0
C  C29  1  0.48235298  0.54689302  0.27189674  1  0  0.051026  0.106553  0  3.937208  0
C  C30  1  0.60413761  0.40161694  0.63575098  1  0  -0.08863  -0.148002  0  4.009781  0
C  C31  1  0.39586381  0.59838559  0.36424943  1  0  -0.088729  -0.148191  0  4.009995  0
C  C32  1  0.56556589  0.26965100  0.64593737  1  0  -0.067088  -0.022774  0  3.973396  0
C  C33  1  0.43443203  0.73035261  0.35406010  1  0  -0.067034  -0.022611  0  3.973386  0
C  C34  1  0.44492601  0.19275851  0.74913073  1  0  -0.087142  -0.184999  0  3.945867  0
C  C35  1  0.55506813  0.80724722  0.25086343  1  0  -0.087161  -0.184997  0  3.945857  0
C  C36  1  0.36504623  0.25087398  0.83907454  1  0  0.12902  0.211647  0  3.892381  0
C  C37  1  0.63494683  0.74912962  0.16092218  1  0  0.128946  0.211552  0  3.89253  0
C  C38  1  0.22472532  0.17421051  0.95028620  1  0  0.015625  0.111944  0  3.89629  0
C  C39  1  0.77527429  0.82578674  0.04971259  1  0  0.015638  0.111935  0  3.896315  0
C  C40  1  0.99493166  0.18112988  0.89969478  1  0  -0.246819  -0.413885  0  3.860393  0
C  C41  1  0.00506709  0.81887054  0.10030557  1  0  -0.246827  -0.413886  0  3.860349  0
C  C42  1  0.20029120  0.16223001  0.16414674  1  0  0.081018  0.122378  0  3.976025  0
C  C43  1  0.79970921  0.83776404  0.83585937  1  0  0.081061  0.122522  0  3.976321  0
C  C44  1  0.16503245  0.21383115  0.26655106  1  0  -0.037531  -0.087198  0  4.018448  0
C  C45  1  0.83496467  0.78616926  0.73345023  1  0  -0.037579  -0.087274  0  4.018515  0
C  C46  1  0.19873767  0.11232050  0.39357548  1  0  -0.084972  -0.081729  0  3.993481  0
C  C47  1  0.80126650  0.88767781  0.60642547  1  0  -0.085006  -0.081767  0  3.993507  0
C  C48  1  0.15895846  0.14818241  0.49988106  1  0  -0.117514  -0.136118  0  4.0509  0
C  C49  1  0.84103887  0.85182330  0.50011744  1  0  -0.117527  -0.136078  0  4.051038  0
C  C50  1  0.07592150  0.28993977  0.47892003  1  0  -0.096808  -0.057884  0  4.049865  0
C  C51  1  0.92407508  0.71006277  0.52107786  1  0  -0.096811  -0.057877  0  4.049867  0
C  C52  1  0.03757702  0.39243790  0.35506660  1  0  -0.119301  -0.232817  0  3.994536  0
C  C53  1  0.96242413  0.60756570  0.64493166  1  0  -0.119313  -0.232857  0  3.994601  0
C  C54  1  0.08682413  0.35948923  0.24490055  1  0  0.087984  0.317505  0  4.065946  0
C  C55  1  0.91317845  0.64050909  0.75509779  1  0  0.088045  0.317541  0  4.065945  0
N  N56  1  0.40085684  0.37890294  0.82740786  1  0  -0.318519  -0.265842  0  3.52012  0
N  N57  1  0.59914733  0.62109537  0.17259309  1  0  -0.318477  -0.265781  0  3.519956  0
N  N58  1  0.20346814  0.24060660  0.04314635  1  0  -0.34503  -0.279421  0  3.477428  0
N  N59  1  0.79653309  0.75939066  0.95685329  1  0  -0.345085  -0.279559  0  3.477741  0
N  N60  1  0.40205640  0.63066885  0.90916599  1  0  -0.295253  -0.526811  0  3.085759  0
N  N61  1  0.59794698  0.36932627  0.09083789  1  0  -0.295284  -0.527  0  3.085264  0
N  N62  1  0.33723629  0.75593787  0.86082940  1  0  0.088835  0.437427  0  4.482304  0
N  N63  1  0.66277731  0.24403715  0.13918223  1  0  0.088612  0.437274  0  4.482411  0
N  N64  1  0.28442859  0.87888533  0.81455322  1  0  -0.197352  -0.403269  0  2.662758  0
N  N65  1  0.71557615  0.12111087  0.18544758  1  0  -0.197057  -0.402911  0  2.663333  0
O  O66  1  0.05999161  0.46206549  0.12841744  1  0  -0.343459  -0.546001  0  2.469182  0
O  O67  1  0.94000744  0.53793388  0.87158061  1  0  -0.343459  -0.545969  0  2.469136  0
