# generated using pymatgen
data_CdH13C15N3O5
_symmetry_space_group_name_H-M   'P 1'
_cell_length_a   9.09158412
_cell_length_b   10.57620559
_cell_length_c   16.09185805
_cell_angle_alpha   100.06112709
_cell_angle_beta   89.99995117
_cell_angle_gamma   89.99998607
_symmetry_Int_Tables_number   1
_chemical_formula_structural   CdH13C15N3O5
_chemical_formula_sum   'Cd4 H52 C60 N12 O20'
_cell_volume   1523.50942080
_cell_formula_units_Z   4
loop_
 _symmetry_equiv_pos_site_id
 _symmetry_equiv_pos_as_xyz
  1  'x, y, z'
loop_
 _atom_site_type_symbol
 _atom_site_label
 _atom_site_symmetry_multiplicity
 _atom_site_fract_x
 _atom_site_fract_y
 _atom_site_fract_z
 _atom_site_occupancy
 _atom_site_hle17_bader_spin_density
 _atom_site_hle17_ddec_charge
 _atom_site_hle17_ddec_spin_density
 _atom_site_hle17_ddec_sum_bond_order
 _atom_site_hle17_magmom
 _atom_site_hse06_10hf_bader_spin_density
 _atom_site_hse06_10hf_ddec_charge
 _atom_site_hse06_10hf_ddec_spin_density
 _atom_site_hse06_10hf_ddec_sum_bond_order
 _atom_site_hse06_10hf_magmom
 _atom_site_hse06_bader_spin_density
 _atom_site_hse06_ddec_charge
 _atom_site_hse06_ddec_spin_density
 _atom_site_hse06_ddec_sum_bond_order
 _atom_site_hse06_magmom
 _atom_site_pbe_bader_spin_density
 _atom_site_pbe_cm5_charge
 _atom_site_pbe_ddec_charge
 _atom_site_pbe_ddec_spin_density
 _atom_site_pbe_ddec_sum_bond_order
 _atom_site_pbe_magmom
Cd  Cd0  1  0.85924453  0.30348472  0.84428408  1  0  1.110767  0  1.682183  0  0  0.910009  0  2.135082  0  0  0.971168  0  2.082406  0  0  0.769031  0.866221  0  2.171253  0
Cd  Cd1  1  0.14075955  0.30349008  0.34428378  1  0  1.110821  0  1.682144  0  0  0.910091  0  2.13503  0  0  0.971251  0  2.082354  0  0  0.769049  0.866306  0  2.171201  0
Cd  Cd2  1  0.12096626  0.02752652  0.74547201  1  0  1.104222  0  1.7083  0  0  0.905113  0  2.163525  0  0  0.965388  0  2.111242  0  0  0.767798  0.861848  0  2.19945  0
Cd  Cd3  1  0.87903694  0.02752775  0.24547147  1  0  1.10424  0  1.708192  0  0  0.905128  0  2.163441  0  0  0.965403  0  2.111156  0  0  0.767802  0.861864  0  2.199366  0
H  H4  1  0.34423745  0.78345210  0.78723708  1  0  0.316593  0  0.907463  0  0  0.29673  0  0.974333  0  0  0.304631  0  0.967807  0  0  0.314263  0.291189  0  0.978798  0
H  H5  1  0.65576329  0.78345438  0.28723677  1  0  0.316608  0  0.907552  0  0  0.296767  0  0.974404  0  0  0.304669  0  0.967875  0  0  0.314274  0.291225  0  0.978866  0
H  H6  1  0.60635900  0.53963004  0.80902855  1  0  0.314451  0  0.912784  0  0  0.293643  0  0.980156  0  0  0.30205  0  0.973227  0  0  0.312417  0.287697  0  0.985003  0
H  H7  1  0.39364287  0.53963058  0.30902381  1  0  0.314492  0  0.912697  0  0  0.293699  0  0.980049  0  0  0.302093  0  0.973128  0  0  0.31243  0.287758  0  0.984892  0
H  H8  1  0.78615298  0.28379474  0.54964177  1  0  0.100943  0  0.923373  0  0  0.116346  0  0.981254  0  0  0.118982  0  0.979979  0  0  0.097517  0.114437  0  0.982332  0
H  H9  1  0.21384935  0.28379242  0.04963924  1  0  0.10094  0  0.923354  0  0  0.116331  0  0.981253  0  0  0.11897  0  0.979974  0  0  0.09749  0.11442  0  0.982333  0
H  H10  1  0.97981779  0.28379758  0.55446979  1  0  0.121276  0  0.927182  0  0  0.135648  0  0.989135  0  0  0.138758  0  0.987046  0  0  0.104435  0.133318  0  0.990875  0
H  H11  1  0.02018672  0.28379632  0.05446562  1  0  0.121337  0  0.927156  0  0  0.135716  0  0.989091  0  0  0.138825  0  0.987002  0  0  0.104458  0.133388  0  0.990824  0
H  H12  1  0.78994004  0.03814736  0.53502758  1  0  0.097411  0  0.928556  0  0  0.113324  0  0.984884  0  0  0.11554  0  0.984084  0  0  0.095629  0.111722  0  0.98563  0
H  H13  1  0.21006017  0.03814496  0.03502877  1  0  0.097489  0  0.928501  0  0  0.113342  0  0.984906  0  0  0.115558  0  0.984107  0  0  0.095636  0.111742  0  0.98565  0
H  H14  1  0.98426041  0.04375734  0.53953760  1  0  0.124719  0  0.941252  0  0  0.137745  0  1.003771  0  0  0.141329  0  1.001167  0  0  0.103397  0.135078  0  1.005964  0
H  H15  1  0.01574090  0.04375703  0.03953417  1  0  0.124705  0  0.941318  0  0  0.137738  0  1.00383  0  0  0.141326  0  1.00122  0  0  0.103386  0.13507  0  1.006023  0
H  H16  1  0.11665576  0.72849559  0.50681542  1  0  0.092204  0  0.921081  0  0  0.110528  0  0.975883  0  0  0.112195  0  0.975889  0  0  0.096547  0.109276  0  0.976233  0
H  H17  1  0.88334541  0.72849488  0.00681588  1  0  0.092186  0  0.921113  0  0  0.11052  0  0.975905  0  0  0.112188  0  0.975907  0  0  0.096539  0.109271  0  0.976253  0
H  H18  1  0.29912673  0.76669457  0.48466102  1  0  0.101417  0  0.947881  0  0  0.113325  0  1.015548  0  0  0.115172  0  1.015641  0  0  0.097112  0.112065  0  1.015505  0
H  H19  1  0.70087812  0.76669895  0.98465887  1  0  0.101432  0  0.94791  0  0  0.113327  0  1.015605  0  0  0.115171  0  1.015701  0  0  0.097119  0.11207  0  1.015561  0
H  H20  1  0.22792785  0.57850169  0.60495050  1  0  0.089837  0  0.960022  0  0  0.105827  0  1.018893  0  0  0.107932  0  1.018094  0  0  0.092539  0.104389  0  1.019484  0
H  H21  1  0.77206112  0.57849823  0.10494632  1  0  0.089802  0  0.960054  0  0  0.105863  0  1.018857  0  0  0.107969  0  1.018055  0  0  0.092566  0.104431  0  1.01945  0
H  H22  1  0.39998480  0.60489810  0.56047262  1  0  0.120703  0  0.947005  0  0  0.135299  0  1.005322  0  0  0.137886  0  1.004272  0  0  0.102705  0.133459  0  1.006125  0
H  H23  1  0.60000972  0.60490151  0.06046502  1  0  0.120715  0  0.946965  0  0  0.135272  0  1.005342  0  0  0.137855  0  1.004299  0  0  0.102699  0.133442  0  1.006148  0
H  H24  1  0.73257235  0.17876947  0.98489054  1  0  0.088542  0  0.95395  0  0  0.09791  0  1.015563  0  0  0.100527  0  1.013362  0  0  0.118607  0.095829  0  1.017513  0
H  H25  1  0.26743376  0.17877867  0.48488817  1  0  0.088615  0  0.953862  0  0  0.097927  0  1.015549  0  0  0.100538  0  1.013356  0  0  0.118579  0.095846  0  1.017497  0
H  H26  1  0.57436291  0.99662578  0.01654852  1  0  0.118323  0  0.950836  0  0  0.125209  0  1.012494  0  0  0.129268  0  1.010354  0  0  0.112743  0.122201  0  1.014412  0
H  H27  1  0.42563928  0.99663219  0.51654613  1  0  0.118208  0  0.951011  0  0  0.12519  0  1.012605  0  0  0.129247  0  1.010464  0  0  0.11272  0.122182  0  1.014521  0
H  H28  1  0.48100461  0.90560753  0.74890358  1  0  0.116552  0  0.974458  0  0  0.124392  0  1.037753  0  0  0.128172  0  1.036038  0  0  0.110437  0.121817  0  1.038703  0
H  H29  1  0.51899616  0.90560892  0.24890199  1  0  0.116556  0  0.974456  0  0  0.124399  0  1.037742  0  0  0.128179  0  1.036027  0  0  0.11043  0.121824  0  1.038693  0
H  H30  1  0.64345387  0.08603743  0.72985996  1  0  0.084797  0  0.92095  0  0  0.096417  0  0.977769  0  0  0.098542  0  0.976656  0  0  0.120183  0.094795  0  0.978674  0
H  H31  1  0.35654934  0.08603890  0.22985721  1  0  0.084898  0  0.920823  0  0  0.096484  0  0.977668  0  0  0.098625  0  0.976536  0  0  0.120199  0.09486  0  0.978575  0
H  H32  1  0.10665060  0.45137530  0.97135077  1  0  0.083298  0  0.935243  0  0  0.092712  0  0.997879  0  0  0.094755  0  0.996138  0  0  0.119303  0.091196  0  0.999078  0
H  H33  1  0.89334886  0.45137652  0.47135083  1  0  0.083292  0  0.935222  0  0  0.092703  0  0.997866  0  0  0.094747  0  0.996123  0  0  0.119274  0.091188  0  0.999063  0
H  H34  1  0.29152924  0.62478961  0.97967339  1  0  0.128562  0  0.993444  0  0  0.131927  0  1.061423  0  0  0.136384  0  1.058434  0  0  0.109134  0.128763  0  1.063661  0
H  H35  1  0.70847015  0.62479280  0.47967441  1  0  0.128576  0  0.993407  0  0  0.131942  0  1.061384  0  0  0.136399  0  1.058396  0  0  0.109139  0.128777  0  1.063623  0
H  H36  1  0.18827350  0.64607874  0.72066383  1  0  0.123297  0  0.99402  0  0  0.132939  0  1.051676  0  0  0.136686  0  1.050338  0  0  0.10962  0.13018  0  1.052829  0
H  H37  1  0.81172408  0.64607811  0.22066184  1  0  0.123279  0  0.994072  0  0  0.132924  0  1.051725  0  0  0.136668  0  1.050394  0  0  0.109604  0.130165  0  1.052879  0
H  H38  1  0.01166843  0.46496338  0.72157210  1  0  0.084585  0  0.952412  0  0  0.095253  0  1.010109  0  0  0.097464  0  1.008382  0  0  0.116032  0.093555  0  1.011371  0
H  H39  1  0.98832919  0.46496263  0.22157249  1  0  0.08455  0  0.952395  0  0  0.095219  0  1.010094  0  0  0.097429  0  1.008368  0  0  0.116026  0.09352  0  1.011356  0
H  H40  1  0.87681031  0.91346284  0.62103611  1  0  0.080549  0  0.966276  0  0  0.087426  0  1.034324  0  0  0.089781  0  1.032507  0  0  0.116728  0.08564  0  1.03579  0
H  H41  1  0.12318954  0.91346060  0.12103115  1  0  0.080636  0  0.966146  0  0  0.087489  0  1.034215  0  0  0.089843  0  1.032399  0  0  0.116781  0.085704  0  1.035679  0
H  H42  1  0.69094066  0.73804978  0.59023253  1  0  0.125547  0  0.984093  0  0  0.130934  0  1.04937  0  0  0.135247  0  1.046332  0  0  0.112303  0.127739  0  1.05182  0
H  H43  1  0.30905819  0.73804457  0.09022836  1  0  0.125499  0  0.984195  0  0  0.130899  0  1.049446  0  0  0.135211  0  1.046409  0  0  0.112272  0.127704  0  1.051898  0
H  H44  1  0.78408047  0.64800789  0.83740320  1  0  0.119382  0  0.99878  0  0  0.125498  0  1.063905  0  0  0.129656  0  1.061836  0  0  0.108886  0.122526  0  1.065358  0
H  H45  1  0.21592023  0.64800557  0.33740067  1  0  0.119444  0  0.998731  0  0  0.12548  0  1.063956  0  0  0.129639  0  1.061882  0  0  0.108929  0.122514  0  1.065384  0
H  H46  1  0.96246519  0.82943711  0.85763003  1  0  0.086836  0  0.93177  0  0  0.096549  0  0.990599  0  0  0.099182  0  0.988914  0  0  0.11801  0.094506  0  0.991989  0
H  H47  1  0.03753544  0.82943489  0.35762574  1  0  0.086936  0  0.931745  0  0  0.096626  0  0.990589  0  0  0.099274  0  0.988887  0  0  0.118018  0.094578  0  0.991982  0
H  H48  1  0.31586836  0.22264109  0.87506085  1  0  0.077578  0  0.939309  0  0  0.09046  0  0.996689  0  0  0.092035  0  0.995555  0  0  0.116097  0.089158  0  0.997672  0
H  H49  1  0.68413239  0.22264340  0.37505867  1  0  0.07765  0  0.939285  0  0  0.0905  0  0.996691  0  0  0.092084  0  0.995544  0  0  0.116124  0.089197  0  0.997674  0
H  H50  1  0.48240037  0.40991994  0.87899261  1  0  0.130083  0  0.950767  0  0  0.141281  0  1.004157  0  0  0.14481  0  1.003366  0  0  0.113956  0.138849  0  1.004551  0
H  H51  1  0.51760033  0.40992136  0.37898977  1  0  0.12996  0  0.950899  0  0  0.141267  0  1.004157  0  0  0.144799  0  1.003359  0  0  0.113943  0.138834  0  1.004551  0
H  H52  1  0.43885921  0.36268721  0.60777550  1  0  0.134188  0  0.965753  0  0  0.14204  0  1.023508  0  0  0.146089  0  1.02184  0  0  0.112681  0.139127  0  1.024917  0
H  H53  1  0.56113861  0.36268381  0.10777205  1  0  0.134285  0  0.965592  0  0  0.142113  0  1.023371  0  0  0.14617  0  1.021689  0  0  0.112678  0.139192  0  1.024797  0
H  H54  1  0.27362070  0.17597436  0.61584303  1  0  0.07914  0  0.952245  0  0  0.090446  0  1.013382  0  0  0.092358  0  1.011539  0  0  0.11614  0.088947  0  1.014876  0
H  H55  1  0.72637496  0.17596801  0.11583976  1  0  0.079128  0  0.952189  0  0  0.090431  0  1.013331  0  0  0.092337  0  1.011504  0  0  0.116122  0.08893  0  1.014826  0
C  C56  1  0.87375589  0.24013175  0.66379860  1  0  0.698386  0  3.84764  0  0  0.65297  0  4.143351  0  0  0.687425  0  4.136254  0  0  0.20142  0.62943  0  4.146967  0
C  C57  1  0.12624407  0.24013142  0.16379449  1  0  0.698574  0  3.847613  0  0  0.653163  0  4.143303  0  0  0.687618  0  4.136204  0  0  0.201488  0.629618  0  4.146921  0
C  C58  1  0.88092083  0.23089839  0.56869348  1  0  -0.239267  0  3.674067  0  0  -0.279178  0  3.926759  0  0  -0.284578  0  3.933912  0  0  -0.165853  -0.275425  0  3.921899  0
C  C59  1  0.11908148  0.23089614  0.06868915  1  0  -0.239369  0  3.674073  0  0  -0.279261  0  3.926752  0  0  -0.284664  0  3.93391  0  0  -0.165834  -0.275503  0  3.921879  0
C  C60  1  0.88622029  0.09319020  0.52043573  1  0  -0.246598  0  3.677576  0  0  -0.283356  0  3.927324  0  0  -0.289042  0  3.934237  0  0  -0.169494  -0.279494  0  3.922695  0
C  C61  1  0.11378322  0.09318787  0.02043512  1  0  -0.246648  0  3.677672  0  0  -0.28337  0  3.927452  0  0  -0.28906  0  3.934368  0  0  -0.169511  -0.279514  0  3.922822  0
C  C62  1  0.89310256  0.08275676  0.42540813  1  0  0.701692  0  3.847751  0  0  0.655434  0  4.144906  0  0  0.690111  0  4.137493  0  0  0.199717  0.631675  0  4.148585  0
C  C63  1  0.10690586  0.08275169  0.92540821  1  0  0.701669  0  3.847792  0  0  0.655358  0  4.145042  0  0  0.690036  0  4.137629  0  0  0.199681  0.631601  0  4.148721  0
C  C64  1  0.22803230  0.83895246  0.61023885  1  0  0.689787  0  3.855488  0  0  0.64536  0  4.152614  0  0  0.678524  0  4.14678  0  0  0.198217  0.622804  0  4.155762  0
C  C65  1  0.77196429  0.83895086  0.11023801  1  0  0.689824  0  3.85545  0  0  0.645391  0  4.15258  0  0  0.678552  0  4.146747  0  0  0.198249  0.622837  0  4.155728  0
C  C66  1  0.22938197  0.73363745  0.53238334  1  0  -0.224759  0  3.672157  0  0  -0.263495  0  3.923905  0  0  -0.268382  0  3.932206  0  0  -0.164683  -0.260154  0  3.918332  0
C  C67  1  0.77061806  0.73363973  0.03238111  1  0  -0.22475  0  3.672271  0  0  -0.263465  0  3.924006  0  0  -0.268348  0  3.932303  0  0  -0.164686  -0.260126  0  3.918453  0
C  C68  1  0.28080976  0.60267263  0.54870300  1  0  -0.242775  0  3.684258  0  0  -0.283974  0  3.935135  0  0  -0.289343  0  3.94254  0  0  -0.174276  -0.280282  0  3.929946  0
C  C69  1  0.71918588  0.60267404  0.04869696  1  0  -0.242899  0  3.684312  0  0  -0.284142  0  3.93533  0  0  -0.289502  0  3.942717  0  0  -0.174404  -0.280479  0  3.93019  0
C  C70  1  0.24924987  0.49448159  0.47612823  1  0  0.692966  0  3.851946  0  0  0.648371  0  4.14796  0  0  0.681698  0  4.141876  0  0  0.196219  0.625815  0  4.151047  0
C  C71  1  0.75074516  0.49448222  0.97612000  1  0  0.693408  0  3.851373  0  0  0.648704  0  4.147529  0  0  0.682023  0  4.141458  0  0  0.196337  0.626156  0  4.150619  0
C  C72  1  0.67437131  0.11449622  0.93535316  1  0  0.125869  0  3.693538  0  0  0.096265  0  3.942035  0  0  0.102424  0  3.960686  0  0  0.04734  0.092364  0  3.929542  0
C  C73  1  0.32563378  0.11450445  0.43535001  1  0  0.125688  0  3.693243  0  0  0.096125  0  3.941795  0  0  0.102288  0  3.960444  0  0  0.047339  0.092226  0  3.929297  0
C  C74  1  0.58638665  0.01482352  0.95238959  1  0  -0.118341  0  3.700332  0  0  -0.140128  0  3.948445  0  0  -0.145614  0  3.968714  0  0  -0.073934  -0.137003  0  3.935504  0
C  C75  1  0.41361515  0.01483073  0.45238814  1  0  -0.118048  0  3.700203  0  0  -0.139983  0  3.948355  0  0  -0.145462  0  3.968616  0  0  -0.073856  -0.136856  0  3.935414  0
C  C76  1  0.51426493  0.93578304  0.88590697  1  0  0.00015  0  3.721079  0  0  0.013705  0  3.961063  0  0  0.012665  0  3.981651  0  0  0.008178  0.014344  0  3.947291  0
C  C77  1  0.48573342  0.93578829  0.38590587  1  0  8.1e-05  0  3.720963  0  0  0.013649  0  3.960952  0  0  0.012608  0  3.981536  0  0  0.008159  0.014288  0  3.947184  0
C  C78  1  0.53459148  0.96130247  0.80407830  1  0  -0.133348  0  3.688078  0  0  -0.158022  0  3.945629  0  0  -0.163894  0  3.966695  0  0  -0.078263  -0.153625  0  3.931153  0
C  C79  1  0.46540919  0.96130583  0.30407573  1  0  -0.133359  0  3.688042  0  0  -0.158015  0  3.945539  0  0  -0.16389  0  3.966615  0  0  -0.078268  -0.153622  0  3.931068  0
C  C80  1  0.62484320  0.06335078  0.79257944  1  0  0.137942  0  3.698372  0  0  0.104569  0  3.959213  0  0  0.111252  0  3.977927  0  0  0.050047  0.100205  0  3.946233  0
C  C81  1  0.37515992  0.06335321  0.29257680  1  0  0.137907  0  3.698332  0  0  0.104563  0  3.95911  0  0  0.111233  0  3.977822  0  0  0.05006  0.100201  0  3.946128  0
C  C82  1  0.12820463  0.49657437  0.91663417  1  0  0.139463  0  3.723969  0  0  0.108711  0  3.976982  0  0  0.11715  0  3.996494  0  0  0.04464  0.103359  0  3.963662  0
C  C83  1  0.87179489  0.49657463  0.41663475  1  0  0.139482  0  3.724025  0  0  0.108737  0  3.977042  0  0  0.117178  0  3.996551  0  0  0.044649  0.103386  0  3.963715  0
C  C84  1  0.23028693  0.59564089  0.92179888  1  0  -0.220443  0  3.681769  0  0  -0.237676  0  3.931824  0  0  -0.247952  0  3.951124  0  0  -0.092393  -0.231162  0  3.91915  0
C  C85  1  0.76971255  0.59564311  0.42179914  1  0  -0.220439  0  3.681845  0  0  -0.237673  0  3.931891  0  0  -0.247949  0  3.951188  0  0  -0.092351  -0.231159  0  3.919218  0
C  C86  1  0.25328847  0.65249960  0.85010643  1  0  0.316947  0  3.756391  0  0  0.305377  0  4.004714  0  0  0.319324  0  4.022513  0  0  0.121084  0.296108  0  3.992723  0
C  C87  1  0.74671001  0.65249993  0.35010583  1  0  0.316956  0  3.756457  0  0  0.305419  0  4.004784  0  0  0.319368  0  4.022577  0  0  0.121086  0.296147  0  3.992797  0
C  C88  1  0.17367865  0.60313581  0.77679989  1  0  -0.224356  0  3.711874  0  0  -0.242901  0  3.965475  0  0  -0.253707  0  3.986022  0  0  -0.093425  -0.236298  0  3.952004  0
C  C89  1  0.82632216  0.60313705  0.27679999  1  0  -0.224424  0  3.712001  0  0  -0.242977  0  3.965599  0  0  -0.253781  0  3.986144  0  0  -0.093448  -0.236376  0  3.952131  0
C  C90  1  0.07621269  0.50322989  0.77735181  1  0  0.136576  0  3.742505  0  0  0.106365  0  3.99483  0  0  0.11462  0  4.014577  0  0  0.039118  0.100919  0  3.981384  0
C  C91  1  0.92378483  0.50323110  0.27735186  1  0  0.1367  0  3.742556  0  0  0.106504  0  3.994865  0  0  0.114759  0  4.014609  0  0  0.039169  0.101056  0  3.981418  0
C  C92  1  0.42319939  0.82789866  0.90905605  1  0  0.556719  0  3.789718  0  0  0.509344  0  4.078181  0  0  0.538915  0  4.074834  0  0  0.252663  0.489684  0  4.079428  0
C  C93  1  0.57680006  0.82790096  0.40905640  1  0  0.556597  0  3.789796  0  0  0.509314  0  4.078161  0  0  0.538887  0  4.074805  0  0  0.252586  0.48965  0  4.079413  0
C  C94  1  0.85236130  0.85185118  0.66683076  1  0  0.125143  0  3.702152  0  0  0.096551  0  3.951891  0  0  0.102068  0  3.971457  0  0  0.045045  0.092727  0  3.938988  0
C  C95  1  0.14763850  0.85184700  0.16682617  1  0  0.125072  0  3.702181  0  0  0.096502  0  3.951926  0  0  0.102019  0  3.971491  0  0  0.045039  0.092679  0  3.939023  0
C  C96  1  0.75051989  0.75305985  0.64972146  1  0  -0.125552  0  3.691946  0  0  -0.145794  0  3.934079  0  0  -0.151228  0  3.954129  0  0  -0.07541  -0.142167  0  3.920858  0
C  C97  1  0.24947887  0.75305463  0.14971856  1  0  -0.125422  0  3.692048  0  0  -0.145647  0  3.934139  0  0  -0.151081  0  3.954186  0  0  -0.075318  -0.142024  0  3.92092  0
C  C98  1  0.72489176  0.67486776  0.71004513  1  0  0.000788  0  3.714329  0  0  0.016361  0  3.950484  0  0  0.015165  0  3.970505  0  0  0.007233  0.017019  0  3.936617  0
C  C99  1  0.27510473  0.67486256  0.21004097  1  0  0.000731  0  3.714538  0  0  0.016288  0  3.950689  0  0  0.015097  0  3.970708  0  0  0.007168  0.016945  0  3.93682  0
C  C100  1  0.79880841  0.70436300  0.78732419  1  0  -0.139693  0  3.693107  0  0  -0.162895  0  3.946741  0  0  -0.168524  0  3.967245  0  0  -0.082352  -0.159027  0  3.932406  0
C  C101  1  0.20118685  0.70436068  0.28732167  1  0  -0.139612  0  3.693069  0  0  -0.162746  0  3.946709  0  0  -0.168373  0  3.967213  0  0  -0.082345  -0.158875  0  3.932373  0
C  C102  1  0.89940801  0.80556619  0.79930305  1  0  0.12927  0  3.697969  0  0  0.099615  0  3.953576  0  0  0.105873  0  3.972254  0  0  0.047574  0.095303  0  3.940735  0
C  C103  1  0.10059050  0.80556393  0.29929934  1  0  0.129093  0  3.698069  0  0  0.099467  0  3.953642  0  0  0.105714  0  3.972318  0  0  0.047605  0.095158  0  3.940807  0
C  C104  1  0.34596987  0.25628453  0.81711845  1  0  0.142614  0  3.755705  0  0  0.108094  0  4.013914  0  0  0.116968  0  4.033879  0  0  0.038949  0.102353  0  4.000171  0
C  C105  1  0.65403097  0.25628588  0.31711617  1  0  0.142482  0  3.755767  0  0  0.107998  0  4.013986  0  0  0.116867  0  4.033953  0  0  0.038915  0.102256  0  4.000242  0
C  C106  1  0.43807701  0.36058680  0.81923764  1  0  -0.225877  0  3.704343  0  0  -0.244608  0  3.961569  0  0  -0.255596  0  3.982264  0  0  -0.091119  -0.236841  0  3.947286  0
C  C107  1  0.56192489  0.36058723  0.31923528  1  0  -0.225836  0  3.704418  0  0  -0.24465  0  3.961663  0  0  -0.255635  0  3.98236  0  0  -0.091142  -0.236883  0  3.947373  0
C  C108  1  0.47455036  0.40269896  0.74346510  1  0  0.325037  0  3.750606  0  0  0.312093  0  4.000863  0  0  0.326796  0  4.018794  0  0  0.12478  0.30215  0  3.989005  0
C  C109  1  0.52545055  0.40270034  0.24346412  1  0  0.325188  0  3.750563  0  0  0.312223  0  4.000872  0  0  0.32691  0  4.01881  0  0  0.124825  0.302291  0  3.988998  0
C  C110  1  0.41515153  0.33438831  0.66796842  1  0  -0.213447  0  3.672701  0  0  -0.233227  0  3.925418  0  0  -0.243953  0  3.945504  0  0  -0.089829  -0.226603  0  3.91239  0
C  C111  1  0.58484620  0.33438584  0.16796632  1  0  -0.213624  0  3.672776  0  0  -0.233365  0  3.925461  0  0  -0.24409  0  3.945546  0  0  -0.089828  -0.226739  0  3.912437  0
C  C112  1  0.32326876  0.23093413  0.67250375  1  0  0.137436  0  3.735288  0  0  0.105616  0  3.987498  0  0  0.114338  0  4.00707  0  0  0.042205  0.100231  0  3.974034  0
C  C113  1  0.67672789  0.23093254  0.17250357  1  0  0.137411  0  3.735425  0  0  0.105606  0  3.987629  0  0  0.11433  0  4.007201  0  0  0.042176  0.100224  0  3.974164  0
C  C114  1  0.62406448  0.56166702  0.68462650  1  0  0.562842  0  3.77574  0  0  0.514374  0  4.063617  0  0  0.544361  0  4.059963  0  0  0.255389  0.494265  0  4.065422  0
C  C115  1  0.37593097  0.56166273  0.18462303  1  0  0.562737  0  3.775915  0  0  0.514318  0  4.06374  0  0  0.544285  0  4.060101  0  0  0.255465  0.49422  0  4.065533  0
N  N116  1  0.69364854  0.13870009  0.85674055  1  0  -0.323821  0  3.263724  0  0  -0.246376  0  3.530424  0  0  -0.265922  0  3.549682  0  0  -0.323447  -0.233191  0  3.517233  0
N  N117  1  0.30635777  0.13870352  0.35673744  1  0  -0.32385  0  3.263617  0  0  -0.246375  0  3.53028  0  0  -0.265923  0  3.549543  0  0  -0.323436  -0.233187  0  3.517084  0
N  N118  1  0.34955442  0.75281379  0.84429987  1  0  -0.439003  0  3.323711  0  0  -0.383766  0  3.563036  0  0  -0.406483  0  3.569472  0  0  -0.389325  -0.368261  0  3.557639  0
N  N119  1  0.65044625  0.75281608  0.34429895  1  0  -0.438942  0  3.323803  0  0  -0.383825  0  3.563196  0  0  -0.406542  0  3.569629  0  0  -0.389358  -0.368317  0  3.557798  0
N  N120  1  0.05152498  0.45015394  0.84634521  1  0  -0.349523  0  3.264501  0  0  -0.273344  0  3.531717  0  0  -0.295786  0  3.552561  0  0  -0.339122  -0.258054  0  3.517252  0
N  N121  1  0.94847466  0.45015514  0.34634525  1  0  -0.349604  0  3.264599  0  0  -0.273442  0  3.531826  0  0  -0.295887  0  3.552669  0  0  -0.339141  -0.25815  0  3.517355  0
N  N122  1  0.92791573  0.87685891  0.73987748  1  0  -0.319507  0  3.243659  0  0  -0.243992  0  3.506289  0  0  -0.262873  0  3.525918  0  0  -0.323472  -0.230633  0  3.492499  0
N  N123  1  0.07208395  0.87685573  0.23987243  1  0  -0.319517  0  3.24372  0  0  -0.244025  0  3.50635  0  0  -0.26291  0  3.525995  0  0  -0.323583  -0.230667  0  3.492557  0
N  N124  1  0.56399570  0.51023628  0.74953901  1  0  -0.441289  0  3.324414  0  0  -0.383812  0  3.561485  0  0  -0.40741  0  3.568054  0  0  -0.389067  -0.36793  0  3.556383  0
N  N125  1  0.43600297  0.51023486  0.24953525  1  0  -0.441343  0  3.32437  0  0  -0.383874  0  3.561456  0  0  -0.407466  0  3.568076  0  0  -0.389125  -0.368007  0  3.556354  0
N  N126  1  0.28807463  0.19138617  0.74510181  1  0  -0.365038  0  3.293243  0  0  -0.286228  0  3.565369  0  0  -0.309691  0  3.585918  0  0  -0.345619  -0.270596  0  3.551089  0
N  N127  1  0.71192523  0.19138364  0.24510026  1  0  -0.36489  0  3.293217  0  0  -0.28611  0  3.565364  0  0  -0.309564  0  3.585895  0  0  -0.345561  -0.270476  0  3.551081  0
O  O128  1  0.93049077  0.15307379  0.69937565  1  0  -0.689888  0  2.047111  0  0  -0.618186  0  2.315753  0  0  -0.648831  0  2.30409  0  0  -0.34145  -0.596073  0  2.322869  0
O  O129  1  0.06950807  0.15307634  0.19937317  1  0  -0.689995  0  2.047141  0  0  -0.618251  0  2.315719  0  0  -0.648897  0  2.304058  0  0  -0.341449  -0.596138  0  2.322835  0
O  O130  1  0.81023887  0.33794456  0.70642912  1  0  -0.644374  0  1.986723  0  0  -0.583337  0  2.233615  0  0  -0.612226  0  2.225315  0  0  -0.330588  -0.562932  0  2.238731  0
O  O131  1  0.18976211  0.33794322  0.20642610  1  0  -0.644442  0  1.986774  0  0  -0.583455  0  2.233725  0  0  -0.612338  0  2.225411  0  0  -0.330649  -0.563051  0  2.238843  0
O  O132  1  0.82579957  0.98846343  0.38061942  1  0  -0.656374  0  1.975821  0  0  -0.595808  0  2.227999  0  0  -0.625281  0  2.219307  0  0  -0.336402  -0.574807  0  2.233349  0
O  O133  1  0.17421308  0.98845736  0.88061996  1  0  -0.656348  0  1.975751  0  0  -0.59573  0  2.227896  0  0  -0.625201  0  2.219201  0  0  -0.336372  -0.574762  0  2.233312  0
O  O134  1  0.96378002  0.16500273  0.39220920  1  0  -0.686187  0  2.038225  0  0  -0.616723  0  2.308453  0  0  -0.647123  0  2.296643  0  0  -0.341055  -0.594612  0  2.315655  0
O  O135  1  0.03623062  0.16499488  0.89220524  1  0  -0.686164  0  2.038336  0  0  -0.61668  0  2.308616  0  0  -0.647085  0  2.296807  0  0  -0.341015  -0.594532  0  2.31573  0
O  O136  1  0.16739600  0.94530332  0.60199712  1  0  -0.667081  0  1.970072  0  0  -0.605409  0  2.217423  0  0  -0.63536  0  2.208745  0  0  -0.341013  -0.58446  0  2.22277  0
O  O137  1  0.83260058  0.94530264  0.10199698  1  0  -0.66705  0  1.970014  0  0  -0.605381  0  2.217372  0  0  -0.635333  0  2.208695  0  0  -0.340985  -0.584431  0  2.222714  0
O  O138  1  0.28006719  0.81837422  0.68011700  1  0  -0.670159  0  1.960558  0  0  -0.608747  0  2.19245  0  0  -0.634129  0  2.182111  0  0  -0.335363  -0.590769  0  2.198643  0
O  O139  1  0.71992930  0.81836782  0.18011621  1  0  -0.670241  0  1.96053  0  0  -0.60882  0  2.19243  0  0  -0.634202  0  2.182089  0  0  -0.3354  -0.590842  0  2.198622  0
O  O140  1  0.28728840  0.50682178  0.40131936  1  0  -0.681567  0  2.003475  0  0  -0.615738  0  2.241394  0  0  -0.643007  0  2.231464  0  0  -0.336444  -0.596449  0  2.247273  0
O  O141  1  0.71270564  0.50682719  0.90131360  1  0  -0.681754  0  2.003319  0  0  -0.615853  0  2.241263  0  0  -0.643116  0  2.231321  0  0  -0.336504  -0.596563  0  2.24714  0
O  O142  1  0.18388283  0.39410097  0.49098040  1  0  -0.65774  0  1.935728  0  0  -0.599086  0  2.175957  0  0  -0.627638  0  2.166641  0  0  -0.336926  -0.579062  0  2.181528  0
O  O143  1  0.81611441  0.39410251  0.99097350  1  0  -0.657885  0  1.935589  0  0  -0.599179  0  2.175868  0  0  -0.62773  0  2.166551  0  0  -0.336899  -0.579154  0  2.181438  0
O  O144  1  0.59806027  0.52241246  0.60908710  1  0  -0.513166  0  1.924171  0  0  -0.468836  0  2.134409  0  0  -0.488717  0  2.127916  0  0  -0.270629  -0.45497  0  2.138477  0
O  O145  1  0.40193861  0.52240913  0.10908312  1  0  -0.513133  0  1.924207  0  0  -0.468849  0  2.134465  0  0  -0.488725  0  2.127976  0  0  -0.270684  -0.454986  0  2.138528  0
O  O146  1  0.42147027  0.80913552  0.98284548  1  0  -0.516285  0  1.920753  0  0  -0.469521  0  2.131551  0  0  -0.489425  0  2.125234  0  0  -0.273136  -0.455463  0  2.13549  0
O  O147  1  0.57852908  0.80913880  0.48284471  1  0  -0.516266  0  1.920785  0  0  -0.469521  0  2.131529  0  0  -0.489435  0  2.125227  0  0  -0.273113  -0.455465  0  2.135471  0
