# generated using pymatgen
data_MgH4C7NO3
_symmetry_space_group_name_H-M   'P 1'
_cell_length_a   6.80325128
_cell_length_b   23.21799262
_cell_length_c   23.22108523
_cell_angle_alpha   119.04968402
_cell_angle_beta   95.61515083
_cell_angle_gamma   95.61319240
_symmetry_Int_Tables_number   1
_chemical_formula_structural   MgH4C7NO3
_chemical_formula_sum   'Mg6 H24 C42 N6 O18'
_cell_volume   3146.30048591
_cell_formula_units_Z   6
loop_
 _symmetry_equiv_pos_site_id
 _symmetry_equiv_pos_as_xyz
  1  'x, y, z'
loop_
 _atom_site_type_symbol
 _atom_site_label
 _atom_site_symmetry_multiplicity
 _atom_site_fract_x
 _atom_site_fract_y
 _atom_site_fract_z
 _atom_site_occupancy
 _atom_site_pbe_bader_charge
 _atom_site_pbe_bader_spin_density
 _atom_site_pbe_cm5_charge
 _atom_site_pbe_ddec_charge
 _atom_site_pbe_ddec_spin_density
 _atom_site_pbe_ddec_sum_bond_order
 _atom_site_pbe_magmom
Mg  Mg0  1  0.53908169  0.31575452  0.70081556  1  1.684339  0  0.898233  1.406806  0  1.32743  0
Mg  Mg1  1  0.79328534  0.67430093  0.38212453  1  1.682762  0  0.903599  1.405198  0  1.338434  0
Mg  Mg2  1  0.22356285  0.38504462  0.68419067  1  1.684707  0  0.898202  1.407137  0  1.32661  0
Mg  Mg3  1  0.11893875  0.70788119  0.32569858  1  1.682428  0  0.903397  1.405401  0  1.338508  0
Mg  Mg4  1  0.83838244  0.29913133  0.61495649  1  1.683916  0  0.898458  1.407111  0  1.32747  0
Mg  Mg5  1  0.41109072  0.61788835  0.29214971  1  1.680697  0  0.903488  1.404608  0  1.339538  0
H  H6  1  0.74505549  0.12770626  0.55542478  1  0.089629  0  0.107167  0.133413  0  1.0195  0
H  H7  1  0.52953534  0.98562845  0.39169473  1  0.425909  0  0.319941  0.239639  0  0.935853  0
H  H8  1  0.88071964  0.04141724  0.46283554  1  0.430767  0  0.306303  0.226797  0  0.980961  0
H  H9  1  0.50128057  0.89545218  0.40969777  1  0.117653  0  0.100858  0.10636  0  1.052436  0
H  H10  1  0.20660503  0.87037138  0.45379581  1  0.088298  0  0.10647  0.12575  0  1.001125  0
H  H11  1  0.12609025  0.98248581  0.48394552  1  0.084032  0  0.103051  0.111077  0  1.010318  0
H  H12  1  0.21985281  0.02998568  0.40125070  1  0.049132  0  0.096635  0.105297  0  1.01483  0
H  H13  1  0.05476838  0.12867153  0.46531391  1  0.082776  0  0.102574  0.103906  0  1.005117  0
H  H14  1  0.61746036  0.42759709  0.87226042  1  0.110589  0  0.107293  0.133622  0  1.019553  0
H  H15  1  0.54391490  0.40598258  0.01434834  1  0.420592  0  0.319704  0.238858  0  0.936953  0
H  H16  1  0.83947637  0.42143811  0.95871058  1  0.422348  0  0.306193  0.226684  0  0.980221  0
H  H17  1  0.60551398  0.51435295  0.10449035  1  0.084485  0  0.100629  0.105893  0  1.052851  0
H  H18  1  0.33603809  0.58353305  0.12976315  1  0.102191  0  0.10628  0.125337  0  1.001567  0
H  H19  1  0.14363572  0.50144823  0.01765221  1  0.077992  0  0.102991  0.110885  0  1.010429  0
H  H20  1  0.18980896  0.37116241  0.96992533  1  0.037112  0  0.096642  0.10484  0  1.014303  0
H  H21  1  0.92598345  0.33664840  0.87123506  1  0.091301  0  0.102245  0.103574  0  1.005427  0
H  H22  1  0.19003254  0.44457591  0.57232163  1  0.09388  0  0.107193  0.133555  0  1.019794  0
H  H23  1  0.13822667  0.60830141  0.59391872  1  0.421679  0  0.31986  0.238956  0  0.937129  0
H  H24  1  0.41814915  0.53718728  0.57850714  1  0.433428  0  0.30639  0.226739  0  0.979979  0
H  H25  1  0.09148441  0.59018214  0.48566382  1  0.087164  0  0.100795  0.106378  0  1.053023  0
H  H26  1  0.75263401  0.54624271  0.41652750  1  0.072539  0  0.106386  0.125415  0  1.001476  0
H  H27  1  0.64220997  0.51608951  0.49850684  1  0.086783  0  0.103157  0.110941  0  1.010464  0
H  H28  1  0.81924947  0.59877524  0.62883903  1  0.042514  0  0.096642  0.105105  0  1.014811  0
H  H29  1  0.59013559  0.53471957  0.66351796  1  0.081825  0  0.102204  0.103909  0  1.004783  0
C  C30  1  0.50525751  0.18389331  0.56971693  1  0.590214  0  0.096447  0.390978  0  4.092337  0
C  C31  1  0.59270998  0.12665660  0.53528376  1  0.042865  0  -0.127222  -0.339338  0  3.94128  0
C  C32  1  0.49206302  0.07116955  0.47572523  1  0.34835  0  0.101608  0.249925  0  4.125675  0
C  C33  1  0.80698054  0.94733952  0.44866383  1  0.318798  0  0.07468  0.171351  0  4.12316  0
C  C34  1  0.65748403  0.89145751  0.41976667  1  -0.057024  0  -0.11006  -0.201497  0  4.008037  0
C  C35  1  0.70180930  0.82728637  0.40206123  1  -0.007984  0  -0.043936  -0.188655  0  3.98538  0
C  C36  1  0.90361105  0.81873813  0.41429029  1  0.61633  0  0.084062  0.344788  0  4.091816  0
C  C37  1  0.05224164  0.87663178  0.44437192  1  0.016185  0  -0.106603  -0.197277  0  3.989861  0
C  C38  1  0.00674572  0.93906398  0.46098743  1  -0.123865  0  -0.093984  -0.145777  0  3.998774  0
C  C39  1  0.53302384  0.77115513  0.36856145  1  1.494997  0  0.235151  0.674578  0  4.118911  0
C  C40  1  0.29692648  0.07229695  0.44876967  1  -0.05187  0  -0.127955  -0.256163  0  4.076918  0
C  C41  1  0.20585137  0.12670448  0.48427261  1  -0.072777  0  -0.093701  -0.062201  0  4.078748  0
C  C42  1  0.30153873  0.18283174  0.54556231  1  -0.004547  0  -0.057248  -0.238153  0  3.986232  0
C  C43  1  0.18769304  0.23638725  0.58056851  1  1.494917  0  0.227628  0.670381  0  4.142633  0
C  C44  1  0.32145979  0.38576644  0.81606551  1  0.569468  0  0.096484  0.390173  0  4.092413  0
C  C45  1  0.46616685  0.40850582  0.87329493  1  -0.002925  0  -0.127255  -0.338408  0  3.941675  0
C  C46  1  0.42091159  0.40444682  0.92877370  1  0.361222  0  0.100869  0.247609  0  4.128063  0
C  C47  1  0.85950236  0.50137930  0.05270682  1  0.305128  0  0.075348  0.173422  0  4.120702  0
C  C48  1  0.76572047  0.52843940  0.10852845  1  0.007701  0  -0.109813  -0.201548  0  4.007618  0
C  C49  1  0.87415442  0.57491439  0.17271654  1  -0.026116  0  -0.044421  -0.189197  0  3.9869  0
C  C50  1  0.08455077  0.59568781  0.18130131  1  0.5838  0  0.083991  0.344837  0  4.091733  0
C  C51  1  0.17539799  0.56784024  0.12345603  1  -0.00662  0  -0.106455  -0.196948  0  3.989471  0
C  C52  1  0.06762978  0.52194776  0.06103075  1  -0.076467  0  -0.094131  -0.145969  0  3.997232  0
C  C53  1  0.76162509  0.59749763  0.22885821  1  1.524831  0  0.23566  0.674565  0  4.119367  0
C  C54  1  0.22458714  0.37638480  0.92762617  1  -0.037748  0  -0.127113  -0.253695  0  4.073599  0
C  C55  1  0.07909534  0.35753886  0.87322220  1  -0.072051  0  -0.093903  -0.063059  0  4.078337  0
C  C56  1  0.11875840  0.36270255  0.81710650  1  0.015337  0  -0.057007  -0.237453  0  3.986788  0
C  C57  1  0.95139776  0.34417088  0.76353310  1  1.470098  0  0.227483  0.670486  0  4.142184  0
C  C58  1  0.93602359  0.43029664  0.61424183  1  0.590188  0  0.096155  0.390701  0  4.09343  0
C  C59  1  0.05790137  0.46472578  0.59142546  1  0.032202  0  -0.127115  -0.339193  0  3.942788  0
C  C60  1  0.01681762  0.52429970  0.59553032  1  0.355569  0  0.101433  0.248858  0  4.127227  0
C  C61  1  0.35822935  0.55126301  0.49858270  1  0.30911  0  0.074752  0.172581  0  4.122197  0
C  C62  1  0.23758188  0.58013114  0.47158319  1  -0.019179  0  -0.109651  -0.202201  0  4.008478  0
C  C63  1  0.29956332  0.59788414  0.42513873  1  -0.033922  0  -0.044168  -0.188416  0  3.985968  0
C  C64  1  0.48912120  0.58567361  0.40436930  1  0.592516  0  0.083744  0.344821  0  4.092518  0
C  C65  1  0.60770994  0.55562696  0.43221116  1  0.037019  0  -0.106445  -0.197246  0  3.989485  0
C  C66  1  0.54573748  0.53901388  0.47803272  1  -0.077946  0  -0.094495  -0.146073  0  3.998408  0
C  C67  1  0.16445812  0.63144995  0.40254925  1  1.497529  0  0.235883  0.674615  0  4.119062  0
C  C68  1  0.84886097  0.55128407  0.62370152  1  -0.008599  0  -0.127496  -0.254786  0  4.075686  0
C  C69  1  0.72227381  0.51577373  0.64261003  1  -0.103246  0  -0.093344  -0.06253  0  4.078248  0
C  C70  1  0.75659831  0.45445361  0.63739490  1  -0.001363  0  -0.057844  -0.238865  0  3.986292  0
C  C71  1  0.60765643  0.41938753  0.65588038  1  1.465473  0  0.228129  0.670372  0  4.141849  0
N  N72  1  0.57739710  0.01495209  0.44196446  1  -0.834512  0  -0.330725  -0.21597  0  3.635237  0
N  N73  1  0.76719329  0.01168592  0.46657552  1  -0.774229  0  -0.339102  -0.222988  0  3.553999  0
N  N74  1  0.56245055  0.42692680  0.98502101  1  -0.827657  0  -0.329817  -0.213937  0  3.637015  0
N  N75  1  0.75549730  0.45486650  0.98835946  1  -0.771633  0  -0.3401  -0.225029  0  3.554664  0
N  N76  1  0.13567808  0.55802210  0.57297587  1  -0.824621  0  -0.330419  -0.214629  0  3.637343  0
N  N77  1  0.30070958  0.53337928  0.54504992  1  -0.782932  0  -0.339347  -0.223672  0  3.554363  0
O  O78  1  0.00436754  0.23188438  0.55803872  1  -1.249846  0  -0.364337  -0.654434  0  2.148025  0
O  O79  1  0.27453769  0.28877732  0.63651495  1  -1.309589  0  -0.408823  -0.780698  0  2.406131  0
O  O80  1  0.62030590  0.23709354  0.62272978  1  -1.320818  0  -0.445153  -0.76877  0  2.291185  0
O  O81  1  0.35758431  0.78011114  0.35375817  1  -1.244505  0  -0.357446  -0.643866  0  2.159602  0
O  O82  1  0.56602218  0.71202922  0.35430761  1  -1.300164  0  -0.402904  -0.76771  0  2.413645  0
O  O83  1  0.96101664  0.75967146  0.39868638  1  -1.307093  0  -0.454904  -0.782954  0  2.308974  0
O  O84  1  0.77254903  0.32614985  0.76801205  1  -1.245503  0  -0.364703  -0.654856  0  2.148355  0
O  O85  1  0.98603284  0.34771184  0.71116077  1  -1.303366  0  -0.409  -0.780466  0  2.406722  0
O  O86  1  0.38334831  0.38556387  0.76286933  1  -1.306997  0  -0.444911  -0.768198  0  2.290781  0
O  O87  1  0.57724393  0.57371911  0.21990530  1  -1.249535  0  -0.357841  -0.643647  0  2.159729  0
O  O88  1  0.85384024  0.64234186  0.28798129  1  -1.309094  0  -0.402816  -0.767641  0  2.414199  0
O  O89  1  0.20111800  0.63910248  0.24036886  1  -1.316287  0  -0.454481  -0.78263  0  2.308102  0
O  O90  1  0.44695141  0.44193535  0.67394742  1  -1.2491  0  -0.364496  -0.65434  0  2.148374  0
O  O91  1  0.63838054  0.36339856  0.65224922  1  -1.301676  0  -0.409554  -0.780731  0  2.406723  0
O  O92  1  0.99793837  0.37726400  0.61440683  1  -1.31074  0  -0.444944  -0.768346  0  2.291165  0
O  O93  1  0.00390674  0.64629149  0.42632388  1  -1.241032  0  -0.357615  -0.643845  0  2.159359  0
O  O94  1  0.21176079  0.64571308  0.35768977  1  -1.296943  0  -0.4031  -0.767624  0  2.413783  0
O  O95  1  0.56227502  0.60126452  0.36091288  1  -1.311194  0  -0.45458  -0.782602  0  2.308331  0
