# generated using pymatgen
data_MnH20C22Se2(N3O)2
_symmetry_space_group_name_H-M   'P 1'
_cell_length_a   10.52417130
_cell_length_b   10.72340484
_cell_length_c   13.55940000
_cell_angle_alpha   99.18310361
_cell_angle_beta   108.32299920
_cell_angle_gamma   113.61704786
_symmetry_Int_Tables_number   1
_chemical_formula_structural   MnH20C22Se2(N3O)2
_chemical_formula_sum   'Mn2 H40 C44 Se4 N12 O4'
_cell_volume   1257.22811295
_cell_formula_units_Z   2
loop_
 _symmetry_equiv_pos_site_id
 _symmetry_equiv_pos_as_xyz
  1  'x, y, z'
loop_
 _atom_site_type_symbol
 _atom_site_label
 _atom_site_symmetry_multiplicity
 _atom_site_fract_x
 _atom_site_fract_y
 _atom_site_fract_z
 _atom_site_occupancy
 _atom_site_hle17_ddec_charge
 _atom_site_hle17_ddec_spin_density
 _atom_site_hle17_ddec_sum_bond_order
 _atom_site_hle17_magmom
 _atom_site_hse06_10hf_ddec_charge
 _atom_site_hse06_10hf_ddec_spin_density
 _atom_site_hse06_10hf_ddec_sum_bond_order
 _atom_site_hse06_10hf_magmom
 _atom_site_hse06_ddec_charge
 _atom_site_hse06_ddec_spin_density
 _atom_site_hse06_ddec_sum_bond_order
 _atom_site_hse06_magmom
 _atom_site_pbe_bader_charge
 _atom_site_pbe_bader_spin_density
 _atom_site_pbe_cm5_charge
 _atom_site_pbe_ddec_charge
 _atom_site_pbe_ddec_spin_density
 _atom_site_pbe_ddec_sum_bond_order
 _atom_site_pbe_magmom
Mn  Mn0  1  0.64422212  0.39585537  0.24964889  1  1.100631  4.780562  1.935559  4.665  0.935193  4.695337  2.449718  4.512  0.989184  4.744708  2.380766  4.577  1.499887  4.508181  0.617916  0.898009  4.638351  2.499342  4.439
Mn  Mn1  1  0.35578959  0.60414592  0.75035708  1  1.100485  -4.780475  1.936167  -4.665  0.935043  -4.695236  2.450398  -4.512  0.98904  -4.744617  2.381419  -4.577  1.499749  -4.508148  0.617958  0.897876  -4.638358  2.500027  -4.439
H  H2  1  0.53176383  0.06379234  0.20352765  1  0.082833  0.000168  0.922921  0.0  0.09514  0.000628  0.978311  0.0  0.096915  0.000439  0.977296  0.0  0.101441  0.00159  0.121564  0.093686  0.00081  0.9793  0.001
H  H3  1  0.35508428  0.32094538  0.29628769  1  0.08402  0.000195  0.920557  0.0  0.096265  0.000677  0.975682  0.0  0.098063  0.000478  0.974652  0.0  0.100317  0.001654  0.122348  0.094808  0.000859  0.976661  0.001
H  H4  1  0.46823011  0.93620356  0.79647110  1  0.082895  -0.000171  0.922791  0.0  0.095238  -0.000628  0.978143  0.0  0.096991  -0.000439  0.977157  0.0  0.101375  -0.001596  0.121585  0.093783  -0.000814  0.979135  -0.001
H  H5  1  0.64490357  0.67904837  0.70370413  1  0.08403  -0.0002  0.920432  0.0  0.096282  -0.000678  0.975576  0.0  0.098081  -0.000479  0.974545  0.0  0.100228  -0.001661  0.122351  0.094824  -0.000863  0.976553  -0.001
H  H6  1  0.32149176  0.84417424  0.19894604  1  0.098067  0.000282  0.991599  0.0  0.103694  0.000448  1.063565  0.0  0.107518  0.000338  1.061864  0.0  0.11298  0.000911  0.093569  0.101068  0.000623  1.064577  0.0
H  H7  1  0.13976445  0.11559210  0.30083057  1  0.097557  0.000284  0.996334  0.0  0.103629  0.000439  1.068114  0.0  0.107367  0.000329  1.066486  0.0  0.107563  0.000898  0.09262  0.101029  0.00061  1.069151  0.0
H  H8  1  0.67850299  0.15581735  0.80105235  1  0.09817  -0.000298  0.991554  0.0  0.103789  -0.000448  1.063517  0.0  0.107615  -0.000338  1.061805  0.0  0.113064  -0.000916  0.093592  0.101162  -0.000626  1.064532  0.0
H  H9  1  0.86022885  0.88440057  0.69917056  1  0.097514  -0.000281  0.996347  0.0  0.10359  -0.000439  1.068125  0.0  0.107328  -0.000329  1.066499  0.0  0.107594  -0.000903  0.092603  0.100995  -0.000613  1.06916  0.0
H  H10  1  0.19559065  0.70030422  0.26416661  1  0.096542  0.000268  0.992328  0.0  0.101771  0.000421  1.062776  0.0  0.105066  0.000311  1.062083  0.0  0.102687  0.000793  0.096775  0.09942  0.000499  1.063301  0.0
H  H11  1  0.92989529  0.92504281  0.23514014  1  0.097036  0.000277  0.989364  0.0  0.102963  0.000415  1.059038  0.0  0.106225  0.000308  1.058351  0.0  0.110292  0.000801  0.097842  0.100637  0.000509  1.059585  0.0
H  H12  1  0.80442920  0.29971108  0.73583500  1  0.096638  -0.000259  0.992375  0.0  0.101872  -0.000421  1.062802  0.0  0.105169  -0.000311  1.062106  0.0  0.102944  -0.000799  0.0968  0.099521  -0.000503  1.063329  0.0
H  H13  1  0.07012210  0.07497356  0.76485585  1  0.09694  -0.000248  0.989512  0.0  0.102865  -0.000415  1.059218  0.0  0.106127  -0.000308  1.058531  0.0  0.110808  -0.000807  0.097805  0.100567  -0.000513  1.059738  0.0
H  H14  1  0.97737206  0.49484858  0.26694578  1  0.081472  0.0001  0.942133  0.0  0.091006  0.000547  1.001737  0.0  0.092901  0.000357  1.000427  0.0  0.101414  0.001482  0.118298  0.089535  0.000702  1.002907  0.001
H  H15  1  0.72054287  0.70555380  0.23237459  1  0.080191  0.000109  0.944115  0.0  0.089388  0.000552  1.004349  0.0  0.091226  0.000369  1.003135  0.0  0.089571  0.001466  0.11789  0.087912  0.00071  1.005546  0.001
H  H16  1  0.02264214  0.50516349  0.73305183  1  0.081533  -0.00012  0.942052  0.0  0.091009  -0.000547  1.001739  0.0  0.092903  -0.000359  1.00043  0.0  0.101373  -0.001488  0.11826  0.089537  -0.000706  1.002909  -0.001
H  H17  1  0.27947507  0.29446365  0.76762609  1  0.080205  -0.000113  0.944082  0.0  0.089352  -0.000552  1.004369  0.0  0.091197  -0.00037  1.003141  0.0  0.090156  -0.001469  0.117873  0.087869  -0.000713  1.005579  -0.001
H  H18  1  0.78989585  0.58677769  0.46213611  1  0.371104  -0.00014  0.929804  0.001  0.342544  0.000595  1.005192  0.002  0.35262  0.000338  0.990803  0.001  0.57521  0.001461  0.264995  0.335083  0.000875  1.015936  0.002
H  H19  1  0.62545983  0.32946841  0.03769506  1  0.369808  -0.000126  0.930198  0.001  0.341018  0.00061  1.006909  0.002  0.351157  0.000349  0.992451  0.001  0.579923  0.001479  0.263212  0.333449  0.000897  1.017811  0.002
H  H20  1  0.21009984  0.41322360  0.53787111  1  0.371192  0.000132  0.929715  -0.001  0.342625  -0.000596  1.005088  -0.002  0.352704  -0.00034  0.990694  -0.001  0.575209  -0.001461  0.265018  0.335163  -0.000875  1.015832  -0.002
H  H21  1  0.37452617  0.67051779  0.96229978  1  0.369817  0.000123  0.930165  -0.001  0.341025  -0.000612  1.00689  -0.002  0.351164  -0.00035  0.992433  -0.001  0.579106  -0.001481  0.263212  0.333457  -0.000897  1.01779  -0.002
H  H22  1  0.63581226  0.59152300  0.41137591  1  0.368434  -0.000122  0.959682  0.001  0.324902  0.000471  1.047897  0.002  0.336693  0.000233  1.0315  0.001  0.627884  0.001153  0.273044  0.316677  0.000713  1.059277  0.002
H  H23  1  0.67859024  0.22647660  0.08818167  1  0.36866  -0.000111  0.95991  0.001  0.325129  0.000486  1.047965  0.002  0.3369  0.000246  1.031599  0.001  0.615661  0.001176  0.273331  0.316943  0.000729  1.059291  0.002
H  H24  1  0.36419018  0.40848368  0.58862479  1  0.368369  0.000117  0.959769  -0.001  0.324833  -0.000472  1.048013  -0.002  0.336627  -0.000234  1.031611  -0.001  0.62803  -0.001153  0.273001  0.316609  -0.000714  1.059391  -0.002
H  H25  1  0.32140470  0.77351930  0.91181731  1  0.368714  0.00011  0.959822  -0.001  0.325178  -0.000486  1.047897  -0.002  0.33695  -0.000247  1.031529  -0.001  0.615655  -0.001176  0.273342  0.316993  -0.000729  1.05922  -0.002
H  H26  1  0.62551155  0.94483326  0.04796064  1  0.083544  0.000141  0.941125  0.0  0.09245  1.8e-05  1.00301  0.0  0.095928  0.000105  0.999292  0.0  0.12931  -0.000452  0.113467  0.089819  -7.2e-05  1.005653  0.0
H  H27  1  0.39522794  0.58464208  0.45475512  1  0.085537  0.000164  0.939729  0.0  0.094572  5.5e-05  1.000944  0.0  0.098084  0.000135  0.997223  0.0  0.135113  -0.000419  0.113827  0.091912  -3.8e-05  1.003629  0.0
H  H28  1  0.37447929  0.05516048  0.95203707  1  0.083573  -0.00014  0.941199  0.0  0.092469  -1.9e-05  1.003086  0.0  0.095945  -0.000104  0.999372  0.0  0.129034  0.00045  0.113494  0.089837  7.1e-05  1.005724  0.0
H  H29  1  0.60476229  0.41536029  0.54523173  1  0.085567  -0.000166  0.939639  0.0  0.094644  -5.6e-05  1.000798  0.0  0.098155  -0.000135  0.997075  0.0  0.135202  0.000416  0.113808  0.091987  3.5e-05  1.003481  0.0
H  H30  1  0.76498120  0.82980146  0.99623260  1  0.114221  0.000158  0.947544  0.0  0.125843  0.000155  1.004075  0.0  0.128258  0.000165  1.00412  0.0  0.070607  -2.8e-05  0.111572  0.124065  0.000139  1.004155  0.0
H  H31  1  0.33098345  0.77406667  0.50558166  1  0.113032  0.000111  0.948897  0.0  0.124731  0.00013  1.005374  0.0  0.127127  0.000138  1.005461  0.0  0.092203  -2.8e-05  0.111163  0.122924  0.000119  1.005497  0.0
H  H32  1  0.23500179  0.17018474  0.00375561  1  0.114125  -0.000148  0.947431  0.0  0.125736  -0.000155  1.00401  0.0  0.128166  -0.000164  1.00402  0.0  0.070643  2.6e-05  0.111523  0.123946  -0.00014  1.004122  0.0
H  H33  1  0.66900633  0.22593677  0.49440965  1  0.11298  -0.000112  0.948914  0.0  0.124684  -0.000131  1.005396  0.0  0.127081  -0.000138  1.005484  0.0  0.092306  2.6e-05  0.111133  0.122874  -0.000121  1.005522  0.0
H  H34  1  0.11383036  0.25599149  0.04409199  1  0.098537  -1.5e-05  0.996186  0.0  0.103772  -1e-05  1.066898  0.0  0.106815  -1.7e-05  1.066022  0.0  0.121105  6e-05  0.096442  0.101619  9e-06  1.067419  0.0
H  H35  1  0.71484949  0.06588054  0.45475162  1  0.095508  1.6e-05  1.003308  0.0  0.099722  5e-06  1.076345  0.0  0.102896  -6e-06  1.075419  0.0  0.096138  6.7e-05  0.09378  0.097424  2.1e-05  1.077004  0.0
H  H36  1  0.88616420  0.74399579  0.95590877  1  0.098645  1.5e-05  0.996029  0.0  0.103843  9e-06  1.066771  0.0  0.106889  1.8e-05  1.065889  0.0  0.120961  -6.2e-05  0.096435  0.101687  -1e-05  1.067292  0.0
H  H37  1  0.28515425  0.93413261  0.54525906  1  0.095371  8e-06  1.003492  0.0  0.099591  -5e-06  1.07653  0.0  0.102773  6e-06  1.075579  0.0  0.095842  -6.9e-05  0.093696  0.097291  -2.2e-05  1.077189  0.0
H  H38  1  0.95987313  0.35206683  0.09419514  1  0.067362  -3e-06  0.954576  0.0  0.073126  1.5e-05  1.026934  0.0  0.075933  2e-06  1.024642  0.0  0.117133  0.000105  0.102881  0.070793  3.4e-05  1.029048  0.0
H  H39  1  0.76055069  0.86394314  0.40498224  1  0.06702  1.3e-05  0.954881  0.0  0.073203  2.1e-05  1.026477  0.0  0.075917  7e-06  1.024267  0.0  0.088963  0.000119  0.103395  0.070898  5e-05  1.028596  0.0
H  H40  1  0.04013363  0.64792476  0.90581356  1  0.067524  -1.6e-05  0.954606  0.0  0.073364  -1.6e-05  1.026857  0.0  0.07617  -2e-06  1.024565  0.0  0.116962  -0.000109  0.10296  0.071034  -3.6e-05  1.028961  0.0
H  H41  1  0.23945624  0.13607431  0.59502755  1  0.067066  6e-06  0.954808  0.0  0.073188  -2.1e-05  1.026478  0.0  0.075899  -7e-06  1.024271  0.0  0.089123  -0.000123  0.103412  0.070885  -5.3e-05  1.028595  0.0
C  C42  1  0.44152249  0.06983604  0.22384694  1  0.133178  0.001655  3.70807  0.002  0.103681  0.003815  3.963206  0.003  0.109934  0.003129  3.982526  0.003  0.502715  0.0069  0.05303  0.099216  0.00537  3.950653  0.004
C  C43  1  0.34337844  0.21314576  0.27582648  1  0.132831  0.001746  3.706854  0.002  0.103186  0.003966  3.962971  0.003  0.1095  0.003272  3.982149  0.003  0.466567  0.006941  0.052752  0.098732  0.005506  3.950409  0.004
C  C44  1  0.55847346  0.93015986  0.77614934  1  0.133192  -0.001632  3.708053  -0.002  0.103666  -0.003814  3.963167  -0.003  0.10993  -0.003123  3.982493  -0.003  0.502342  -0.006882  0.053048  0.099196  -0.005355  3.950616  -0.004
C  C45  1  0.65661351  0.78685014  0.72416735  1  0.132782  -0.001719  3.706804  -0.002  0.103093  -0.003965  3.962974  -0.003  0.109403  -0.00327  3.982151  -0.003  0.466512  -0.006931  0.052708  0.098635  -0.0055  3.950418  -0.004
C  C46  1  0.32408549  0.94761321  0.22265223  1  -0.152451  -5e-06  3.6984  0.0  -0.170426  0.000381  3.946942  0.0  -0.177552  -7.7e-05  3.967847  0.0  -0.084142  0.000888  -0.083219  -0.165953  0.000539  3.933511  0.0
C  C47  1  0.22215359  0.09693733  0.27704643  1  -0.153934  -0.000107  3.701341  0.0  -0.172728  0.000296  3.950068  0.0  -0.179836  -0.000161  3.971078  0.0  -0.042265  0.000869  -0.083975  -0.168284  0.000537  3.936595  0.0
C  C48  1  0.67591291  0.05238161  0.77734452  1  -0.152643  5.4e-05  3.698543  0.0  -0.170638  -0.000374  3.947051  0.0  -0.177758  6.7e-05  3.967951  0.0  -0.083727  -0.000954  -0.083256  -0.166168  -0.000594  3.933619  0.0
C  C49  1  0.77784146  0.90306072  0.72295211  1  -0.153818  9.5e-05  3.70137  0.0  -0.172642  -0.000288  3.95009  0.0  -0.179748  0.000149  3.971101  0.0  -0.042323  -0.000927  -0.083991  -0.168204  -0.000584  3.936618  0.0
C  C50  1  0.21028569  0.95959286  0.24982469  1  0.094768  0.001596  3.744925  0.001  0.107041  0.002987  3.973491  0.002  0.110642  0.002616  3.994817  0.002  0.020974  0.005122  0.011056  0.104131  0.003922  3.960204  0.003
C  C51  1  0.78971646  0.04040735  0.75017291  1  0.094749  -0.001623  3.745017  -0.001  0.107123  -0.003001  3.973452  -0.002  0.110722  -0.002602  3.994788  -0.002  0.020784  -0.005005  0.011108  0.104209  -0.003824  3.960168  -0.003
C  C52  1  0.08318601  0.83300918  0.24980619  1  0.099113  0.001082  3.740977  0.001  0.112164  0.002228  3.966312  0.002  0.116091  0.001875  3.987206  0.002  0.028852  0.004113  0.010957  0.109013  0.003104  3.95328  0.002
C  C53  1  0.91682399  0.16699857  0.75019427  1  0.09918  -0.001001  3.740976  -0.001  0.112193  -0.002239  3.96636  -0.002  0.116122  -0.001869  3.987256  -0.002  0.029186  -0.004091  0.010943  0.109039  -0.003084  3.953336  -0.002
C  C54  1  0.09356696  0.70823462  0.25792549  1  -0.156772  0.000143  3.70837  0.0  -0.173794  0.000514  3.955158  0.0  -0.180647  0.000163  3.975483  0.0  -0.050444  0.001015  -0.084547  -0.169411  0.000621  3.942141  0.0
C  C55  1  0.94647510  0.83222692  0.24159428  1  -0.156867  0.000146  3.705886  0.0  -0.174206  0.000541  3.951888  0.0  -0.181034  0.000179  3.972183  0.0  -0.0572  0.001044  -0.084106  -0.169828  0.000647  3.938868  0.0
C  C56  1  0.90644759  0.29177421  0.74207475  1  -0.156922  -0.000266  3.708663  0.0  -0.173941  -0.00051  3.955433  0.0  -0.180796  -0.000167  3.975756  0.0  -0.049908  -0.00103  -0.08459  -0.169561  -0.000633  3.94242  0.0
C  C57  1  0.05353655  0.16778407  0.75840258  1  -0.156867  -0.000278  3.705893  0.0  -0.174197  -0.000533  3.951894  0.0  -0.181025  -0.000188  3.972191  0.0  -0.057926  -0.001054  -0.084119  -0.169851  -0.000656  3.938867  0.0
C  C58  1  0.97143630  0.59206929  0.25844761  1  0.129091  0.001066  3.718687  0.001  0.099292  0.003061  3.973679  0.003  0.105704  0.002376  3.991981  0.002  0.47621  0.005797  0.050669  0.094755  0.004534  3.961728  0.004
C  C59  1  0.82915226  0.71037131  0.24095247  1  0.127578  0.001082  3.721371  0.001  0.09842  0.003064  3.9755  0.003  0.104777  0.002385  3.993973  0.002  0.476036  0.005776  0.048651  0.093848  0.004495  3.963587  0.004
C  C60  1  0.02858045  0.40794385  0.74155223  1  0.129035  -0.000917  3.71873  -0.001  0.099293  -0.003059  3.973749  -0.003  0.105704  -0.002377  3.992049  -0.002  0.475686  -0.005809  0.050758  0.094752  -0.004544  3.961803  -0.004
C  C61  1  0.17086359  0.28964399  0.75904817  1  0.127702  -0.001018  3.721096  -0.001  0.098605  -0.003064  3.975227  -0.003  0.104959  -0.002384  3.993704  -0.002  0.475246  -0.005794  0.048813  0.094031  -0.00451  3.963314  -0.004
C  C62  1  0.87327678  0.26856700  0.36400847  1  0.236626  0.016557  3.867222  0.018  0.226288  0.021817  4.174925  0.023  0.249145  0.019918  4.185782  0.021  0.656106  0.028397  0.102025  0.210931  0.024081  4.166075  0.025
C  C63  1  0.39716058  0.50570547  0.13503493  1  0.235939  0.016293  3.871336  0.018  0.225988  0.021485  4.178701  0.023  0.248892  0.019654  4.189573  0.021  0.644684  0.028021  0.101476  0.210608  0.023682  4.169824  0.025
C  C64  1  0.12675013  0.73140519  0.63600786  1  0.236829  -0.016593  3.867379  -0.018  0.226475  -0.021832  4.175074  -0.023  0.249328  -0.01994  4.185918  -0.021  0.656748  -0.028401  0.10211  0.211115  -0.024087  4.166232  -0.025
C  C65  1  0.60282039  0.49430228  0.86496583  1  0.235744  -0.016268  3.871608  -0.018  0.225787  -0.021496  4.178987  -0.023  0.248689  -0.019662  4.189857  -0.021  0.645534  -0.028023  0.101434  0.210406  -0.023686  4.170114  -0.025
C  C66  1  0.73637990  0.01139565  0.04887755  1  0.123265  0.000152  3.717565  0.0  0.093273  0.000148  3.973524  0.0  0.098734  0.000147  3.990942  0.0  0.503457  5.5e-05  0.046499  0.089924  0.000201  3.961678  0.0
C  C67  1  0.46154057  0.69215185  0.45290942  1  0.122761  2e-05  3.716829  0.0  0.093315  0.000136  3.971454  0.0  0.098647  0.000125  3.989014  0.0  0.465931  1.1e-05  0.046758  0.090066  0.000152  3.959464  0.0
C  C68  1  0.26361440  0.98859702  0.95111939  1  0.123204  -5.8e-05  3.717563  0.0  0.093222  -0.000149  3.973526  0.0  0.098681  -0.000141  3.990946  0.0  0.503991  -5.6e-05  0.046469  0.089874  -0.000202  3.96167  0.0
C  C69  1  0.53845286  0.30785483  0.54708465  1  0.122627  -7.3e-05  3.716484  0.0  0.093168  -0.000136  3.971128  0.0  0.098499  -0.000135  3.988685  0.0  0.465723  -1.3e-05  0.046702  0.089909  -0.000152  3.959141  0.0
C  C70  1  0.81597496  0.94658528  0.01908772  1  -0.144921  9.2e-05  3.684059  0.0  -0.163452  0.00022  3.93189  0.0  -0.169952  0.000175  3.95362  0.0  -0.055109  -0.00021  -0.077857  -0.159288  4e-05  3.917249  0.0
C  C71  1  0.42630197  0.80053224  0.48237231  1  -0.14468  0.000268  3.684618  0.0  -0.162153  0.000192  3.932096  0.0  -0.16871  0.000193  3.954001  0.0  -0.024399  -0.000182  -0.077754  -0.157905  5e-05  3.917317  0.0
C  C72  1  0.18401459  0.05340200  0.98090444  1  -0.144749  -0.000213  3.684055  0.0  -0.163316  -0.000203  3.931844  0.0  -0.169815  -0.00021  3.953581  0.0  -0.055084  0.000199  -0.077806  -0.159157  -4.8e-05  3.917199  0.0
C  C73  1  0.57368946  0.19947444  0.51762276  1  -0.14471  -0.000184  3.684422  0.0  -0.162203  -0.000199  3.932  0.0  -0.168763  -0.000164  3.953904  0.0  -0.024602  0.00017  -0.077771  -0.157955  -5.9e-05  3.917227  0.0
C  C74  1  0.95591042  0.03183260  0.01627627  1  0.084987  6.1e-05  3.754154  0.0  0.098518  0.000102  3.982008  0.0  0.101728  9.2e-05  4.004151  0.0  -0.01188  0.000491  0.009278  0.096472  0.000386  3.96683  0.0
C  C75  1  0.51562882  0.94017846  0.48403043  1  0.085679  -2.3e-05  3.751066  0.0  0.097761  0.000112  3.982081  0.0  0.100967  4.5e-05  4.00416  0.0  -0.020057  0.000446  0.009021  0.09572  0.000349  3.966914  0.0
C  C76  1  0.04408123  0.96815684  0.98372110  1  0.084961  -1.2e-05  3.7542  0.0  0.09864  -0.000125  3.981924  0.0  0.101849  -4.9e-05  4.004068  0.0  0.020044  -0.000486  0.009235  0.096589  -0.000381  3.966749  0.0
C  C77  1  0.48436306  0.05982714  0.51596756  1  0.085959  -4.9e-05  3.750718  0.0  0.09795  -0.000102  3.981824  0.0  0.101157  -8.5e-05  4.003901  0.0  0.016461  -0.000441  0.009099  0.095903  -0.000343  3.966659  0.0
C  C78  1  0.00768170  0.18089294  0.04476349  1  -0.158492  -0.00012  3.718802  0.0  -0.177295  -0.000158  3.966443  0.0  -0.184521  -0.000163  3.988705  0.0  -0.022258  -0.000334  -0.084785  -0.172559  -0.000266  3.951332  0.0
C  C79  1  0.63773487  0.96150543  0.45488964  1  -0.158572  -0.000106  3.722909  0.0  -0.176277  -0.000143  3.970631  0.0  -0.183574  -0.000114  3.992824  0.0  -0.028658  -0.000294  -0.08597  -0.17147  -0.000221  3.955614  0.0
C  C80  1  0.99231340  0.81909542  0.95523606  1  -0.158576  9.3e-05  3.718901  0.0  -0.177396  0.000174  3.966574  0.0  -0.184621  0.000129  3.988832  0.0  -0.022271  0.000323  -0.084823  -0.172661  0.000258  3.95146  0.0
C  C81  1  0.36226376  0.03850556  0.54511436  1  -0.158588  0.000112  3.722902  0.0  -0.176264  0.000137  3.97065  0.0  -0.183559  0.000143  3.992848  0.0  -0.027938  0.000282  -0.085949  -0.171458  0.000211  3.955627  0.0
C  C82  1  0.92066618  0.23633896  0.07333819  1  0.123651  6.6e-05  3.728602  0.0  0.095346  0.000148  3.980592  0.0  0.100949  0.000108  3.998587  0.0  0.432272  0.000348  0.042592  0.091754  0.000253  3.968531  0.0
C  C83  1  0.66460534  0.84709966  0.42655677  1  0.122264  -2e-06  3.733767  0.0  0.093723  0.000146  3.986119  0.0  0.099388  9.9e-05  4.004066  0.0  0.452617  0.000335  0.041919  0.090092  0.00025  3.974156  0.0
C  C84  1  0.07933603  0.76365155  0.92666705  1  0.123398  1.5e-05  3.728778  0.0  0.09504  -0.000149  3.98076  0.0  0.100642  -9.8e-05  3.998757  0.0  0.432489  -0.000351  0.042525  0.091448  -0.000256  3.968691  0.0
C  C85  1  0.33539539  0.15291349  0.57344728  1  0.122329  -7.9e-05  3.733626  0.0  0.093822  -0.000148  3.985977  0.0  0.099485  -0.000107  4.003932  0.0  0.452416  -0.000339  0.041943  0.090186  -0.000253  3.974009  0.0
Se  Se86  1  0.98454630  0.18513722  0.41698574  1  -0.349563  0.01187  1.860911  0.008  -0.331761  0.016609  2.167125  0.01  -0.350286  0.012956  2.157499  0.008  -0.075788  0.023092  -0.114066  -0.317154  0.021374  2.172906  0.013
Se  Se87  1  0.26355768  0.56733850  0.08104786  1  -0.349236  0.011861  1.860614  0.008  -0.331687  0.016563  2.166498  0.01  -0.350378  0.012941  2.157051  0.008  -0.074318  0.02304  -0.1146  -0.317062  0.021301  2.172217  0.013
Se  Se88  1  0.01547050  0.81483283  0.58303522  1  -0.34965  -0.011866  1.86082  -0.008  -0.33185  -0.016614  2.167033  -0.01  -0.350375  -0.012961  2.157401  -0.008  -0.075752  -0.023136  -0.114151  -0.31728  -0.021406  2.172848  -0.013
Se  Se89  1  0.73640814  0.43265525  0.91895113  1  -0.34922  -0.01189  1.860533  -0.008  -0.33166  -0.016567  2.166393  -0.01  -0.35035  -0.012953  2.156939  -0.008  -0.074634  -0.02308  -0.11461  -0.317066  -0.021335  2.172132  -0.013
N  N90  1  0.45202542  0.20102281  0.24979466  1  -0.324644  0.028844  3.248949  0.017  -0.257221  0.03371  3.52568  0.018  -0.276986  0.030468  3.543703  0.015  -1.255046  0.052811  -0.315853  -0.243806  0.037046  3.513902  0.02
N  N91  1  0.54796953  0.79897310  0.75019990  1  -0.324655  -0.028876  3.249205  -0.017  -0.2572  -0.033723  3.525922  -0.018  -0.276957  -0.030473  3.543931  -0.015  -1.254881  -0.052732  -0.315866  -0.243798  -0.036979  3.514159  -0.02
N  N92  1  0.84046646  0.59172449  0.24970633  1  -0.333143  0.028282  3.267178  0.017  -0.267637  0.033675  3.544382  0.019  -0.286697  0.030477  3.561236  0.016  -1.25526  0.051523  -0.313878  -0.254383  0.036744  3.533343  0.021
N  N93  1  0.15954418  0.40828649  0.75029396  1  -0.333147  -0.028361  3.267237  -0.017  -0.267652  -0.03369  3.54442  -0.019  -0.28672  -0.030481  3.561297  -0.016  -1.255268  -0.051437  -0.31402  -0.254409  -0.036674  3.533395  -0.021
N  N94  1  0.79896980  0.32329756  0.32936880  1  -0.5248  0.01839  2.943406  0.0  -0.46947  0.023188  3.2329  -0.002  -0.490141  0.019498  3.23415  -0.004  -1.337314  0.042277  -0.377213  -0.454922  0.026501  3.23143  0.001
N  N95  1  0.48406547  0.46323687  0.17045966  1  -0.52462  0.018409  2.941104  0.0  -0.469453  0.023157  3.23124  -0.002  -0.490146  0.019505  3.232292  -0.005  -1.329081  0.042188  -0.376763  -0.454856  0.026397  3.229851  0.001
N  N96  1  0.20105550  0.67668325  0.67064159  1  -0.524856  -0.018377  2.943889  0.0  -0.469515  -0.023195  3.233393  0.002  -0.490184  -0.019497  3.234632  0.004  -1.338024  -0.042293  -0.377281  -0.454975  -0.026503  3.231929  -0.001
N  N97  1  0.51593372  0.53677520  0.82954093  1  -0.524404  -0.018424  2.941616  0.0  -0.469203  -0.023158  3.231709  0.002  -0.489896  -0.019502  3.232755  0.005  -1.329635  -0.042188  -0.37674  -0.454611  -0.026388  3.230322  -0.001
N  N98  1  0.78682959  0.15397267  0.07562379  1  -0.306738  4.7e-05  3.194051  0.0  -0.242301  0.00037  3.438837  0.001  -0.257063  0.000143  3.456611  0.001  -1.257675  0.001237  -0.306205  -0.232677  0.000438  3.426877  0.001
N  N99  1  0.57865695  0.71391090  0.42520830  1  -0.305757  0.000133  3.193638  0.001  -0.241476  0.000385  3.438153  0.001  -0.256179  0.000152  3.455917  0.001  -1.237592  0.001274  -0.305691  -0.231866  0.000477  3.426225  0.001
N  N100  1  0.21317182  0.84602216  0.92437959  1  -0.306667  -0.000113  3.193953  0.0  -0.24223  -0.000379  3.438764  -0.001  -0.256995  -0.000138  3.456543  -0.001  -1.257954  -0.001238  -0.306178  -0.232609  -0.000437  3.426795  -0.001
N  N101  1  0.42134058  0.28609794  0.57479074  1  -0.305679  -8.4e-05  3.193351  0.0  -0.241367  -0.00038  3.437832  -0.001  -0.256072  -0.000155  3.455594  -0.001  -1.238022  -0.001274  -0.305595  -0.23176  -0.000475  3.425904  -0.001
O  O102  1  0.68111674  0.52290022  0.41215052  1  -0.813711  0.031486  1.983304  0.02  -0.753553  0.041833  2.206432  0.027  -0.777219  0.037539  2.171386  0.024  -1.261171  0.060904  -0.570241  -0.735985  0.046352  2.23132  0.031
O  O103  1  0.60935385  0.27205164  0.08705734  1  -0.814014  0.031679  1.983928  0.02  -0.753257  0.041951  2.210015  0.027  -0.777077  0.037658  2.175056  0.024  -1.256207  0.061161  -0.569825  -0.73556  0.046459  2.234777  0.031
O  O104  1  0.31887814  0.47710537  0.58785483  1  -0.813755  -0.031476  1.983354  -0.02  -0.753608  -0.041846  2.206443  -0.027  -0.777273  -0.037547  2.171388  -0.024  -1.261151  -0.060923  -0.570249  -0.736039  -0.046376  2.231343  -0.031
O  O105  1  0.39063870  0.72793564  0.91293924  1  -0.814069  -0.031681  1.983877  -0.02  -0.753322  -0.041962  2.210052  -0.027  -0.777132  -0.037667  2.175064  -0.024  -1.255381  -0.061179  -0.569829  -0.735633  -0.046483  2.234822  -0.031
