# generated using pymatgen
data_GdH24C27NO10
_symmetry_space_group_name_H-M   'P 1'
_cell_length_a   10.62858047
_cell_length_b   11.38998983
_cell_length_c   11.73900000
_cell_angle_alpha   104.86884333
_cell_angle_beta   106.89823285
_cell_angle_gamma   95.96932427
_symmetry_Int_Tables_number   1
_chemical_formula_structural   GdH24C27NO10
_chemical_formula_sum   'Gd2 H48 C54 N2 O20'
_cell_volume   1289.48854479
_cell_formula_units_Z   2
loop_
 _symmetry_equiv_pos_site_id
 _symmetry_equiv_pos_as_xyz
  1  'x, y, z'
loop_
 _atom_site_type_symbol
 _atom_site_label
 _atom_site_symmetry_multiplicity
 _atom_site_fract_x
 _atom_site_fract_y
 _atom_site_fract_z
 _atom_site_occupancy
 _atom_site_hle17_bader_spin_density
 _atom_site_hle17_ddec_charge
 _atom_site_hle17_ddec_spin_density
 _atom_site_hle17_ddec_sum_bond_order
 _atom_site_hle17_magmom
 _atom_site_hse06_10hf_bader_spin_density
 _atom_site_hse06_10hf_ddec_charge
 _atom_site_hse06_10hf_ddec_spin_density
 _atom_site_hse06_10hf_ddec_sum_bond_order
 _atom_site_hse06_10hf_magmom
 _atom_site_hse06_bader_spin_density
 _atom_site_hse06_ddec_charge
 _atom_site_hse06_ddec_spin_density
 _atom_site_hse06_ddec_sum_bond_order
 _atom_site_hse06_magmom
 _atom_site_pbe_bader_charge
 _atom_site_pbe_bader_spin_density
 _atom_site_pbe_cm5_charge
 _atom_site_pbe_ddec_charge
 _atom_site_pbe_ddec_spin_density
 _atom_site_pbe_ddec_sum_bond_order
 _atom_site_pbe_magmom
Gd  Gd0  1  0.09895349  0.55912887  0.37539712  1  0  2.246384  0  1.780423  0  0  2.163891  0  2.134047  0  0  2.2117  0  2.086655  0  2.223478  0  1.472166  2.122158  0  2.179843  0
Gd  Gd1  1  0.90104805  0.44087281  0.62460132  1  0  2.246367  0  1.780409  0  0  2.16389  0  2.134017  0  0  2.211699  0  2.086626  0  2.223558  0  1.47215  2.122151  0  2.179823  0
H  H2  1  0.04960137  0.47144017  0.10723435  1  0  0.422757  0  0.884049  0  0  0.390717  0  0.949826  0  0  0.402654  0  0.932227  0  0.654445  0  0.291739  0.382255  0  0.962215  0
H  H3  1  0.95039860  0.52855874  0.89276554  1  0  0.422748  0  0.884067  0  0  0.390708  0  0.949842  0  0  0.402645  0  0.932243  0  0.654439  0  0.291726  0.382246  0  0.962231  0
H  H4  1  0.90210430  0.49551485  0.09303887  1  0  0.452484  0  0.825563  0  0  0.427003  0  0.878836  0  0  0.436265  0  0.865363  0  0.656502  0  0.308937  0.420184  0  0.888787  0
H  H5  1  0.09789568  0.50448406  0.90696102  1  0  0.452463  0  0.825589  0  0  0.426982  0  0.878861  0  0  0.436245  0  0.865388  0  0.656515  0  0.308923  0.420164  0  0.888813  0
H  H6  1  0.92585643  0.90395573  0.55035150  1  0  0.107068  0  0.933598  0  0  0.118345  0  0.99242  0  0  0.121653  0  0.990171  0  0.088071  0  0.110585  0.115925  0  0.994205  0
H  H7  1  0.07414609  0.09604596  0.44965146  1  0  0.107091  0  0.933653  0  0  0.118377  0  0.992465  0  0  0.121686  0  0.990215  0  0.088024  0  0.110602  0.115958  0  0.994248  0
H  H8  1  0.76222274  0.14878175  0.52138533  1  0  0.409826  0  0.881239  0  0  0.37728  0  0.96389  0  0  0.390381  0  0.949117  0  0.664196  0  0.31412  0.368007  0  0.974284  0
H  H9  1  0.23777762  0.85121901  0.47861683  1  0  0.409823  0  0.881249  0  0  0.377283  0  0.963886  0  0  0.390383  0  0.949114  0  0.664329  0  0.314128  0.368011  0  0.974279  0
H  H10  1  0.08198398  0.21087375  0.88813924  1  0  0.115664  0  0.927871  0  0  0.127354  0  0.98266  0  0  0.131167  0  0.979889  0  0.104806  0  0.115153  0.124575  0  0.984739  0
H  H11  1  0.91801874  0.78912886  0.11186230  1  0  0.115671  0  0.927816  0  0  0.127361  0  0.982604  0  0  0.131174  0  0.979836  0  0.104838  0  0.115148  0.124582  0  0.984683  0
H  H12  1  0.19957500  0.07355163  0.99831399  1  0  0.091651  0  0.987501  0  0  0.102661  0  1.049841  0  0  0.105662  0  1.048828  0  0.074902  0  0.10071  0.10052  0  1.050641  0
H  H13  1  0.80042634  0.92644913  0.00168672  1  0  0.091645  0  0.987526  0  0  0.102666  0  1.049858  0  0  0.105667  0  1.048845  0  0.074915  0  0.100706  0.100524  0  1.050658  0
H  H14  1  0.28889790  0.75601368  0.76583390  1  0  0.098811  0  0.960451  0  0  0.110946  0  1.018539  0  0  0.113775  0  1.017531  0  0.084004  0  0.105768  0.10887  0  1.019407  0
H  H15  1  0.71110031  0.24398615  0.23416576  1  0  0.098833  0  0.960478  0  0  0.110974  0  1.018548  0  0  0.113802  0  1.01754  0  0.08399  0  0.105815  0.108898  0  1.019416  0
H  H16  1  0.43236301  0.64732028  0.89230996  1  0  0.085701  0  0.980211  0  0  0.095296  0  1.04464  0  0  0.097078  0  1.045449  0  0.071763  0  0.096486  0.094057  0  1.044056  0
H  H17  1  0.56763500  0.35267862  0.10768941  1  0  0.085741  0  0.980155  0  0  0.095318  0  1.044604  0  0  0.097097  0  1.045413  0  0.07174  0  0.09649  0.094079  0  1.04402  0
H  H18  1  0.26644471  0.77017667  0.18588478  1  0  0.093995  0  0.944123  0  0  0.10534  0  1.003203  0  0  0.108091  0  1.002239  0  0.051678  0  0.102587  0.103413  0  1.003878  0
H  H19  1  0.73355428  0.22982223  0.81411571  1  0  0.093989  0  0.944161  0  0  0.105304  0  1.003271  0  0  0.108052  0  1.00231  0  0.051409  0  0.102583  0.103377  0  1.003946  0
H  H20  1  0.12988492  0.88739120  0.06333739  1  0  0.08127  0  0.979748  0  0  0.090748  0  1.046482  0  0  0.092557  0  1.047031  0  0.053511  0  0.095019  0.089503  0  1.046095  0
H  H21  1  0.87011348  0.11260956  0.93666255  1  0  0.08128  0  0.979732  0  0  0.090754  0  1.046472  0  0  0.092562  0  1.04702  0  0.05354  0  0.095027  0.089509  0  1.046084  0
H  H22  1  0.62272694  0.74114430  0.09067712  1  0  0.090593  0  0.953613  0  0  0.101082  0  1.014735  0  0  0.104223  0  1.013719  0  0.068088  0  0.100099  0.098818  0  1.015551  0
H  H23  1  0.37727146  0.25885646  0.90932026  1  0  0.090617  0  0.953599  0  0  0.101109  0  1.01471  0  0  0.104252  0  1.013695  0  0.06813  0  0.100115  0.098846  0  1.015526  0
H  H24  1  0.79921725  0.66717328  0.23103037  1  0  0.107809  0  0.958666  0  0  0.114781  0  1.02533  0  0  0.118429  0  1.02236  0  0.129274  0  0.109879  0.112145  0  1.027571  0
H  H25  1  0.20078312  0.33282748  0.76896753  1  0  0.10779  0  0.958677  0  0  0.114779  0  1.025332  0  0  0.118428  0  1.022365  0  0.129285  0  0.109886  0.112142  0  1.027576  0
H  H26  1  0.49659039  0.47827448  0.33188124  1  0  0.100446  0  0.956718  0  0  0.109366  0  1.024428  0  0  0.112856  0  1.021566  0  0.08177  0  0.105165  0.10671  0  1.026655  0
H  H27  1  0.50341076  0.52172536  0.66811749  1  0  0.10042  0  0.956765  0  0  0.10934  0  1.024479  0  0  0.112828  0  1.02162  0  0.081763  0  0.10515  0.106683  0  1.026706  0
H  H28  1  0.44139918  0.62108385  0.48690525  1  0  0.055562  0  0.943286  0  0  0.060333  0  1.021321  0  0  0.062303  0  1.01518  0  0.136302  0  0.13371  0.058575  0  1.026048  0
H  H29  1  0.55859943  0.37891321  0.51309553  1  0  0.055558  0  0.943283  0  0  0.060328  0  1.021313  0  0  0.062301  0  1.015176  0  0.13633  0  0.133703  0.058571  0  1.026038  0
H  H30  1  0.72876486  0.81599855  0.59091974  1  0  0.061646  0  0.9257  0  0  0.077932  0  0.989216  0  0  0.077705  0  0.989877  0  0.043116  0  0.103278  0.077959  0  0.988937  0
H  H31  1  0.27123413  0.18400036  0.40908074  1  0  0.06163  0  0.92574  0  0  0.077939  0  0.989236  0  0  0.077711  0  0.989892  0  0.043086  0  0.10328  0.077965  0  0.988956  0
H  H32  1  0.64994370  0.66711588  0.57991025  1  0  0.081687  0  0.933986  0  0  0.095936  0  1.00023  0  0  0.096576  0  1.000152  0  0.088522  0  0.115371  0.09534  0  1.000425  0
H  H33  1  0.35005510  0.33288210  0.42008996  1  0  0.081712  0  0.933992  0  0  0.095966  0  1.000236  0  0  0.096581  0  1.000189  0  0.088541  0  0.115376  0.095371  0  1.000431  0
H  H34  1  0.74552096  0.89475414  0.81422583  1  0  0.085  0  0.982858  0  0  0.10436  0  1.052199  0  0  0.104949  0  1.053204  0  0.017408  0  0.083361  0.103883  0  1.051494  0
H  H35  1  0.25447803  0.10524477  0.18577465  1  0  0.084969  0  0.982886  0  0  0.104331  0  1.052234  0  0  0.104924  0  1.053235  0  0.0174  0  0.083364  0.103853  0  1.051532  0
H  H36  1  0.81879421  0.76065568  0.78797882  1  0  0.132039  0  0.941312  0  0  0.15251  0  0.998878  0  0  0.15428  0  0.998845  0  0.083405  0  0.102624  0.151057  0  0.999102  0
H  H37  1  0.18120596  0.23934416  0.21202220  1  0  0.132019  0  0.941337  0  0  0.152502  0  0.998893  0  0  0.154273  0  0.99886  0  0.083397  0  0.102631  0.151048  0  0.999115  0
H  H38  1  0.65753384  0.74868222  0.80580918  1  0  0.100808  0  0.942712  0  0  0.123509  0  1.000861  0  0  0.124318  0  1.001408  0  0.023026  0  0.088995  0.122904  0  1.000444  0
H  H39  1  0.34246632  0.25131761  0.19419269  1  0  0.100805  0  0.942706  0  0  0.123506  0  1.000864  0  0  0.124315  0  1.001412  0  0.023048  0  0.088994  0.122901  0  1.000447  0
H  H40  1  0.45770754  0.95392707  0.54960501  1  0  0.060951  0  0.944712  0  0  0.077888  0  1.005452  0  0  0.078366  0  1.004881  0  0.075517  0  0.107806  0.077451  0  1.005977  0
H  H41  1  0.54229087  0.04606906  0.45039122  1  0  0.060942  0  0.944663  0  0  0.077884  0  1.00542  0  0  0.078361  0  1.004845  0  0.075522  0  0.107795  0.077446  0  1.005945  0
H  H42  1  0.62109550  0.98732091  0.65940048  1  0  0.065761  0  0.925411  0  0  0.082959  0  0.987366  0  0  0.083203  0  0.987274  0  0.083285  0  0.109314  0.082612  0  0.987595  0
H  H43  1  0.37890330  0.01267707  0.34059632  1  0  0.065706  0  0.925416  0  0  0.082912  0  0.987401  0  0  0.083153  0  0.98731  0  0.083381  0  0.109309  0.082565  0  0.98763  0
H  H44  1  0.35787649  0.91040675  0.70676482  1  0  0.108401  0  0.964475  0  0  0.127557  0  1.027346  0  0  0.128794  0  1.02771  0  0.035644  0  0.091048  0.126484  0  1.027343  0
H  H45  1  0.64212152  0.08959216  0.29323371  1  0  0.108362  0  0.964423  0  0  0.127533  0  1.027266  0  0  0.128769  0  1.027631  0  0.035669  0  0.091027  0.126463  0  1.02726  0
H  H46  1  0.45448036  0.06238548  0.75971857  1  0  0.108789  0  0.954034  0  0  0.130994  0  1.012798  0  0  0.131232  0  1.014807  0  0.036931  0  0.090866  0.130747  0  1.011417  0
H  H47  1  0.54551863  0.93761343  0.24027936  1  0  0.10878  0  0.954052  0  0  0.13097  0  1.012828  0  0  0.131214  0  1.014829  0  0.036907  0  0.090859  0.130722  0  1.011448  0
H  H48  1  0.52062762  0.94596143  0.82066780  1  0  0.101614  0  0.953991  0  0  0.123567  0  1.013808  0  0  0.12417  0  1.015292  0  0.01965  0  0.088948  0.123046  0  1.012818  0
H  H49  1  0.47937354  0.05403841  0.17933093  1  0  0.101601  0  0.953991  0  0  0.123553  0  1.013808  0  0  0.124154  0  1.015293  0  0.019447  0  0.088945  0.123033  0  1.012816  0
C  C50  1  0.03545583  0.73064473  0.63648295  1  0  0.72743  0  3.874197  0  0  0.681829  0  4.169519  0  0  0.716896  0  4.157589  0  1.61749  0  0.238264  0.65786  0  4.176486  0
C  C51  1  0.96454571  0.26935695  0.36351975  1  0  0.727755  0  3.874053  0  0  0.682088  0  4.169462  0  0  0.717162  0  4.157516  0  1.617506  0  0.238387  0.658118  0  4.17643  0
C  C52  1  0.05301696  0.86412475  0.71015305  1  0  -0.081633  0  3.684373  0  0  -0.063289  0  3.918992  0  0  -0.069855  0  3.937572  0  0.022259  0  -0.003076  -0.05949  0  3.907147  0
C  C53  1  0.94698340  0.13587601  0.28984825  1  0  -0.08171  0  3.684341  0  0  -0.063348  0  3.918988  0  0  -0.069917  0  3.937567  0  0.0223  0  -0.003063  -0.059546  0  3.907138  0
C  C54  1  0.98583125  0.94080839  0.64893824  1  0  -0.068779  0  3.712748  0  0  -0.106382  0  3.964791  0  0  -0.103462  0  3.98291  0  -0.071372  0  -0.076895  -0.108187  0  3.952786  0
C  C55  1  0.01417442  0.05919422  0.35106407  1  0  -0.068799  0  3.712772  0  0  -0.106431  0  3.964844  0  0  -0.10351  0  3.982957  0  -0.0714  0  -0.076915  -0.108236  0  3.952836  0
C  C56  1  0.99412891  0.06479165  0.71290482  1  0  -0.095704  0  3.812187  0  0  -0.072687  0  4.049757  0  0  -0.083091  0  4.074128  0  -0.004334  0  -0.023848  -0.065933  0  4.03346  0
C  C57  1  0.00587164  0.93521004  0.28709677  1  0  -0.095684  0  3.812373  0  0  -0.072684  0  4.049909  0  0  -0.083086  0  4.074281  0  -0.004355  0  -0.023871  -0.06593  0  4.033611  0
C  C58  1  0.07345487  0.11352611  0.83915011  1  0  -0.055914  0  3.736086  0  0  -0.082009  0  3.985412  0  0  -0.079808  0  4.003775  0  -0.036617  0  -0.078235  -0.083335  0  3.973108  0
C  C59  1  0.92654451  0.88647465  0.16085264  1  0  -0.055977  0  3.736162  0  0  -0.082091  0  3.985517  0  0  -0.079891  0  4.00388  0  -0.03652  0  -0.07827  -0.083416  0  3.973213  0
C  C60  1  0.13821091  0.03624811  0.90037297  1  0  -0.118781  0  3.740053  0  0  -0.135445  0  3.988912  0  0  -0.139841  0  4.008625  0  -0.038644  0  -0.08742  -0.132581  0  3.975513  0
C  C61  1  0.86178946  0.96375265  0.09962833  1  0  -0.118853  0  3.74005  0  0  -0.135525  0  3.988917  0  0  -0.139921  0  4.00863  0  -0.038828  0  -0.087476  -0.132662  0  3.975519  0
C  C62  1  0.12877422  0.91062154  0.83830162  1  0  0.067644  0  3.730589  0  0  0.069421  0  3.964736  0  0  0.072946  0  3.986481  0  -0.02676  0  0.012098  0.067151  0  3.950079  0
C  C63  1  0.87122516  0.08937922  0.16169943  1  0  0.067803  0  3.730608  0  0  0.069586  0  3.964733  0  0  0.07311  0  3.986478  0  -0.026591  0  0.012194  0.067315  0  3.950075  0
C  C64  1  0.91804822  0.14474246  0.65063035  1  0  0.682913  0  3.794386  0  0  0.635111  0  4.089345  0  0  0.669705  0  4.078725  0  1.466853  0  0.246029  0.611506  0  4.095811  0
C  C65  1  0.08195274  0.85525645  0.34936980  1  0  0.682808  0  3.794608  0  0  0.635125  0  4.089388  0  0  0.669718  0  4.078765  0  1.46691  0  0.246066  0.611521  0  4.095853  0
C  C66  1  0.20247535  0.83338520  0.90730854  1  0  0.048438  0  3.777513  0  0  0.064373  0  4.010928  0  0  0.063456  0  4.034193  0  -0.04301  0  -0.005439  0.065065  0  3.995197  0
C  C67  1  0.79752384  0.16661464  0.09269223  1  0  0.048409  0  3.777566  0  0  0.064343  0  4.010984  0  0  0.063426  0  4.034249  0  -0.043008  0  -0.005463  0.065035  0  3.995252  0
C  C68  1  0.28511129  0.76143336  0.85871165  1  0  -0.090066  0  3.72057  0  0  -0.111041  0  3.966372  0  0  -0.112708  0  3.986406  0  -0.080884  0  -0.083443  -0.109882  0  3.952946  0
C  C69  1  0.71488710  0.23856740  0.14128914  1  0  -0.090099  0  3.720588  0  0  -0.111076  0  3.966381  0  0  -0.112742  0  3.986413  0  -0.08088  0  -0.083476  -0.109917  0  3.952955  0
C  C70  1  0.36576117  0.69987370  0.92972869  1  0  -0.102038  0  3.740714  0  0  -0.119466  0  3.986198  0  0  -0.121832  0  4.007116  0  0.020849  0  -0.088548  -0.118014  0  3.972286  0
C  C71  1  0.63423722  0.30012706  0.07027125  1  0  -0.102045  0  3.740658  0  0  -0.119455  0  3.986172  0  0  -0.121818  0  4.007088  0  0.020823  0  -0.088557  -0.118002  0  3.972259  0
C  C72  1  0.36176392  0.70286035  0.04871753  1  0  0.051405  0  3.793601  0  0  0.064646  0  4.030215  0  0  0.064495  0  4.053047  0  -0.039935  0  -0.00502  0.064703  0  4.015027  0
C  C73  1  0.63823429  0.29713949  0.95128213  1  0  0.051386  0  3.793599  0  0  0.064601  0  4.030247  0  0  0.06445  0  4.053078  0  -0.039884  0  -0.005008  0.064659  0  4.015058  0
C  C74  1  0.27312953  0.76877130  0.09450005  1  0  -0.099894  0  3.732816  0  0  -0.120025  0  3.983752  0  0  -0.122006  0  4.003797  0  -0.045246  0  -0.087729  -0.118542  0  3.970107  0
C  C75  1  0.72686966  0.23122854  0.90550071  1  0  -0.099849  0  3.732874  0  0  -0.119942  0  3.983811  0  0  -0.121921  0  4.003854  0  -0.044948  0  -0.087711  -0.11846  0  3.970167  0
C  C76  1  0.19677593  0.83504517  0.02584025  1  0  -0.104499  0  3.741007  0  0  -0.122872  0  3.988568  0  0  -0.12461  0  4.00908  0  0.001854  0  -0.089084  -0.121692  0  3.97461  0
C  C77  1  0.80322227  0.16495467  0.97415941  1  0  -0.104518  0  3.74104  0  0  -0.122894  0  3.988604  0  0  -0.124628  0  4.009114  0  0.001735  0  -0.08909  -0.121713  0  3.974646  0
C  C78  1  0.45852639  0.64752859  0.12714589  1  0  0.057807  0  3.740363  0  0  0.061059  0  3.976707  0  0  0.064354  0  3.999295  0  -0.002451  0  0.004311  0.058548  0  3.961884  0
C  C79  1  0.54147279  0.35247124  0.87285402  1  0  0.05782  0  3.740368  0  0  0.06107  0  3.976724  0  0  0.064367  0  3.999309  0  -0.002457  0  0.004292  0.058558  0  3.961901  0
C  C80  1  0.59485204  0.68082615  0.14168974  1  0  -0.11352  0  3.738893  0  0  -0.131634  0  3.992472  0  0  -0.136222  0  4.0125  0  -0.020054  0  -0.08675  -0.128605  0  3.97937  0
C  C81  1  0.40514754  0.31917553  0.85830904  1  0  -0.113632  0  3.738953  0  0  -0.131741  0  3.99255  0  0  -0.136329  0  4.012576  0  -0.020044  0  -0.086805  -0.12871  0  3.979447  0
C  C82  1  0.69414904  0.64155621  0.22152325  1  0  -0.045397  0  3.713182  0  0  -0.071756  0  3.961276  0  0  -0.06898  0  3.979076  0  -0.067132  0  -0.076903  -0.073925  0  3.950005  0
C  C83  1  0.30585034  0.35844455  0.77847439  1  0  -0.045329  0  3.713193  0  0  -0.071719  0  3.961296  0  0  -0.068947  0  3.979102  0  -0.067158  0  -0.076891  -0.073886  0  3.950023  0
C  C84  1  0.65933054  0.57031354  0.29284752  1  0  -0.078467  0  3.765009  0  0  -0.054196  0  3.995455  0  0  -0.063189  0  4.018116  0  -0.057803  0  -0.019166  -0.048476  0  3.98049  0
C  C85  1  0.34067179  0.42968722  0.70715090  1  0  -0.078452  0  3.765099  0  0  -0.054167  0  3.995538  0  0  -0.063158  0  4.0182  0  -0.057861  0  -0.01915  -0.048447  0  3.980571  0
C  C86  1  0.52419285  0.53593927  0.27858165  1  0  -0.083849  0  3.735456  0  0  -0.118148  0  3.986319  0  0  -0.115838  0  4.004818  0  -0.047073  0  -0.082575  -0.118949  0  3.973586  0
C  C87  1  0.47580850  0.46406149  0.72141822  1  0  -0.083807  0  3.735603  0  0  -0.118111  0  3.986454  0  0  -0.115802  0  4.004956  0  -0.047036  0  -0.082555  -0.118913  0  3.97372  0
C  C88  1  0.42293744  0.57027651  0.19418153  1  0  -0.108072  0  3.709047  0  0  -0.091543  0  3.948056  0  0  -0.099963  0  3.969255  0  -0.021387  0  -0.014967  -0.086161  0  3.933684  0
C  C89  1  0.57706489  0.42972425  0.80581944  1  0  -0.108102  0  3.709064  0  0  -0.091562  0  3.948064  0  0  -0.099983  0  3.969264  0  -0.021433  0  -0.01499  -0.086178  0  3.933691  0
C  C90  1  0.27975240  0.51895442  0.17693277  1  0  0.685275  0  3.888848  0  0  0.635585  0  4.188847  0  0  0.669823  0  4.17979  0  1.589751  0  0.222254  0.612602  0  4.193229  0
C  C91  1  0.72024973  0.48104542  0.82306877  1  0  0.685282  0  3.888821  0  0  0.635599  0  4.188801  0  0  0.669836  0  4.179744  0  1.589597  0  0.222301  0.612615  0  4.193183  0
C  C92  1  0.76567826  0.52966693  0.38095252  1  0  0.717933  0  3.861885  0  0  0.67261  0  4.152908  0  0  0.707961  0  4.141865  0  1.587895  0  0.232862  0.648518  0  4.159092  0
C  C93  1  0.23432093  0.47033291  0.61904569  1  0  0.717921  0  3.86206  0  0  0.672601  0  4.153061  0  0  0.707952  0  4.142019  0  1.588031  0  0.232832  0.648509  0  4.159245  0
C  C94  1  0.42407185  0.71591422  0.51428272  1  0  0.436004  0  3.774771  0  0  0.356775  0  4.072035  0  0  0.386382  0  4.069942  0  1.363372  0  0.188936  0.336845  0  4.072727  0
C  C95  1  0.57592616  0.28408469  0.48571666  1  0  0.435995  0  3.774795  0  0  0.356781  0  4.072046  0  0  0.386383  0  4.069956  0  1.363336  0  0.18894  0.336849  0  4.072739  0
C  C96  1  0.66243582  0.76630865  0.62707012  1  0  0.052438  0  3.648506  0  0  -0.008086  0  3.919239  0  0  -0.003091  0  3.932891  0  0.320524  0  -0.054848  -0.011253  0  3.909839  0
C  C97  1  0.33756317  0.23369025  0.37293037  1  0  0.052393  0  3.648522  0  0  -0.008155  0  3.919271  0  0  -0.003143  0  3.932927  0  0.320518  0  -0.054892  -0.011323  0  3.909871  0
C  C98  1  0.72435583  0.79461982  0.76756544  1  0  -0.312786  0  3.695463  0  0  -0.389785  0  3.943969  0  0  -0.392664  0  3.954456  0  -0.081666  0  -0.244633  -0.387471  0  3.936756  0
C  C99  1  0.27564335  0.20538001  0.23243533  1  0  -0.312702  0  3.695481  0  0  -0.389714  0  3.944006  0  0  -0.392594  0  3.954484  0  -0.081662  0  -0.244628  -0.387398  0  3.936787  0
C  C100  1  0.51996466  0.93213080  0.63122477  1  0  0.0564  0  3.637356  0  0  0.001918  0  3.894961  0  0  0.007955  0  3.905996  0  0.246126  0  -0.057769  -0.002125  0  3.887469  0
C  C101  1  0.48003414  0.06786718  0.36877288  1  0  0.056574  0  3.637286  0  0  0.002033  0  3.894972  0  0  0.008075  0  3.906004  0  0.246033  0  -0.057717  -0.002012  0  3.887482  0
C  C102  1  0.45988091  0.96373599  0.73599768  1  0  -0.310953  0  3.685163  0  0  -0.386301  0  3.924011  0  0  -0.389608  0  3.935398  0  -0.022207  0  -0.243954  -0.383744  0  3.916232  0
C  C103  1  0.54011788  0.03626199  0.26399997  1  0  -0.310943  0  3.685115  0  0  -0.386259  0  3.923986  0  0  -0.389571  0  3.935366  0  -0.022023  0  -0.243948  -0.383702  0  3.916208  0
N  N104  1  0.53086085  0.80145505  0.58966331  1  0  -0.171285  0  3.415164  0  0  -0.076284  0  3.649061  0  0  -0.097855  0  3.672148  0  -1.210487  0  -0.269093  -0.06184  0  3.633189  0
N  N105  1  0.46913874  0.19854201  0.41033602  1  0  -0.171318  0  3.415187  0  0  -0.076312  0  3.649131  0  0  -0.097885  0  3.672211  0  -1.210529  0  -0.269077  -0.061868  0  3.633259  0
O  O106  1  0.98234841  0.48261929  0.15182059  1  0  -0.911592  0  1.863724  0  0  -0.872311  0  2.045577  0  0  -0.890413  0  2.0137  0  -1.298274  0  -0.642071  -0.858295  0  2.068119  0
O  O107  1  0.01765176  0.51738055  0.84818043  1  0  -0.911563  0  1.86375  0  0  -0.872286  0  2.045611  0  0  -0.890383  0  2.013723  0  -1.298288  0  -0.642045  -0.858267  0  2.068145  0
O  O108  1  0.09584155  0.70906418  0.55710339  1  0  -0.726704  0  2.084113  0  0  -0.692249  0  2.344061  0  0  -0.717685  0  2.33371  0  -1.176401  0  -0.383114  -0.672908  0  2.350008  0
O  O109  1  0.90416018  0.29093843  0.44289618  1  0  -0.726884  0  2.084125  0  0  -0.692402  0  2.344105  0  0  -0.717842  0  2.333752  0  -1.176419  0  -0.383228  -0.673061  0  2.350058  0
O  O110  1  0.95885368  0.65295752  0.65832977  1  0  -0.704385  0  2.050177  0  0  -0.665218  0  2.303108  0  0  -0.690748  0  2.292127  0  -1.18579  0  -0.382836  -0.64602  0  2.309546  0
O  O111  1  0.04114845  0.34704231  0.34167092  1  0  -0.704507  0  2.050135  0  0  -0.665308  0  2.303089  0  0  -0.690839  0  2.292104  0  -1.185805  0  -0.382852  -0.646121  0  2.309552  0
O  O112  1  0.81443331  0.08467335  0.54911923  1  0  -0.547806  0  2.075483  0  0  -0.500825  0  2.294922  0  0  -0.522102  0  2.279623  0  -1.174428  0  -0.325295  -0.486104  0  2.305179  0
O  O113  1  0.18556705  0.91532741  0.45088208  1  0  -0.547808  0  2.075565  0  0  -0.50087  0  2.29496  0  0  -0.522146  0  2.279659  0  -1.174604  0  -0.325323  -0.486149  0  2.305217  0
O  O114  1  0.94810965  0.25980356  0.69348137  1  0  -0.653048  0  2.055741  0  0  -0.617  0  2.302944  0  0  -0.638148  0  2.290954  0  -1.149343  0  -0.338449  -0.601444  0  2.310434  0
O  O115  1  0.05189209  0.74019906  0.30651990  1  0  -0.652952  0  2.055885  0  0  -0.616925  0  2.302993  0  0  -0.63807  0  2.290998  0  -1.149305  0  -0.338434  -0.601373  0  2.310484  0
O  O116  1  0.19268230  0.48279797  0.06915834  1  0  -0.628114  0  1.941089  0  0  -0.572426  0  2.151217  0  0  -0.59696  0  2.141098  0  -1.194172  0  -0.306615  -0.554563  0  2.157197  0
O  O117  1  0.80732022  0.51720372  0.93084547  1  0  -0.628131  0  1.941097  0  0  -0.572441  0  2.151217  0  0  -0.596975  0  2.1411  0  -1.194037  0  -0.306639  -0.554577  0  2.157196  0
O  O118  1  0.25647937  0.51235527  0.27668844  1  0  -0.746929  0  2.035399  0  0  -0.701161  0  2.291576  0  0  -0.727405  0  2.280904  0  -1.201967  0  -0.414987  -0.681807  0  2.297817  0
O  O119  1  0.74352375  0.48764457  0.72331422  1  0  -0.746929  0  2.035296  0  0  -0.701174  0  2.291481  0  0  -0.727418  0  2.28081  0  -1.201927  0  -0.415  -0.681822  0  2.297726  0
O  O120  1  0.73540112  0.48788713  0.46235712  1  0  -0.718981  0  2.02808  0  0  -0.677362  0  2.279385  0  0  -0.702721  0  2.268595  0  -1.190879  0  -0.38135  -0.658822  0  2.286147  0
O  O121  1  0.26460003  0.51211271  0.53764076  1  0  -0.719052  0  2.028017  0  0  -0.677442  0  2.279337  0  0  -0.7028  0  2.268542  0  -1.190929  0  -0.381401  -0.658902  0  2.286101  0
O  O122  1  0.88140808  0.53956102  0.37019591  1  0  -0.757206  0  2.126216  0  0  -0.716406  0  2.391894  0  0  -0.741101  0  2.378694  0  -1.208263  0  -0.407312  -0.697823  0  2.39961  0
O  O123  1  0.11859425  0.46043974  0.62980251  1  0  -0.757118  0  2.12643  0  0  -0.71632  0  2.392097  0  0  -0.741013  0  2.378899  0  -1.208366  0  -0.407236  -0.697743  0  2.399831  0
O  O124  1  0.30764439  0.73678653  0.47346742  1  0  -0.613961  0  2.203698  0  0  -0.55974  0  2.459565  0  0  -0.584423  0  2.452064  0  -1.189702  0  -0.327047  -0.541964  0  2.463969  0
O  O125  1  0.69235597  0.26321423  0.52653133  1  0  -0.613989  0  2.203731  0  0  -0.559775  0  2.459603  0  0  -0.584458  0  2.452103  0  -1.189675  0  -0.327049  -0.541997  0  2.464008  0
