# generated using pymatgen
data_SrPH7(CO4)2
_symmetry_space_group_name_H-M   'P 1'
_cell_length_a   6.38801321
_cell_length_b   8.01742804
_cell_length_c   15.94682698
_cell_angle_alpha   89.99997895
_cell_angle_beta   89.99986759
_cell_angle_gamma   108.11922588
_symmetry_Int_Tables_number   1
_chemical_formula_structural   SrPH7(CO4)2
_chemical_formula_sum   'Sr4 P4 H28 C8 O32'
_cell_volume   776.22353987
_cell_formula_units_Z   4
loop_
 _symmetry_equiv_pos_site_id
 _symmetry_equiv_pos_as_xyz
  1  'x, y, z'
loop_
 _atom_site_type_symbol
 _atom_site_label
 _atom_site_symmetry_multiplicity
 _atom_site_fract_x
 _atom_site_fract_y
 _atom_site_fract_z
 _atom_site_occupancy
 _atom_site_hle17_bader_spin_density
 _atom_site_hle17_ddec_charge
 _atom_site_hle17_ddec_spin_density
 _atom_site_hle17_ddec_sum_bond_order
 _atom_site_hle17_magmom
 _atom_site_hse06_10hf_bader_spin_density
 _atom_site_hse06_10hf_ddec_charge
 _atom_site_hse06_10hf_ddec_spin_density
 _atom_site_hse06_10hf_ddec_sum_bond_order
 _atom_site_hse06_10hf_magmom
 _atom_site_hse06_bader_spin_density
 _atom_site_hse06_ddec_charge
 _atom_site_hse06_ddec_spin_density
 _atom_site_hse06_ddec_sum_bond_order
 _atom_site_hse06_magmom
 _atom_site_pbe_bader_spin_density
 _atom_site_pbe_cm5_charge
 _atom_site_pbe_ddec_charge
 _atom_site_pbe_ddec_spin_density
 _atom_site_pbe_ddec_sum_bond_order
 _atom_site_pbe_magmom
Sr  Sr0  1  0.74848154  0.50988228  0.14097564  1  0  1.645324  0  1.059641  0  0  1.514622  0  1.408082  0  0  1.54858  0  1.364947  0  0  1.00605  1.4896  0  1.438733  0
Sr  Sr1  1  0.25152307  0.99011492  0.64097372  1  0  1.645291  0  1.059679  0  0  1.514652  0  1.408064  0  0  1.548611  0  1.364927  0  0  1.006029  1.489619  0  1.43872  0
Sr  Sr2  1  0.25152480  0.49012033  0.85902403  1  0  1.645325  0  1.059629  0  0  1.514627  0  1.408069  0  0  1.548588  0  1.364932  0  0  1.006062  1.489614  0  1.438716  0
Sr  Sr3  1  0.74846808  0.00988144  0.35902783  1  0  1.645272  0  1.059741  0  0  1.514644  0  1.408106  0  0  1.548603  0  1.364969  0  0  1.00605  1.489617  0  1.438766  0
P  P4  1  0.46325918  0.83215687  0.17442377  1  0  1.440797  0  4.851811  0  0  1.275817  0  5.365269  0  0  1.32557  0  5.326054  0  0  0.361876  1.241235  0  5.391755  0
P  P5  1  0.53674731  0.66784151  0.67441977  1  0  1.44097  0  4.851905  0  0  1.275967  0  5.365379  0  0  1.325719  0  5.326162  0  0  0.361956  1.24138  0  5.391887  0
P  P6  1  0.53674251  0.16784585  0.82557715  1  0  1.440821  0  4.851952  0  0  1.275844  0  5.36541  0  0  1.325594  0  5.32619  0  0  0.361928  1.241269  0  5.391885  0
P  P7  1  0.46324806  0.33215739  0.32557990  1  0  1.440903  0  4.852016  0  0  1.276023  0  5.365484  0  0  1.325759  0  5.326258  0  0  0.361969  1.241426  0  5.392  0
H  H8  1  0.69906611  0.00609390  0.08013224  1  0  0.438888  0  0.86308  0  0  0.401765  0  0.935432  0  0  0.4149  0  0.916631  0  0  0.312054  0.392573  0  0.948566  0
H  H9  1  0.30093745  0.49390705  0.58012464  1  0  0.438961  0  0.863019  0  0  0.401841  0  0.935359  0  0  0.41498  0  0.916549  0  0  0.312098  0.392654  0  0.948484  0
H  H10  1  0.30093713  0.99390878  0.91986931  1  0  0.438861  0  0.863119  0  0  0.401743  0  0.935461  0  0  0.414878  0  0.916661  0  0  0.312068  0.392553  0  0.948592  0
H  H11  1  0.69905258  0.50608668  0.41987691  1  0  0.439039  0  0.862916  0  0  0.401891  0  0.935307  0  0  0.415033  0  0.916493  0  0  0.312104  0.392705  0  0.948432  0
H  H12  1  0.07053342  0.80000348  0.26710508  1  0  0.398195  0  0.874901  0  0  0.374488  0  0.94396  0  0  0.384979  0  0.931907  0  0  0.316389  0.367048  0  0.952459  0
H  H13  1  0.92946635  0.69999880  0.76710512  1  0  0.398207  0  0.874891  0  0  0.374502  0  0.943951  0  0  0.384993  0  0.931898  0  0  0.316383  0.367058  0  0.952461  0
H  H14  1  0.92946771  0.19999794  0.73289521  1  0  0.398191  0  0.874913  0  0  0.374481  0  0.943976  0  0  0.384973  0  0.931924  0  0  0.316378  0.367042  0  0.95247  0
H  H15  1  0.07052846  0.29999880  0.23289581  1  0  0.398105  0  0.875014  0  0  0.37439  0  0.94406  0  0  0.384877  0  0.932021  0  0  0.316366  0.36695  0  0.952562  0
H  H16  1  0.05979556  0.31803631  0.07354562  1  0  0.438749  0  0.849842  0  0  0.406639  0  0.914651  0  0  0.418446  0  0.897227  0  0  0.308489  0.398213  0  0.927084  0
H  H17  1  0.94020960  0.18196463  0.57354627  1  0  0.43877  0  0.84982  0  0  0.406661  0  0.914628  0  0  0.418469  0  0.897204  0  0  0.308486  0.398237  0  0.927058  0
H  H18  1  0.94020768  0.68196638  0.92645343  1  0  0.438708  0  0.849906  0  0  0.40663  0  0.914652  0  0  0.418438  0  0.897228  0  0  0.308494  0.398207  0  0.927087  0
H  H19  1  0.05979041  0.81803416  0.42645340  1  0  0.438718  0  0.849898  0  0  0.406641  0  0.914646  0  0  0.418449  0  0.897221  0  0  0.30847  0.398218  0  0.92708  0
H  H20  1  0.21720329  0.47552659  0.12649086  1  0  0.43606  0  0.861914  0  0  0.404146  0  0.927052  0  0  0.414639  0  0.911723  0  0  0.309024  0.396723  0  0.937889  0
H  H21  1  0.78280194  0.02447154  0.62648980  1  0  0.435962  0  0.862034  0  0  0.404063  0  0.927145  0  0  0.414557  0  0.911813  0  0  0.30897  0.396636  0  0.937989  0
H  H22  1  0.78279785  0.52447483  0.87351006  1  0  0.436092  0  0.861859  0  0  0.404176  0  0.927002  0  0  0.41467  0  0.911671  0  0  0.309042  0.396754  0  0.937841  0
H  H23  1  0.21719356  0.97553134  0.37350987  1  0  0.436016  0  0.861958  0  0  0.404109  0  0.927086  0  0  0.414604  0  0.911753  0  0  0.308993  0.396686  0  0.937924  0
H  H24  1  0.53776010  0.33112604  0.97641279  1  0  0.424777  0  0.888642  0  0  0.3941  0  0.952084  0  0  0.404399  0  0.937127  0  0  0.299477  0.386854  0  0.962598  0
H  H25  1  0.46223872  0.16887658  0.47641305  1  0  0.424805  0  0.888596  0  0  0.394145  0  0.952019  0  0  0.404442  0  0.937064  0  0  0.299501  0.386901  0  0.96253  0
H  H26  1  0.46224835  0.66887784  0.02358688  1  0  0.424768  0  0.888657  0  0  0.394121  0  0.952056  0  0  0.404418  0  0.937101  0  0  0.299476  0.386877  0  0.962567  0
H  H27  1  0.53775244  0.83111978  0.52358662  1  0  0.424821  0  0.888574  0  0  0.394152  0  0.952014  0  0  0.40445  0  0.937059  0  0  0.299493  0.386908  0  0.962527  0
H  H28  1  0.42117438  0.19357312  0.04381416  1  0  0.43132  0  0.871364  0  0  0.399592  0  0.936854  0  0  0.410433  0  0.921037  0  0  0.298591  0.391912  0  0.948053  0
H  H29  1  0.57883353  0.30642650  0.54381574  1  0  0.43131  0  0.871376  0  0  0.399582  0  0.936865  0  0  0.410423  0  0.921049  0  0  0.298576  0.391905  0  0.948062  0
H  H30  1  0.57883716  0.80643068  0.95618551  1  0  0.431282  0  0.871423  0  0  0.399548  0  0.936922  0  0  0.410391  0  0.921104  0  0  0.298561  0.391869  0  0.948123  0
H  H31  1  0.42115961  0.69356716  0.45618518  1  0  0.431262  0  0.871438  0  0  0.399535  0  0.936929  0  0  0.410376  0  0.921112  0  0  0.298555  0.391855  0  0.948131  0
H  H32  1  0.23952425  0.02640510  0.17342122  1  0  0.125886  0  0.921062  0  0  0.130563  0  0.979202  0  0  0.134378  0  0.976605  0  0  0.1306  0.127809  0  0.981302  0
H  H33  1  0.76047867  0.47359561  0.67342262  1  0  0.125887  0  0.921063  0  0  0.130575  0  0.97918  0  0  0.134389  0  0.976584  0  0  0.130605  0.12782  0  0.981278  0
H  H34  1  0.76048166  0.97360017  0.82657970  1  0  0.125814  0  0.921083  0  0  0.130499  0  0.979232  0  0  0.134308  0  0.976632  0  0  0.130568  0.127744  0  0.981335  0
H  H35  1  0.23951571  0.52640465  0.32657893  1  0  0.125775  0  0.921048  0  0  0.130507  0  0.979246  0  0  0.134309  0  0.976646  0  0  0.13056  0.127746  0  0.981346  0
C  C36  1  0.20509340  0.88759157  0.15538123  1  0  -0.198759  0  3.63709  0  0  -0.202261  0  3.89846  0  0  -0.2074  0  3.900086  0  0  -0.003033  -0.199117  0  3.897787  0
C  C37  1  0.79491179  0.61241088  0.65538327  1  0  -0.198815  0  3.637275  0  0  -0.202298  0  3.898608  0  0  -0.207437  0  3.900229  0  0  -0.00303  -0.199158  0  3.897941  0
C  C38  1  0.79491250  0.11241370  0.84461719  1  0  -0.198598  0  3.636987  0  0  -0.202135  0  3.898389  0  0  -0.207236  0  3.899954  0  0  -0.002975  -0.198994  0  3.897726  0
C  C39  1  0.20508147  0.38758676  0.34461703  1  0  -0.198482  0  3.636785  0  0  -0.20234  0  3.898689  0  0  -0.20741  0  3.900204  0  0  -0.002969  -0.19917  0  3.898013  0
C  C40  1  0.14345682  0.86708649  0.06227684  1  0  0.702612  0  3.863034  0  0  0.638615  0  4.181642  0  0  0.673269  0  4.1722  0  0  0.226747  0.615138  0  4.187371  0
C  C41  1  0.85654400  0.63290440  0.56227820  1  0  0.702695  0  3.863167  0  0  0.638722  0  4.181711  0  0  0.673377  0  4.172263  0  0  0.22675  0.615248  0  4.187441  0
C  C42  1  0.85654964  0.13292009  0.93772220  1  0  0.70258  0  3.863179  0  0  0.638612  0  4.181737  0  0  0.673257  0  4.172289  0  0  0.226711  0.615139  0  4.187466  0
C  C43  1  0.14345155  0.36708390  0.43772147  1  0  0.702713  0  3.862781  0  0  0.638763  0  4.181418  0  0  0.673402  0  4.171962  0  0  0.226775  0.615272  0  4.187167  0
O  O44  1  0.48124133  0.81565942  0.26803424  1  0  -0.895075  0  1.932588  0  0  -0.818685  0  2.202112  0  0  -0.845306  0  2.183019  0  0  -0.449366  -0.799695  0  2.214712  0
O  O45  1  0.51875279  0.68434432  0.76802711  1  0  -0.895217  0  1.932643  0  0  -0.81876  0  2.202098  0  0  -0.845381  0  2.183004  0  0  -0.449431  -0.799775  0  2.214705  0
O  O46  1  0.51875769  0.18434072  0.73196669  1  0  -0.895101  0  1.932647  0  0  -0.818731  0  2.202204  0  0  -0.845355  0  2.183112  0  0  -0.449371  -0.799744  0  2.214803  0
O  O47  1  0.48124494  0.31566381  0.23197067  1  0  -0.895234  0  1.932676  0  0  -0.818769  0  2.202103  0  0  -0.845391  0  2.183011  0  0  -0.449433  -0.79978  0  2.214717  0
O  O48  1  0.45136280  0.66314145  0.12639731  1  0  -0.919505  0  2.02747  0  0  -0.823161  0  2.270829  0  0  -0.850207  0  2.251291  0  0  -0.402164  -0.803978  0  2.28379  0
O  O49  1  0.54865134  0.83685953  0.62639390  1  0  -0.919494  0  2.027527  0  0  -0.823175  0  2.2709  0  0  -0.85022  0  2.251362  0  0  -0.402156  -0.803976  0  2.283834  0
O  O50  1  0.54863834  0.33685996  0.87360299  1  0  -0.919507  0  2.027565  0  0  -0.82313  0  2.270907  0  0  -0.850191  0  2.251381  0  0  -0.402178  -0.80396  0  2.283887  0
O  O51  1  0.45134557  0.16313934  0.37360389  1  0  -0.919537  0  2.027603  0  0  -0.823233  0  2.270967  0  0  -0.850278  0  2.251428  0  0  -0.402198  -0.804054  0  2.283961  0
O  O52  1  0.66285642  0.99296028  0.14333598  1  0  -0.752889  0  2.003975  0  0  -0.682859  0  2.236055  0  0  -0.703911  0  2.209027  0  0  -0.364545  -0.668014  0  2.254356  0
O  O53  1  0.33715152  0.50704478  0.64332779  1  0  -0.752984  0  2.003866  0  0  -0.682952  0  2.235967  0  0  -0.704001  0  2.208933  0  0  -0.364645  -0.668106  0  2.254261  0
O  O54  1  0.33714669  0.00703843  0.85666557  1  0  -0.752884  0  2.004011  0  0  -0.68285  0  2.236088  0  0  -0.703901  0  2.209059  0  0  -0.364578  -0.668004  0  2.254379  0
O  O55  1  0.66284186  0.49295682  0.35667313  1  0  -0.753028  0  2.003894  0  0  -0.683  0  2.235999  0  0  -0.704053  0  2.208956  0  0  -0.36462  -0.668154  0  2.254301  0
O  O56  1  0.03428607  0.77451253  0.20655575  1  0  -0.59376  0  2.150829  0  0  -0.538401  0  2.377511  0  0  -0.554399  0  2.365018  0  0  -0.42822  -0.526824  0  2.385989  0
O  O57  1  0.96571611  0.72548720  0.70655512  1  0  -0.593771  0  2.150948  0  0  -0.538427  0  2.377634  0  0  -0.554424  0  2.365137  0  0  -0.428219  -0.526848  0  2.386121  0
O  O58  1  0.96571674  0.22549282  0.79344392  1  0  -0.593793  0  2.150767  0  0  -0.538423  0  2.37747  0  0  -0.55443  0  2.364959  0  0  -0.428231  -0.52685  0  2.385948  0
O  O59  1  0.03427350  0.27450920  0.29344518  1  0  -0.593707  0  2.150832  0  0  -0.538219  0  2.377655  0  0  -0.554233  0  2.365136  0  0  -0.42817  -0.526654  0  2.38614  0
O  O60  1  0.99174982  0.73244241  0.03779699  1  0  -0.688527  0  1.969488  0  0  -0.626199  0  2.210213  0  0  -0.651558  0  2.197934  0  0  -0.351025  -0.608488  0  2.218253  0
O  O61  1  0.00826158  0.76755093  0.53779470  1  0  -0.688594  0  1.969361  0  0  -0.62631  0  2.210132  0  0  -0.651679  0  2.197858  0  0  -0.351024  -0.608601  0  2.218172  0
O  O62  1  0.00825230  0.26755765  0.96220331  1  0  -0.688505  0  1.969708  0  0  -0.626178  0  2.210466  0  0  -0.651538  0  2.198191  0  0  -0.350971  -0.608469  0  2.218508  0
O  O63  1  0.99173818  0.23243991  0.46220560  1  0  -0.688615  0  1.969319  0  0  -0.626304  0  2.210132  0  0  -0.651673  0  2.197864  0  0  -0.351037  -0.608587  0  2.218179  0
O  O64  1  0.26123733  0.98795040  0.01522478  1  0  -0.636117  0  2.065897  0  0  -0.570476  0  2.295506  0  0  -0.597689  0  2.284967  0  0  -0.294785  -0.551697  0  2.302431  0
O  O65  1  0.73877139  0.51205103  0.51522752  1  0  -0.63615  0  2.066181  0  0  -0.570507  0  2.295821  0  0  -0.597722  0  2.285273  0  0  -0.294758  -0.551734  0  2.302745  0
O  O66  1  0.73877180  0.01205877  0.98477489  1  0  -0.636149  0  2.065813  0  0  -0.570501  0  2.295387  0  0  -0.597712  0  2.284848  0  0  -0.294805  -0.551718  0  2.302312  0
O  O67  1  0.26122484  0.48794255  0.48477528  1  0  -0.636195  0  2.065882  0  0  -0.570512  0  2.295448  0  0  -0.597723  0  2.284908  0  0  -0.29479  -0.551734  0  2.302379  0
O  O68  1  0.07327159  0.38019814  0.12844806  1  0  -0.882912  0  1.822559  0  0  -0.822559  0  1.997796  0  0  -0.843119  0  1.964261  0  0  -0.601833  -0.807993  0  2.021364  0
O  O69  1  0.92673362  0.11979999  0.62844811  1  0  -0.882893  0  1.822645  0  0  -0.822531  0  1.997864  0  0  -0.843094  0  1.964327  0  0  -0.601789  -0.80797  0  2.021436  0
O  O70  1  0.92673011  0.61980459  0.87155161  1  0  -0.882925  0  1.822568  0  0  -0.822602  0  1.997817  0  0  -0.843162  0  1.964278  0  0  -0.601842  -0.808037  0  2.021377  0
O  O71  1  0.07326119  0.88019760  0.37155282  1  0  -0.882882  0  1.822621  0  0  -0.82254  0  1.997827  0  0  -0.843102  0  1.964291  0  0  -0.601795  -0.807986  0  2.021388  0
O  O72  1  0.51514805  0.31780262  0.03811705  1  0  -0.914991  0  1.786844  0  0  -0.855751  0  1.97447  0  0  -0.876009  0  1.943005  0  0  -0.674339  -0.841292  0  1.996416  0
O  O73  1  0.48485878  0.18219439  0.53811748  1  0  -0.915015  0  1.786855  0  0  -0.855771  0  1.974426  0  0  -0.876028  0  1.942966  0  0  -0.674341  -0.841324  0  1.996364  0
O  O74  1  0.48486548  0.68219848  0.96188325  1  0  -0.91496  0  1.786952  0  0  -0.855726  0  1.974502  0  0  -0.875985  0  1.943039  0  0  -0.674298  -0.841268  0  1.996433  0
O  O75  1  0.51513534  0.81779792  0.46188282  1  0  -0.914964  0  1.786928  0  0  -0.855718  0  1.974474  0  0  -0.875974  0  1.943016  0  0  -0.67431  -0.841263  0  1.996395  0
