# generated using pymatgen
data_V6Cu2H18C20N6O17
_symmetry_space_group_name_H-M   'P 1'
_cell_length_a   7.30118333
_cell_length_b   10.07376664
_cell_length_c   10.63506809
_cell_angle_alpha   82.33242217
_cell_angle_beta   69.75687224
_cell_angle_gamma   87.74817503
_symmetry_Int_Tables_number   1
_chemical_formula_structural   V6Cu2H18C20N6O17
_chemical_formula_sum   'V6 Cu2 H18 C20 N6 O17'
_cell_volume   727.31681247
_cell_formula_units_Z   1
loop_
 _symmetry_equiv_pos_site_id
 _symmetry_equiv_pos_as_xyz
  1  'x, y, z'
loop_
 _atom_site_type_symbol
 _atom_site_label
 _atom_site_symmetry_multiplicity
 _atom_site_fract_x
 _atom_site_fract_y
 _atom_site_fract_z
 _atom_site_occupancy
 _atom_site_hle17_ddec_charge
 _atom_site_hle17_ddec_spin_density
 _atom_site_hle17_ddec_sum_bond_order
 _atom_site_hle17_magmom
 _atom_site_hse06_10hf_ddec_charge
 _atom_site_hse06_10hf_ddec_spin_density
 _atom_site_hse06_10hf_ddec_sum_bond_order
 _atom_site_hse06_10hf_magmom
 _atom_site_hse06_ddec_charge
 _atom_site_hse06_ddec_spin_density
 _atom_site_hse06_ddec_sum_bond_order
 _atom_site_hse06_magmom
 _atom_site_pbe_cm5_charge
 _atom_site_pbe_ddec_charge
 _atom_site_pbe_ddec_spin_density
 _atom_site_pbe_ddec_sum_bond_order
 _atom_site_pbe_magmom
V  V0  1  0.09096900  0.89924052  0.58211002  1  2.061017  -0.000229  2.823373  0.0  2.143058  -0.000437  3.172007  -0.001  2.312962  -0.0004  3.012061  -0.001  1.483305  2.074911  -0.000534  3.192861  -0.001
V  V1  1  0.90903581  0.10076137  0.41788647  1  2.061102  0.000239  2.823299  0.0  2.143115  0.00043  3.171961  0.001  2.312998  0.000419  3.012066  0.001  1.483333  2.074907  0.000534  3.192917  0.001
V  V2  1  0.43380647  0.06822453  0.38091540  1  2.030272  0.008656  2.839007  0.012  2.106765  0.019286  3.197879  0.028  2.202027  0.014291  3.177709  0.022  1.454283  2.038104  0.02501  3.222249  0.035
V  V3  1  0.56619399  0.93177936  0.61908185  1  2.030307  -0.008654  2.839028  -0.012  2.106815  -0.019264  3.197885  -0.028  2.202037  -0.014299  3.177787  -0.022  1.454317  2.038135  -0.025009  3.222289  -0.035
V  V4  1  0.87105299  0.94965059  0.89782266  1  1.987831  0.015219  2.987438  0.018  2.068022  -0.007346  3.362225  -0.012  2.163221  -0.00496  3.344267  -0.009  1.461726  1.996918  -0.009372  3.389136  -0.014
V  V5  1  0.12894593  0.05034729  0.10217293  1  1.987899  -0.015251  2.987319  -0.018  2.067816  0.007386  3.362514  0.012  2.163283  0.00493  3.34415  0.009  1.46168  1.996822  0.00937  3.389254  0.014
Cu  Cu6  1  0.43438906  0.82356185  0.19316406  1  0.99064  0.731273  1.863674  0.504  0.999554  0.800029  2.25534  0.613  1.078179  0.881494  2.186672  0.703  0.784289  0.952289  0.735425  2.303619  0.549
Cu  Cu7  1  0.56561426  0.17643805  0.80683398  1  0.990596  -0.731271  1.863686  -0.504  0.99937  -0.800026  2.255454  -0.613  1.078113  -0.881484  2.186667  -0.703  0.784256  0.9522  -0.735421  2.303638  -0.549
H  H8  1  0.40983892  0.40659427  0.31707926  1  0.320977  -8.7e-05  0.912037  0.0  0.308278  -4.8e-05  0.968381  0.0  0.316557  -4.9e-05  0.961167  0.0  0.308284  0.302404  -6.6e-05  0.973557  0.0
H  H9  1  0.59016145  0.59340566  0.68292511  1  0.321007  8.7e-05  0.911987  0.0  0.308304  4.8e-05  0.96833  0.0  0.316589  4.9e-05  0.96111  0.0  0.308286  0.302429  6.6e-05  0.973506  0.0
H  H10  1  0.65264348  0.38423478  0.39361820  1  0.136484  0.000665  0.956188  0.001  0.14619  0.000502  1.013296  0.001  0.149331  0.000344  1.012176  0.0  0.115464  0.143987  0.000665  1.014408  0.001
H  H11  1  0.34735692  0.61576614  0.60638227  1  0.136443  -0.000665  0.956267  -0.001  0.146171  -0.000502  1.013347  -0.001  0.14931  -0.000344  1.012227  0.0  0.115464  0.143966  -0.000665  1.014462  -0.001
H  H12  1  0.93372762  0.48476326  0.42591180  1  0.100072  0.000456  0.945946  0.001  0.113363  8.8e-05  1.002137  0.0  0.115344  2.5e-05  1.000033  0.0  0.108334  0.112145  0.000179  1.003246  0.0
H  H13  1  0.06627271  0.51523160  0.57408291  1  0.100083  -0.000457  0.94584  -0.001  0.113387  -8.8e-05  1.002004  0.0  0.115366  -2.5e-05  0.999903  0.0  0.108358  0.112171  -0.000179  1.003111  0.0
H  H14  1  0.99978492  0.73518455  0.35471646  1  0.122883  0.00051  0.9697  0.001  0.12943  0.00034  1.03523  0.001  0.132555  0.00018  1.033291  0.0  0.107865  0.127184  0.000465  1.036729  0.001
H  H15  1  0.00022708  0.26481132  0.64528194  1  0.122853  -0.000511  0.969663  -0.001  0.129413  -0.00034  1.035207  -0.001  0.13254  -0.00018  1.033266  0.0  0.107855  0.127161  -0.000465  1.036713  -0.001
H  H16  1  0.77290598  0.86644736  0.25600373  1  0.088394  0.001237  0.972384  0.002  0.091452  0.001031  1.045331  0.001  0.093799  0.000732  1.041926  0.001  0.12274  0.089839  0.001355  1.04751  0.002
H  H17  1  0.22710904  0.13355555  0.74399680  1  0.08851  -0.001237  0.972344  -0.002  0.09147  -0.001031  1.045395  -0.001  0.093819  -0.000732  1.041981  -0.001  0.122747  0.089861  -0.001354  1.047574  -0.002
H  H18  1  0.32599495  0.80472138  0.96508090  1  0.097257  0.001756  0.939463  0.003  0.102655  0.001456  1.004682  0.002  0.104111  0.001007  1.002018  0.002  0.128287  0.101343  0.001667  1.00663  0.002
H  H19  1  0.67399513  0.19527253  0.03492200  1  0.097232  -0.001756  0.939382  -0.003  0.102555  -0.001456  1.004685  -0.002  0.10401  -0.001007  1.00202  -0.002  0.128279  0.101241  -0.001668  1.006631  -0.002
H  H20  1  0.19416291  0.63508322  0.86891979  1  0.117028  0.000707  0.952727  0.001  0.126851  0.000619  1.012196  0.001  0.129127  0.00042  1.012719  0.0  0.110166  0.124956  0.000783  1.012412  0.001
H  H21  1  0.80582425  0.36491274  0.13108822  1  0.117031  -0.000706  0.952768  -0.001  0.126794  -0.000619  1.012313  -0.001  0.129069  -0.000421  1.012836  0.0  0.110156  0.1249  -0.000783  1.012523  -0.001
H  H22  1  0.15739496  0.39458988  0.98494946  1  0.096882  0.000517  0.946234  0.001  0.107592  0.00013  1.006356  0.0  0.109193  3.7e-05  1.005497  0.0  0.109428  0.106215  0.000235  1.007315  0.0
H  H23  1  0.84259516  0.60540706  0.01505584  1  0.096856  -0.00052  0.946332  -0.001  0.10767  -0.00013  1.006323  0.0  0.109269  -3.8e-05  1.005466  0.0  0.109436  0.106291  -0.000235  1.007292  0.0
H  H24  1  0.25502891  0.33926910  0.18691098  1  0.137582  0.001001  0.941975  0.001  0.146039  0.000794  1.001006  0.001  0.14894  0.000535  1.000178  0.001  0.11994  0.143873  0.000945  1.00168  0.001
H  H25  1  0.74496559  0.66072885  0.81309504  1  0.137542  -0.001002  0.941983  -0.001  0.146031  -0.000795  1.00098  -0.001  0.148931  -0.000535  1.000158  -0.001  0.119939  0.143867  -0.000945  1.00166  -0.001
C  C26  1  0.56405617  0.57162181  0.30813229  1  0.415711  -0.003191  3.781826  -0.004  0.393974  0.000641  4.042286  0.0  0.413968  -0.000518  4.05765  -0.001  0.231153  0.381014  0.001513  4.031729  0.001
C  C27  1  0.43594716  0.42838011  0.69186924  1  0.415852  0.003191  3.781694  0.004  0.394008  -0.000644  4.042222  0.0  0.414012  0.000521  4.057583  0.001  0.231199  0.381052  -0.001514  4.031664  -0.001
C  C28  1  0.68321212  0.49115061  0.36626599  1  -0.21196  0.010703  3.687298  0.011  -0.225611  0.004189  3.931412  0.005  -0.236362  0.003604  3.950887  0.004  -0.088291  -0.218709  0.004992  3.91824  0.006
C  C29  1  0.31678835  0.50885430  0.63373300  1  -0.211898  -0.010711  3.687113  -0.011  -0.225549  -0.004188  3.931245  -0.005  -0.236299  -0.003608  3.950719  -0.004  -0.088293  -0.218645  -0.004994  3.918068  -0.006
C  C30  1  0.84041312  0.54860083  0.38331022  1  0.024495  -0.008086  3.718917  -0.008  0.002593  -0.002244  3.971137  -0.002  0.009906  -0.002387  3.98808  -0.002  -0.067921  -0.001942  -0.002073  3.958736  -0.002
C  C31  1  0.15959160  0.45139606  0.61668883  1  0.024393  0.008092  3.718982  0.008  0.00249  0.002241  3.971236  0.002  0.0098  0.00239  3.988184  0.002  -0.06796  -0.002043  0.002072  3.958829  0.002
C  C32  1  0.87785865  0.68583336  0.34327094  1  -0.127793  0.010124  3.711719  0.01  -0.14475  0.003437  3.967804  0.004  -0.153931  0.002879  3.989975  0.003  -0.091005  -0.137963  0.004053  3.95188  0.005
C  C33  1  0.12214909  0.31417054  0.65672741  1  -0.127604  -0.01012  3.711665  -0.01  -0.144593  -0.003434  3.96775  -0.004  -0.153775  -0.00288  3.989924  -0.003  -0.090902  -0.137797  -0.004053  3.951813  -0.005
C  C34  1  0.75374795  0.75935505  0.28841531  1  0.138608  -0.006425  3.69817  -0.007  0.107254  -0.000317  3.964191  -0.001  0.11695  -0.001438  3.983076  -0.002  0.046375  0.101049  0.000487  3.950825  0.0
C  C35  1  0.24626116  0.24064386  0.71158713  1  0.138419  0.00643  3.698099  0.007  0.107086  0.000316  3.964131  0.001  0.116784  0.001441  3.983021  0.002  0.04627  0.100877  -0.000486  3.95078  0.0
C  C36  1  0.30331457  0.70118314  0.01227002  1  0.159501  -0.007498  3.68052  -0.008  0.13158  -0.000277  3.934303  -0.001  0.142982  -0.00164  3.95248  -0.003  0.052055  0.124366  0.000852  3.922302  0.0
C  C37  1  0.69667703  0.29881580  0.98773468  1  0.159698  0.007495  3.680475  0.008  0.131875  0.000277  3.934228  0.001  0.143278  0.001642  3.952408  0.003  0.052074  0.124657  -0.000852  3.922234  0.0
C  C38  1  0.23072905  0.60590879  0.95956637  1  -0.15569  0.012231  3.744428  0.013  -0.17277  0.004878  4.003281  0.006  -0.182765  0.004142  4.025598  0.005  -0.09587  -0.166183  0.005405  3.988456  0.006
C  C39  1  0.76925806  0.39408316  0.04044218  1  -0.155782  -0.012234  3.744411  -0.013  -0.172853  -0.004878  4.003269  -0.006  -0.182846  -0.004144  4.025579  -0.005  -0.095843  -0.166261  -0.005405  3.98844  -0.006
C  C40  1  0.21005668  0.47371719  0.02439522  1  0.023156  -0.009516  3.72769  -0.009  0.002704  -0.002681  3.979791  -0.003  0.01015  -0.002917  3.996924  -0.003  -0.066891  -0.002016  -0.002541  3.968053  -0.002
C  C41  1  0.78993783  0.52628175  0.97560973  1  0.02314  0.009528  3.727677  0.009  0.002666  0.002683  3.979703  0.003  0.010115  0.002918  3.996833  0.003  -0.066904  -0.002057  0.002541  3.967972  0.002
C  C42  1  0.26385338  0.44176110  0.13704144  1  -0.201148  0.012643  3.661232  0.013  -0.214936  0.005208  3.907628  0.006  -0.226383  0.004475  3.928499  0.005  -0.082026  -0.20733  0.005525  3.893334  0.006
C  C43  1  0.73613962  0.55823484  0.86296614  1  -0.201043  -0.012634  3.661366  -0.013  -0.214907  -0.005209  3.907791  -0.006  -0.226347  -0.004473  3.928637  -0.005  -0.082041  -0.207307  -0.005524  3.893507  -0.006
C  C44  1  0.34261647  0.54339844  0.18265226  1  0.413328  -0.004586  3.796879  -0.006  0.387805  0.000351  4.06075  -0.001  0.407251  -0.00111  4.077988  -0.002  0.233157  0.375012  0.001446  4.048796  0.0
C  C45  1  0.65738244  0.45660149  0.81735058  1  0.413197  0.004576  3.796876  0.005  0.387723  -0.000354  4.06071  0.001  0.40718  0.001112  4.077946  0.002  0.233116  0.374933  -0.001446  4.048758  0.0
N  N46  1  0.41373706  0.50900227  0.28707837  1  -0.467467  -0.000371  3.309628  0.001  -0.416169  0.000513  3.547392  0.002  -0.440043  -2.7e-05  3.556562  0.001  -0.396976  -0.400121  0.001409  3.54064  0.003
N  N47  1  0.58626334  0.49099865  0.71292398  1  -0.467527  0.000369  3.309659  -0.001  -0.416212  -0.000513  3.547434  -0.002  -0.4401  2.6e-05  3.556601  -0.001  -0.396996  -0.400171  -0.001409  3.540686  -0.003
N  N48  1  0.59797054  0.70449592  0.27248907  1  -0.405931  0.090516  3.297097  0.109  -0.369875  0.058605  3.601284  0.076  -0.402957  0.04733  3.617519  0.065  -0.356417  -0.349023  0.064813  3.591138  0.081
N  N49  1  0.40203576  0.29550899  0.72751043  1  -0.405984  -0.090519  3.297167  -0.109  -0.369726  -0.058606  3.601185  -0.076  -0.402837  -0.047333  3.617436  -0.065  -0.356383  -0.348902  -0.064814  3.591057  -0.081
N  N50  1  0.35543949  0.67067270  0.12290551  1  -0.385053  0.110193  3.293359  0.133  -0.34034  0.073728  3.578363  0.096  -0.37565  0.059855  3.597939  0.082  -0.353567  -0.319407  0.08144  3.566847  0.102
N  N51  1  0.64455644  0.32932323  0.87709950  1  -0.385065  -0.110192  3.293219  -0.133  -0.340402  -0.073732  3.578248  -0.096  -0.375744  -0.059859  3.597841  -0.082  -0.353553  -0.319484  -0.081442  3.566729  -0.102
O  O52  1  0.68269534  0.85623268  0.99119311  1  -0.787861  -0.028681  1.407793  -0.034  -0.817764  -0.011456  1.696261  -0.014  -0.850667  -0.007836  1.684229  -0.01  -0.599544  -0.793524  -0.0155  1.705381  -0.019
O  O53  1  0.31730071  0.14376820  0.00880182  1  -0.787891  0.028694  1.407844  0.034  -0.817637  0.011444  1.696297  0.014  -0.850644  0.007846  1.684206  0.01  -0.599508  -0.79345  0.0155  1.705388  0.019
O  O54  1  0.20482547  0.91240664  0.17605286  1  -0.855785  0.070579  1.656345  0.089  -0.886847  0.039125  1.998952  0.053  -0.933855  0.030857  1.989208  0.044  -0.616095  -0.854233  0.045052  2.007541  0.058
O  O55  1  0.79517786  0.08759324  0.82394236  1  -0.855734  -0.070564  1.656309  -0.089  -0.886831  -0.039139  1.998833  -0.053  -0.933783  -0.030844  1.98914  -0.044  -0.616084  -0.854204  -0.045051  2.00745  -0.058
O  O56  1  0.50746076  0.99145112  0.24108938  1  -0.812676  0.059086  1.537724  0.072  -0.842315  0.033624  1.860098  0.043  -0.883233  0.026328  1.844664  0.035  -0.596013  -0.813569  0.038693  1.869612  0.047
O  O57  1  0.49254258  0.00855078  0.75890933  1  -0.81267  -0.059079  1.537692  -0.072  -0.842294  -0.033626  1.860089  -0.043  -0.883219  -0.026329  1.844649  -0.035  -0.596037  -0.813595  -0.038693  1.869689  -0.047
O  O58  1  0.45040596  0.23085569  0.34038342  1  -0.757547  0.002727  1.308266  0.003  -0.769299  0.001305  1.552525  0.001  -0.794272  0.000167  1.544388  0.0  -0.584702  -0.751359  0.002095  1.559089  0.002
O  O59  1  0.54959598  0.76914919  0.65961147  1  -0.757572  -0.00274  1.308291  -0.003  -0.769332  -0.001315  1.55254  -0.001  -0.794292  -0.000162  1.544411  0.0  -0.584741  -0.751386  -0.002096  1.559122  -0.002
O  O60  1  0.15319835  0.04451246  0.42699770  1  -1.092013  0.001297  1.792536  0.002  -1.12618  0.000764  2.121032  0.001  -1.206181  0.000328  2.116574  0.001  -0.702368  -1.08889  0.001192  2.11696  0.002
O  O61  1  0.84680354  0.95548943  0.57299854  1  -1.092048  -0.001303  1.792514  -0.002  -1.126218  -0.00077  2.120994  -0.001  -1.206215  -0.000328  2.116539  -0.001  -0.702397  -1.08892  -0.001191  2.116921  -0.002
O  O62  1  0.33773411  0.96671986  0.56545268  1  -1.087023  0.002755  1.765064  0.003  -1.117549  0.001768  2.092272  0.002  -1.180507  0.001282  2.087185  0.002  -0.70602  -1.081284  0.00239  2.089844  0.003
O  O63  1  0.66226494  0.03328806  0.43454625  1  -1.087079  -0.002748  1.765025  -0.003  -1.117619  -0.001773  2.092256  -0.002  -1.180541  -0.001283  2.08712  -0.002  -0.706045  -1.081345  -0.00239  2.089839  -0.003
O  O64  1  0.13698436  0.76041047  0.51824044  1  -0.685824  0.000749  1.263217  0.001  -0.701658  0.000151  1.507852  0.001  -0.739721  3.6e-05  1.475254  0.001  -0.555722  -0.688293  0.000127  1.517001  0.001
O  O65  1  0.86302631  0.23959240  0.48175266  1  -0.685906  -0.00076  1.263288  -0.001  -0.701697  -0.000139  1.507893  -0.001  -0.739762  -5.2e-05  1.47531  -0.001  -0.555761  -0.688299  -0.000128  1.517028  -0.001
O  O66  1  0.01633044  0.85648474  0.76106637  1  -0.923209  -0.000235  1.491588  -0.001  -0.950829  5.4e-05  1.776048  0.0  -1.009768  0.000133  1.756538  0.0  -0.666441  -0.920665  0.000138  1.78212  0.0
O  O67  1  0.98366993  0.14351213  0.23892901  1  -0.92318  0.000239  1.491478  0.001  -0.950718  -5.4e-05  1.775963  0.0  -1.009723  -0.000132  1.756416  0.0  -0.666431  -0.920577  -0.000138  1.782041  0.0
O  O68  1  0.00000415  0.99999891  0.99999450  1  -1.010318  1e-06  1.563246  0.0  -1.036436  -1e-05  1.861302  0.0  -1.080632  2e-06  1.851975  0.0  -0.701866  -1.002122  0.0  1.868798  0.0
