# generated using pymatgen
data_ZnH7C10N3O4
_symmetry_space_group_name_H-M   'P 1'
_cell_length_a   8.94444929
_cell_length_b   10.47526175
_cell_length_c   13.05284047
_cell_angle_alpha   71.61005469
_cell_angle_beta   85.82890597
_cell_angle_gamma   91.02686136
_symmetry_Int_Tables_number   1
_chemical_formula_structural   ZnH7C10N3O4
_chemical_formula_sum   'Zn4 H28 C40 N12 O16'
_cell_volume   1156.38170048
_cell_formula_units_Z   4
loop_
 _symmetry_equiv_pos_site_id
 _symmetry_equiv_pos_as_xyz
  1  'x, y, z'
loop_
 _atom_site_type_symbol
 _atom_site_label
 _atom_site_symmetry_multiplicity
 _atom_site_fract_x
 _atom_site_fract_y
 _atom_site_fract_z
 _atom_site_occupancy
 _atom_site_hle17_bader_spin_density
 _atom_site_hle17_ddec_charge
 _atom_site_hle17_ddec_spin_density
 _atom_site_hle17_ddec_sum_bond_order
 _atom_site_hle17_magmom
 _atom_site_hse06_10hf_bader_spin_density
 _atom_site_hse06_10hf_ddec_charge
 _atom_site_hse06_10hf_ddec_spin_density
 _atom_site_hse06_10hf_ddec_sum_bond_order
 _atom_site_hse06_10hf_magmom
 _atom_site_hse06_bader_spin_density
 _atom_site_hse06_ddec_charge
 _atom_site_hse06_ddec_spin_density
 _atom_site_hse06_ddec_sum_bond_order
 _atom_site_hse06_magmom
 _atom_site_pbe_bader_spin_density
 _atom_site_pbe_cm5_charge
 _atom_site_pbe_ddec_charge
 _atom_site_pbe_ddec_spin_density
 _atom_site_pbe_ddec_sum_bond_order
 _atom_site_pbe_magmom
Zn  Zn0  1  0.22300552  0.57399037  0.51455485  1  0  1.08193  0  1.786047  0  0  0.892931  0  2.264527  0  0  0.943461  0  2.204845  0  0  0.69945  0.857501  0  2.305784  0
Zn  Zn1  1  0.77699499  0.42601088  0.48544419  1  0  1.081925  0  1.786079  0  0  0.892902  0  2.264546  0  0  0.943433  0  2.204872  0  0  0.699448  0.857475  0  2.305803  0
Zn  Zn2  1  0.31461440  0.04638705  0.69653669  1  0  1.084089  0  1.752803  0  0  0.896432  0  2.215658  0  0  0.944103  0  2.159187  0  0  0.700175  0.862927  0  2.254863  0
Zn  Zn3  1  0.68538275  0.95361416  0.30346407  1  0  1.084114  0  1.75274  0  0  0.896472  0  2.215596  0  0  0.944137  0  2.159137  0  0  0.700189  0.862969  0  2.2548  0
H  H4  1  0.21724121  0.21113736  0.80240197  1  0  0.432326  0  0.806714  0  0  0.416241  0  0.856897  0  0  0.42436  0  0.847856  0  0  0.331325  0.410473  0  0.863386  0
H  H5  1  0.78275932  0.78886389  0.19759937  1  0  0.432323  0  0.806685  0  0  0.416236  0  0.856878  0  0  0.424356  0  0.847834  0  0  0.331322  0.410469  0  0.863369  0
H  H6  1  0.22017567  0.28059634  0.67239616  1  0  0.430144  0  0.871512  0  0  0.396511  0  0.937962  0  0  0.408489  0  0.920662  0  0  0.297334  0.388074  0  0.950114  0
H  H7  1  0.77982377  0.71940591  0.32760498  1  0  0.430038  0  0.871652  0  0  0.396421  0  0.938069  0  0  0.408399  0  0.92077  0  0  0.297294  0.387986  0  0.950216  0
H  H8  1  0.04849531  0.92602376  0.68296438  1  0  0.397234  0  0.915678  0  0  0.354432  0  0.996052  0  0  0.366272  0  0.979445  0  0  0.287407  0.346144  0  1.007649  0
H  H9  1  0.95150390  0.07397244  0.31703677  1  0  0.397251  0  0.915654  0  0  0.35444  0  0.996041  0  0  0.36628  0  0.979435  0  0  0.287409  0.346154  0  1.007637  0
H  H10  1  0.19417930  0.83019962  0.68282543  1  0  0.441311  0  0.855795  0  0  0.409004  0  0.920453  0  0  0.419915  0  0.904645  0  0  0.295535  0.401267  0  0.931632  0
H  H11  1  0.80582100  0.16979558  0.31717745  1  0  0.441234  0  0.855902  0  0  0.408944  0  0.920527  0  0  0.419855  0  0.904719  0  0  0.295501  0.401206  0  0.931708  0
H  H12  1  0.52919760  0.39312710  0.13740837  1  0  0.10397  0  0.936124  0  0  0.115043  0  0.993574  0  0  0.118715  0  0.991144  0  0  0.106138  0.112439  0  0.995456  0
H  H13  1  0.47080396  0.60687215  0.86259189  1  0  0.103935  0  0.936091  0  0  0.115002  0  0.993554  0  0  0.118675  0  0.991123  0  0  0.106115  0.112398  0  0.995437  0
H  H14  1  0.28401306  0.45840443  0.05822340  1  0  0.095066  0  0.931149  0  0  0.109241  0  0.982115  0  0  0.112543  0  0.980471  0  0  0.106014  0.107008  0  0.983264  0
H  H15  1  0.71598741  0.54159581  0.94177590  1  0  0.095092  0  0.931117  0  0  0.109265  0  0.982083  0  0  0.112567  0  0.980439  0  0  0.106024  0.107033  0  0.983234  0
H  H16  1  0.05453915  0.45084695  0.18279870  1  0  0.105266  0  0.923077  0  0  0.118722  0  0.974775  0  0  0.122118  0  0.972919  0  0  0.10953  0.116329  0  0.976187  0
H  H17  1  0.94546237  0.54915128  0.81720182  1  0  0.105261  0  0.923118  0  0  0.118741  0  0.974782  0  0  0.122138  0  0.972926  0  0  0.109534  0.116347  0  0.976196  0
H  H18  1  0.48400113  0.59886572  0.36711711  1  0  0.092462  0  0.952635  0  0  0.098255  0  1.019771  0  0  0.101116  0  1.017248  0  0  0.117027  0.096093  0  1.021628  0
H  H19  1  0.51600174  0.40113857  0.63288334  1  0  0.092502  0  0.952567  0  0  0.098225  0  1.019793  0  0  0.101089  0  1.017266  0  0  0.117017  0.096062  0  1.021652  0
H  H20  1  0.55549027  0.69998717  0.16738292  1  0  0.103711  0  0.954308  0  0  0.113883  0  1.015072  0  0  0.117957  0  1.012537  0  0  0.107255  0.111005  0  1.017204  0
H  H21  1  0.44451249  0.30001409  0.83261677  1  0  0.103701  0  0.954202  0  0  0.113869  0  1.014978  0  0  0.117944  0  1.012442  0  0  0.107241  0.110991  0  1.017109  0
H  H22  1  0.11170149  0.85270697  0.13256984  1  0  0.118561  0  0.936649  0  0  0.127205  0  0.996353  0  0  0.131384  0  0.993948  0  0  0.112489  0.124367  0  0.997958  0
H  H23  1  0.88830358  0.14729633  0.86742845  1  0  0.118521  0  0.936712  0  0  0.127177  0  0.996411  0  0  0.131357  0  0.994006  0  0  0.112489  0.124339  0  0.998015  0
H  H24  1  0.05604037  0.74435866  0.33256304  1  0  0.096626  0  0.955367  0  0  0.102962  0  1.021489  0  0  0.105774  0  1.018389  0  0  0.117749  0.100885  0  1.023782  0
H  H25  1  0.94396242  0.25564361  0.66743562  1  0  0.096609  0  0.955381  0  0  0.102946  0  1.021487  0  0  0.105761  0  1.018383  0  0  0.117735  0.100869  0  1.023779  0
H  H26  1  0.80718315  0.86286453  0.85752829  1  0  0.102474  0  0.908475  0  0  0.111238  0  0.966264  0  0  0.114734  0  0.963792  0  0  0.127928  0.108675  0  0.968176  0
H  H27  1  0.19281060  0.13713565  0.14247214  1  0  0.102444  0  0.908434  0  0  0.111214  0  0.966237  0  0  0.11471  0  0.963765  0  0  0.127908  0.108651  0  0.968151  0
H  H28  1  0.87755674  0.02970637  0.52170324  1  0  0.108811  0  0.949258  0  0  0.11309  0  1.014424  0  0  0.116543  0  1.011314  0  0  0.123497  0.110593  0  1.016794  0
H  H29  1  0.12244150  0.97029385  0.47829771  1  0  0.108866  0  0.949277  0  0  0.113146  0  1.014452  0  0  0.116598  0  1.011343  0  0  0.123513  0.110649  0  1.016824  0
H  H30  1  0.60619953  0.08754357  0.51247264  1  0  0.100379  0  0.931154  0  0  0.1077  0  0.993527  0  0  0.110238  0  0.991875  0  0  0.12525  0.105907  0  0.994751  0
H  H31  1  0.39379990  0.91245868  0.48752697  1  0  0.100385  0  0.931143  0  0  0.107702  0  0.993526  0  0  0.11024  0  0.991873  0  0  0.125255  0.105907  0  0.99475  0
C  C32  1  0.16975431  0.37581657  0.32733954  1  0  -0.059354  0  3.732755  0  0  -0.043621  0  3.969565  0  0  -0.049785  0  3.990851  0  0  -0.010267  -0.039611  0  3.955617  0
C  C33  1  0.83024493  0.62418064  0.67265983  1  0  -0.059321  0  3.732759  0  0  -0.04357  0  3.969559  0  0  -0.04973  0  3.990843  0  0  -0.010252  -0.039561  0  3.95561  0
C  C34  1  0.30736877  0.34050176  0.37155994  1  0  -0.084148  0  3.699396  0  0  -0.081164  0  3.937229  0  0  -0.084051  0  3.956569  0  0  -0.005866  -0.079268  0  3.924449  0
C  C35  1  0.69263059  0.65949847  0.62844018  1  0  -0.084265  0  3.699526  0  0  -0.081274  0  3.937326  0  0  -0.084161  0  3.956661  0  0  -0.005882  -0.079379  0  3.924549  0
C  C36  1  0.43693700  0.35004036  0.30132997  1  0  -0.081955  0  3.744958  0  0  -0.067677  0  3.984237  0  0  -0.074733  0  4.006502  0  0  -0.017925  -0.063056  0  3.969316  0
C  C37  1  0.56306340  0.64995787  0.69867060  1  0  -0.081816  0  3.744966  0  0  -0.067543  0  3.984232  0  0  -0.074598  0  4.006496  0  0  -0.017892  -0.062919  0  3.969308  0
C  C38  1  0.42689674  0.38894790  0.18929892  1  0  -0.064939  0  3.739594  0  0  -0.09374  0  3.998015  0  0  -0.09291  0  4.017182  0  0  -0.082929  -0.094273  0  3.985643  0
C  C39  1  0.57310373  0.61105234  0.81070038  1  0  -0.064881  0  3.739471  0  0  -0.093676  0  3.997887  0  0  -0.092846  0  4.017053  0  0  -0.082914  -0.09421  0  3.985516  0
C  C40  1  0.29021473  0.42535185  0.14578208  1  0  -0.067798  0  3.774102  0  0  -0.08345  0  4.036381  0  0  -0.085702  0  4.055993  0  0  -0.087262  -0.081867  0  4.023515  0
C  C41  1  0.70978697  0.57465142  0.85421563  1  0  -0.067868  0  3.774122  0  0  -0.083526  0  4.036422  0  0  -0.085778  0  4.056033  0  0  -0.087265  -0.081944  0  4.023557  0
C  C42  1  0.16239796  0.42105707  0.21476887  1  0  -0.057692  0  3.710809  0  0  -0.085053  0  3.964123  0  0  -0.084018  0  3.982527  0  0  -0.078336  -0.085807  0  3.9521  0
C  C43  1  0.83760244  0.57894115  0.78523094  1  0  -0.057645  0  3.710857  0  0  -0.085028  0  3.964154  0  0  -0.083994  0  3.982558  0  0  -0.078324  -0.085782  0  3.952133  0
C  C44  1  0.03046022  0.36522404  0.40095340  1  0  0.630096  0  3.947488  0  0  0.57886  0  4.246123  0  0  0.613166  0  4.237981  0  0  0.194862  0.555477  0  4.25093  0
C  C45  1  0.96954231  0.63477119  0.59904706  1  0  0.630169  0  3.947342  0  0  0.578895  0  4.246028  0  0  0.613199  0  4.237887  0  0  0.194852  0.555511  0  4.250836  0
C  C46  1  0.31146887  0.29246330  0.49303830  1  0  0.713404  0  3.822972  0  0  0.651163  0  4.124516  0  0  0.688163  0  4.113694  0  0  0.232357  0.625751  0  4.131218  0
C  C47  1  0.68852929  0.70753490  0.50696317  1  0  0.713438  0  3.822934  0  0  0.65119  0  4.124481  0  0  0.68819  0  4.113657  0  0  0.23237  0.625776  0  4.131185  0
C  C48  1  0.58991796  0.33619820  0.34281258  1  0  0.665709  0  3.910743  0  0  0.613061  0  4.20731  0  0  0.647409  0  4.198808  0  0  0.211164  0.589727  0  4.212226  0
C  C49  1  0.41008576  0.66379905  0.65718654  1  0  0.665579  0  3.911097  0  0  0.61292  0  4.207685  0  0  0.647268  0  4.199184  0  0  0.211027  0.589583  0  4.212601  0
C  C50  1  0.40530985  0.65590340  0.31198877  1  0  0.127481  0  3.705358  0  0  0.095136  0  3.960716  0  0  0.103014  0  3.98006  0  0  0.039928  0.08995  0  3.948212  0
C  C51  1  0.59469403  0.34409788  0.68801239  1  0  0.127499  0  3.705358  0  0  0.09519  0  3.9607  0  0  0.103068  0  3.980045  0  0  0.039943  0.090004  0  3.948196  0
C  C52  1  0.44472089  0.71265186  0.20228020  1  0  -0.154843  0  3.720413  0  0  -0.177671  0  3.975631  0  0  -0.186828  0  3.996939  0  0  -0.08592  -0.172341  0  3.962862  0
C  C53  1  0.55528067  0.28734738  0.79772006  1  0  -0.154819  0  3.720382  0  0  -0.177665  0  3.975553  0  0  -0.186806  0  3.99688  0  0  -0.085908  -0.172331  0  3.962783  0
C  C54  1  0.33942177  0.78494954  0.13420606  1  0  0.079608  0  3.766374  0  0  0.092155  0  3.994134  0  0  0.098742  0  4.014819  0  0  0.020463  0.088094  0  3.980831  0
C  C55  1  0.66058091  0.21504971  0.86579261  1  0  0.079532  0  3.766399  0  0  0.092179  0  3.994086  0  0  0.098713  0  4.014837  0  0  0.020446  0.088115  0  3.980787  0
C  C56  1  0.19667464  0.79682578  0.18195627  1  0  -0.151864  0  3.690821  0  0  -0.170488  0  3.938508  0  0  -0.179601  0  3.959005  0  0  -0.080717  -0.164819  0  3.92512  0
C  C57  1  0.80332931  0.20317751  0.81804361  1  0  -0.151825  0  3.690835  0  0  -0.170509  0  3.938522  0  0  -0.179606  0  3.959032  0  0  -0.080706  -0.164838  0  3.925134  0
C  C58  1  0.16475700  0.73685341  0.29249792  1  0  0.143793  0  3.697835  0  0  0.107041  0  3.956877  0  0  0.116294  0  3.974414  0  0  0.045997  0.100896  0  3.945419  0
C  C59  1  0.83524576  0.26314786  0.70750176  1  0  0.143863  0  3.697852  0  0  0.107128  0  3.956876  0  0  0.116384  0  3.974412  0  0  0.046003  0.100983  0  3.945418  0
C  C60  1  0.37944124  0.84532556  0.01887664  1  0  0.258432  0  3.802505  0  0  0.245358  0  4.072303  0  0  0.250434  0  4.091781  0  0  0.193567  0.242081  0  4.058657  0
C  C61  1  0.62056159  0.15467772  0.98112330  1  0  0.258367  0  3.802475  0  0  0.245202  0  4.072374  0  0  0.250295  0  4.091863  0  0  0.193468  0.241926  0  4.058727  0
C  C62  1  0.50163941  0.90817599  0.86746222  1  0  0.243607  0  3.881532  0  0  0.219821  0  4.150129  0  0  0.22784  0  4.170758  0  0  0.19577  0.214682  0  4.136446  0
C  C63  1  0.49835891  0.09182624  0.13253822  1  0  0.243493  0  3.881744  0  0  0.219791  0  4.150208  0  0  0.227811  0  4.170836  0  0  0.195804  0.214651  0  4.136524  0
C  C64  1  0.61041062  0.93889581  0.77443035  1  0  0.127499  0  3.785079  0  0  0.12683  0  4.029905  0  0  0.130308  0  4.051155  0  0  0.128992  0.123969  0  4.01672  0
C  C65  1  0.38958545  0.06110640  0.22557020  1  0  0.127499  0  3.785059  0  0  0.126888  0  4.029824  0  0  0.130365  0  4.051075  0  0  0.128976  0.124031  0  4.016632  0
C  C66  1  0.76280361  0.91063796  0.77960653  1  0  0.06249  0  3.658769  0  0  0.026515  0  3.916052  0  0  0.027794  0  3.933021  0  0  0.064253  0.0255  0  3.905074  0
C  C67  1  0.23719239  0.08936223  0.22039378  1  0  0.062554  0  3.658634  0  0  0.02651  0  3.915968  0  0  0.027794  0  3.932932  0  0  0.064268  0.025494  0  3.904988  0
C  C68  1  0.80202075  0.00360507  0.59493841  1  0  0.096662  0  3.619824  0  0  0.065452  0  3.882361  0  0  0.068883  0  3.896183  0  0  0.061258  0.063068  0  3.873833  0
C  C69  1  0.19797636  0.99639514  0.40506260  1  0  0.096653  0  3.619873  0  0  0.065415  0  3.882413  0  0  0.068846  0  3.896237  0  0  0.061274  0.063031  0  3.873881  0
C  C70  1  0.65100015  0.03488385  0.58911779  1  0  0.119847  0  3.642799  0  0  0.085244  0  3.908643  0  0  0.089981  0  3.923543  0  0  0.064245  0.081928  0  3.899259  0
C  C71  1  0.34899704  0.96511837  0.41088271  1  0  0.119812  0  3.642687  0  0  0.085226  0  3.908581  0  0  0.089962  0  3.92348  0  0  0.064233  0.08191  0  3.899196  0
N  N72  1  0.26694825  0.66686601  0.35661240  1  0  -0.36643  0  3.356785  0  0  -0.277688  0  3.642364  0  0  -0.300598  0  3.658367  0  0  -0.345805  -0.262248  0  3.63189  0
N  N73  1  0.73305451  0.33313526  0.64338729  1  0  -0.366517  0  3.356825  0  0  -0.277753  0  3.642357  0  0  -0.300675  0  3.658376  0  0  -0.345807  -0.262314  0  3.631887  0
N  N74  1  0.51848183  0.83859558  0.97108449  1  0  -0.448634  0  2.909935  0  0  -0.426923  0  3.175172  0  0  -0.440256  0  3.189154  0  0  -0.342797  -0.417576  0  3.165385  0
N  N75  1  0.48151880  0.16140869  0.02891531  1  0  -0.448529  0  2.909915  0  0  -0.426827  0  3.175151  0  0  -0.440159  0  3.189129  0  0  -0.342754  -0.417481  0  3.165362  0
N  N76  1  0.36129428  0.95453829  0.85255702  1  0  -0.343621  0  3.305927  0  0  -0.272055  0  3.606491  0  0  -0.291411  0  3.62317  0  0  -0.249972  -0.258752  0  3.594856  0
N  N77  1  0.63870292  0.04546393  0.14744501  1  0  -0.343662  0  3.30598  0  0  -0.272135  0  3.606537  0  0  -0.291491  0  3.623216  0  0  -0.250041  -0.258832  0  3.594904  0
N  N78  1  0.28156759  0.91489299  0.94915650  1  0  -0.253063  0  2.888563  0  0  -0.247965  0  3.156217  0  0  -0.253239  0  3.171846  0  0  -0.233296  -0.244075  0  3.145266  0
N  N79  1  0.71843189  0.08511026  0.05084591  1  0  -0.252945  0  2.888495  0  0  -0.247823  0  3.156179  0  0  -0.253096  0  3.171805  0  0  -0.233175  -0.243932  0  3.145226  0
N  N80  1  0.85743270  0.94258692  0.69022902  1  0  -0.2515  0  3.151051  0  0  -0.193191  0  3.398649  0  0  -0.203224  0  3.414572  0  0  -0.280227  -0.186576  0  3.388383  0
N  N81  1  0.14256329  0.05741328  0.30977128  1  0  -0.25157  0  3.151106  0  0  -0.193207  0  3.398701  0  0  -0.20324  0  3.41462  0  0  -0.280261  -0.186592  0  3.388435  0
N  N82  1  0.55573337  0.00244521  0.67793818  1  0  -0.332962  0  3.208683  0  0  -0.270079  0  3.482502  0  0  -0.284504  0  3.496921  0  0  -0.29918  -0.260531  0  3.473832  0
N  N83  1  0.44426498  0.99755803  0.32206200  1  0  -0.332905  0  3.20853  0  0  -0.270108  0  3.482409  0  0  -0.284532  0  3.496826  0  0  -0.299182  -0.260562  0  3.473739  0
O  O84  1  0.95175376  0.47208449  0.37944029  1  0  -0.645585  0  2.026976  0  0  -0.573663  0  2.298546  0  0  -0.602853  0  2.282512  0  0  -0.33081  -0.553039  0  2.308913  0
O  O85  1  0.04825107  0.52791177  0.62056439  1  0  -0.645667  0  2.026883  0  0  -0.573752  0  2.29848  0  0  -0.602943  0  2.28245  0  0  -0.33087  -0.553128  0  2.308845  0
O  O86  1  0.99714380  0.25969115  0.47792580  1  0  -0.602989  0  1.920002  0  0  -0.554846  0  2.148306  0  0  -0.579077  0  2.140047  0  0  -0.310196  -0.537602  0  2.153486  0
O  O87  1  0.00285419  0.74030303  0.52207133  1  0  -0.603018  0  1.920022  0  0  -0.554853  0  2.148329  0  0  -0.579084  0  2.140071  0  0  -0.31014  -0.537602  0  2.153496  0
O  O88  1  0.27468226  0.37252128  0.54699787  1  0  -0.661154  0  2.101589  0  0  -0.576956  0  2.360873  0  0  -0.607475  0  2.344987  0  0  -0.305959  -0.555381  0  2.371197  0
O  O89  1  0.72531597  0.62747894  0.45300155  1  0  -0.661163  0  2.101589  0  0  -0.576939  0  2.360833  0  0  -0.607456  0  2.344946  0  0  -0.305963  -0.555366  0  2.371158  0
O  O90  1  0.34478279  0.17176202  0.53700185  1  0  -0.621384  0  2.073335  0  0  -0.551042  0  2.345254  0  0  -0.580917  0  2.333541  0  0  -0.297966  -0.529733  0  2.352697  0
O  O91  1  0.65520972  0.82823513  0.46299864  1  0  -0.621369  0  2.073272  0  0  -0.551017  0  2.345179  0  0  -0.580894  0  2.333466  0  0  -0.297956  -0.529707  0  2.352621  0
O  O92  1  0.59737774  0.37133024  0.42876344  1  0  -0.660265  0  2.102798  0  0  -0.583781  0  2.385745  0  0  -0.613403  0  2.369776  0  0  -0.326201  -0.562838  0  2.395924  0
O  O93  1  0.40262483  0.62866599  0.57123600  1  0  -0.660264  0  2.102804  0  0  -0.583778  0  2.385753  0  0  -0.6134  0  2.369784  0  0  -0.326184  -0.562838  0  2.395933  0
O  O94  1  0.69590812  0.29968525  0.29185024  1  0  -0.624842  0  1.949208  0  0  -0.574219  0  2.165149  0  0  -0.596717  0  2.153645  0  0  -0.321985  -0.558385  0  2.172531  0
O  O95  1  0.30409103  0.70030995  0.70814504  1  0  -0.62482  0  1.949404  0  0  -0.574174  0  2.165349  0  0  -0.596673  0  2.153843  0  0  -0.321913  -0.558341  0  2.172732  0
O  O96  1  0.19077648  0.19721262  0.73565033  1  0  -0.797768  0  1.891456  0  0  -0.732633  0  2.091724  0  0  -0.753362  0  2.0596  0  0  -0.553151  -0.71802  0  2.113913  0
O  O97  1  0.80922187  0.80279062  0.26435062  1  0  -0.797705  0  1.891562  0  0  -0.732569  0  2.091819  0  0  -0.753303  0  2.059699  0  0  -0.553131  -0.717958  0  2.114008  0
O  O98  1  0.16082126  0.92451924  0.66597153  1  0  -0.830167  0  1.957018  0  0  -0.751586  0  2.187849  0  0  -0.775049  0  2.149393  0  0  -0.570181  -0.734976  0  2.214469  0
O  O99  1  0.83917908  0.07547697  0.33403186  1  0  -0.830111  0  1.957065  0  0  -0.751546  0  2.18792  0  0  -0.775008  0  2.149465  0  0  -0.570148  -0.734934  0  2.214536  0
