# generated using pymatgen
data_ZnH10(C3O4)2
_symmetry_space_group_name_H-M   'P 1'
_cell_length_a   6.48050866
_cell_length_b   10.74646928
_cell_length_c   10.74648047
_cell_angle_alpha   75.14957918
_cell_angle_beta   73.11761928
_cell_angle_gamma   73.11775159
_symmetry_Int_Tables_number   1
_chemical_formula_structural   ZnH10(C3O4)2
_chemical_formula_sum   'Zn3 H30 C18 O24'
_cell_volume   673.10141484
_cell_formula_units_Z   3
loop_
 _symmetry_equiv_pos_site_id
 _symmetry_equiv_pos_as_xyz
  1  'x, y, z'
loop_
 _atom_site_type_symbol
 _atom_site_label
 _atom_site_symmetry_multiplicity
 _atom_site_fract_x
 _atom_site_fract_y
 _atom_site_fract_z
 _atom_site_occupancy
 _atom_site_hle17_bader_spin_density
 _atom_site_hle17_ddec_charge
 _atom_site_hle17_ddec_spin_density
 _atom_site_hle17_ddec_sum_bond_order
 _atom_site_hle17_magmom
 _atom_site_hse06_10hf_bader_spin_density
 _atom_site_hse06_10hf_ddec_charge
 _atom_site_hse06_10hf_ddec_spin_density
 _atom_site_hse06_10hf_ddec_sum_bond_order
 _atom_site_hse06_10hf_magmom
 _atom_site_hse06_bader_spin_density
 _atom_site_hse06_ddec_charge
 _atom_site_hse06_ddec_spin_density
 _atom_site_hse06_ddec_sum_bond_order
 _atom_site_hse06_magmom
 _atom_site_pbe_bader_spin_density
 _atom_site_pbe_cm5_charge
 _atom_site_pbe_ddec_charge
 _atom_site_pbe_ddec_spin_density
 _atom_site_pbe_ddec_sum_bond_order
 _atom_site_pbe_magmom
Zn  Zn0  1  0.00000119  0.55444373  0.44555840  1  0  1.242885  0  1.651855  0  0  1.082645  0  2.104565  0  0  1.127757  0  2.042866  0  0  0.679787  1.050489  0  2.147738  0
Zn  Zn1  1  0.23241691  0.00616127  0.47317108  1  0  1.220569  0  1.669554  0  0  1.069915  0  2.110455  0  0  1.114718  0  2.050892  0  0  0.670172  1.038063  0  2.151552  0
Zn  Zn2  1  0.76758555  0.52682915  0.99383918  1  0  1.220629  0  1.669459  0  0  1.069992  0  2.110354  0  0  1.114796  0  2.050786  0  0  0.670204  1.038142  0  2.151452  0
H  H3  1  0.20209677  0.74175637  0.99451375  1  0  0.109092  0  0.968511  0  0  0.115763  0  1.037691  0  0  0.119642  0  1.033913  0  0  0.111251  0.112859  0  1.040529  0
H  H4  1  0.79790093  0.00548610  0.25824085  1  0  0.109113  0  0.968517  0  0  0.115813  0  1.037662  0  0  0.119696  0  1.033868  0  0  0.111273  0.112908  0  1.0405  0
H  H5  1  0.99999635  0.15831267  0.84168734  1  0  0.111508  0  0.933887  0  0  0.11725  0  0.999279  0  0  0.121537  0  0.995333  0  0  0.107322  0.114047  0  1.002334  0
H  H6  1  0.49999946  0.89647921  0.10352153  1  0  0.11761  0  0.939814  0  0  0.124144  0  1.002228  0  0  0.128577  0  0.998156  0  0  0.111656  0.120782  0  1.005413  0
H  H7  1  0.29883713  0.31244275  0.95290924  1  0  0.105143  0  0.967321  0  0  0.112273  0  1.037209  0  0  0.116173  0  1.033172  0  0  0.109731  0.10931  0  1.040355  0
H  H8  1  0.70115962  0.04709337  0.68755771  1  0  0.105127  0  0.96732  0  0  0.112292  0  1.037161  0  0  0.116191  0  1.033127  0  0  0.109747  0.10933  0  1.040307  0
H  H9  1  0.03113906  0.22095628  0.35201442  1  0  0.423491  0  0.88702  0  0  0.386278  0  0.960079  0  0  0.39913  0  0.941715  0  0  0.294366  0.377223  0  0.973005  0
H  H10  1  0.96886306  0.64798544  0.77904328  1  0  0.423589  0  0.886955  0  0  0.386328  0  0.960029  0  0  0.399181  0  0.941663  0  0  0.294401  0.377272  0  0.972957  0
H  H11  1  0.85613033  0.21174234  0.50034662  1  0  0.433368  0  0.855882  0  0  0.40249  0  0.920181  0  0  0.412333  0  0.905913  0  0  0.304924  0.395507  0  0.930339  0
H  H12  1  0.14387276  0.49965414  0.78825682  1  0  0.433334  0  0.855892  0  0  0.402457  0  0.920218  0  0  0.4123  0  0.90595  0  0  0.304923  0.395473  0  0.930377  0
H  H13  1  0.93010802  0.87709113  0.46151009  1  0  0.434919  0  0.855153  0  0  0.406921  0  0.912829  0  0  0.416632  0  0.898732  0  0  0.300259  0.400092  0  0.922785  0
H  H14  1  0.06989868  0.53848953  0.12290670  1  0  0.434903  0  0.855175  0  0  0.4069  0  0.912864  0  0  0.416611  0  0.898767  0  0  0.300229  0.400071  0  0.92282  0
H  H15  1  0.91512970  0.87611168  0.61334389  1  0  0.434  0  0.868458  0  0  0.399927  0  0.936333  0  0  0.411344  0  0.919772  0  0  0.293535  0.391815  0  0.948095  0
H  H16  1  0.08486956  0.38665554  0.12389001  1  0  0.434053  0  0.868382  0  0  0.399916  0  0.93633  0  0  0.411333  0  0.91977  0  0  0.293539  0.391808  0  0.948082  0
H  H17  1  0.59026152  0.79970991  0.44741003  1  0  0.440089  0  0.846307  0  0  0.409638  0  0.907177  0  0  0.419562  0  0.892799  0  0  0.304515  0.402569  0  0.917452  0
H  H18  1  0.40974586  0.55258928  0.20028845  1  0  0.44016  0  0.846208  0  0  0.409707  0  0.907075  0  0  0.419631  0  0.892698  0  0  0.304553  0.402641  0  0.917347  0
H  H19  1  0.43105972  0.79820414  0.59592962  1  0  0.422515  0  0.883885  0  0  0.385151  0  0.957676  0  0  0.397824  0  0.939432  0  0  0.29001  0.376187  0  0.970564  0
H  H20  1  0.56894560  0.40406980  0.20179502  1  0  0.422551  0  0.883851  0  0  0.385199  0  0.957611  0  0  0.397873  0  0.939367  0  0  0.290037  0.376236  0  0.970498  0
H  H21  1  0.55501786  0.15308278  0.33758983  1  0  0.437279  0  0.860323  0  0  0.402996  0  0.929109  0  0  0.414329  0  0.912565  0  0  0.294375  0.394897  0  0.940942  0
H  H22  1  0.44498203  0.66240957  0.84691769  1  0  0.437282  0  0.860323  0  0  0.40301  0  0.929089  0  0  0.414344  0  0.912546  0  0  0.29439  0.394911  0  0.940922  0
H  H23  1  0.54100509  0.12990598  0.49212806  1  0  0.425405  0  0.845817  0  0  0.397642  0  0.917711  0  0  0.407015  0  0.903836  0  0  0.304344  0.390911  0  0.926115  0
H  H24  1  0.45899302  0.50787251  0.87009636  1  0  0.425423  0  0.845793  0  0  0.397662  0  0.917683  0  0  0.407035  0  0.90381  0  0  0.304358  0.390931  0  0.926089  0
H  H25  1  0.31925545  0.54374322  0.57420059  1  0  0.411411  0  0.888428  0  0  0.379041  0  0.959651  0  0  0.389839  0  0.943651  0  0  0.292401  0.371312  0  0.971149  0
H  H26  1  0.68074789  0.42580032  0.45625632  1  0  0.411439  0  0.88838  0  0  0.379069  0  0.959604  0  0  0.389868  0  0.943605  0  0  0.292424  0.371341  0  0.971101  0
H  H27  1  0.30342383  0.68852258  0.49135786  1  0  0.443234  0  0.846576  0  0  0.415086  0  0.903861  0  0  0.425887  0  0.888023  0  0  0.295799  0.407255  0  0.915379  0
H  H28  1  0.69657947  0.50864223  0.31147644  1  0  0.443261  0  0.846545  0  0  0.415115  0  0.903826  0  0  0.425917  0  0.887987  0  0  0.295812  0.407284  0  0.915344  0
H  H29  1  0.85774364  0.53807733  0.69988044  1  0  0.436939  0  0.868772  0  0  0.404809  0  0.932853  0  0  0.41627  0  0.916212  0  0  0.291667  0.396631  0  0.944738  0
H  H30  1  0.14225332  0.30012266  0.46192373  1  0  0.436962  0  0.868736  0  0  0.404834  0  0.932814  0  0  0.416295  0  0.916173  0  0  0.291682  0.396656  0  0.944698  0
H  H31  1  0.66406060  0.50518172  0.65290809  1  0  0.423246  0  0.876189  0  0  0.391937  0  0.939583  0  0  0.402006  0  0.924888  0  0  0.296724  0.384728  0  0.950156  0
H  H32  1  0.33593771  0.34709328  0.49481917  1  0  0.423247  0  0.876181  0  0  0.391937  0  0.939576  0  0  0.402006  0  0.92488  0  0  0.296728  0.384726  0  0.950152  0
C  C33  1  0.00000401  0.75037282  0.24961998  1  0  0.67151  0  3.838278  0  0  0.618272  0  4.116968  0  0  0.652915  0  4.11115  0  0  0.225483  0.595017  0  4.120055  0
C  C34  1  0.99999967  0.86295439  0.13704390  1  0  -0.080746  0  3.766613  0  0  -0.053998  0  4.009489  0  0  -0.066258  0  4.03206  0  0  -0.018626  -0.046285  0  3.994198  0
C  C35  1  0.11427747  0.84158069  0.00945462  1  0  -0.027045  0  3.653023  0  0  -0.071578  0  3.908398  0  0  -0.065112  0  3.924458  0  0  -0.065374  -0.075334  0  3.897389  0
C  C36  1  0.88571879  0.99054474  0.15841780  1  0  -0.027175  0  3.652984  0  0  -0.071709  0  3.908377  0  0  -0.065238  0  3.924446  0  0  -0.065436  -0.075464  0  3.897368  0
C  C37  1  0.11296747  0.94742575  0.90233109  1  0  -0.0922  0  3.754456  0  0  -0.064151  0  3.992693  0  0  -0.076533  0  4.017438  0  0  -0.017408  -0.056449  0  3.976347  0
C  C38  1  0.88702447  0.09766957  0.05257492  1  0  -0.092113  0  3.754407  0  0  -0.06417  0  3.992758  0  0  -0.076567  0  4.017528  0  0  -0.017376  -0.056468  0  3.976411  0
C  C39  1  0.99999856  0.07532888  0.92467088  1  0  -0.027171  0  3.660633  0  0  -0.065768  0  3.909771  0  0  -0.060193  0  3.927842  0  0  -0.060877  -0.069173  0  3.897739  0
C  C40  1  0.22672108  0.92280334  0.76449315  1  0  0.673934  0  3.871035  0  0  0.614795  0  4.175774  0  0  0.649559  0  4.169584  0  0  0.21665  0.591398  0  4.178939  0
C  C41  1  0.77327688  0.23550821  0.07719418  1  0  0.673855  0  3.871282  0  0  0.614767  0  4.175985  0  0  0.649535  0  4.169793  0  0  0.21661  0.591369  0  4.179149  0
C  C42  1  0.26409002  0.12131519  0.18188606  1  0  0.670666  0  3.865713  0  0  0.612497  0  4.165272  0  0  0.647286  0  4.159151  0  0  0.221171  0.588992  0  4.168535  0
C  C43  1  0.73590632  0.81811515  0.87868395  1  0  0.67083  0  3.865545  0  0  0.612646  0  4.165128  0  0  0.647439  0  4.159  0  0  0.221204  0.589141  0  4.168394  0
C  C44  1  0.38539156  0.10623971  0.04291640  1  0  -0.083478  0  3.761998  0  0  -0.056982  0  4.000088  0  0  -0.069185  0  4.024707  0  0  -0.016115  -0.049376  0  3.98379  0
C  C45  1  0.61460570  0.95708463  0.89375986  1  0  -0.083519  0  3.761952  0  0  -0.056994  0  4.00003  0  0  -0.069195  0  4.02464  0  0  -0.016071  -0.049389  0  3.983734  0
C  C46  1  0.49999925  0.97931930  0.02068192  1  0  -0.033702  0  3.686801  0  0  -0.07204  0  3.93358  0  0  -0.066815  0  3.951837  0  0  -0.061845  -0.075056  0  3.921363  0
C  C47  1  0.38693271  0.21300589  0.93651790  1  0  -0.027858  0  3.645095  0  0  -0.071777  0  3.902621  0  0  -0.065254  0  3.918683  0  0  -0.064304  -0.075618  0  3.89172  0
C  C48  1  0.61306595  0.06348189  0.78699583  1  0  -0.027833  0  3.645093  0  0  -0.071773  0  3.902613  0  0  -0.06525  0  3.918672  0  0  -0.064337  -0.075615  0  3.891713  0
C  C49  1  0.49999961  0.19194698  0.80805449  1  0  -0.092124  0  3.741189  0  0  -0.068948  0  3.990481  0  0  -0.08133  0  4.014231  0  0  -0.02282  -0.06101  0  3.974303  0
C  C50  1  0.49999761  0.30580744  0.69419182  1  0  0.677452  0  3.835702  0  0  0.623565  0  4.123946  0  0  0.657814  0  4.116608  0  0  0.229568  0.600488  0  4.128101  0
O  O51  1  0.11126402  0.63317073  0.23253212  1  0  -0.666745  0  2.034605  0  0  -0.586993  0  2.25995  0  0  -0.615657  0  2.248206  0  0  -0.30112  -0.567178  0  2.26771  0
O  O52  1  0.88875416  0.76745382  0.36682650  1  0  -0.666748  0  2.034795  0  0  -0.587032  0  2.260184  0  0  -0.615702  0  2.248446  0  0  -0.301106  -0.567213  0  2.267942  0
O  O53  1  0.35755302  0.81020901  0.74896298  1  0  -0.638718  0  2.007392  0  0  -0.571592  0  2.226179  0  0  -0.598211  0  2.215654  0  0  -0.310416  -0.55294  0  2.232989  0
O  O54  1  0.64244489  0.25103788  0.18979214  1  0  -0.638779  0  2.007332  0  0  -0.571645  0  2.226081  0  0  -0.598265  0  2.215552  0  0  -0.310459  -0.552993  0  2.232892  0
O  O55  1  0.18271635  0.01771239  0.66984269  1  0  -0.650471  0  2.025209  0  0  -0.583877  0  2.286312  0  0  -0.612759  0  2.275326  0  0  -0.32199  -0.563633  0  2.293003  0
O  O56  1  0.81728604  0.33015754  0.98228687  1  0  -0.650381  0  2.025396  0  0  -0.583798  0  2.286475  0  0  -0.612678  0  2.275484  0  0  -0.321899  -0.563554  0  2.293166  0
O  O57  1  0.29670883  0.01887851  0.27130131  1  0  -0.641778  0  2.032957  0  0  -0.574005  0  2.290839  0  0  -0.602678  0  2.279747  0  0  -0.317296  -0.553783  0  2.297671  0
O  O58  1  0.70328975  0.72870033  0.98112049  1  0  -0.641816  0  2.032891  0  0  -0.57406  0  2.290806  0  0  -0.602736  0  2.279716  0  0  -0.3173  -0.553838  0  2.29764  0
O  O59  1  0.13373848  0.23235252  0.20374244  1  0  -0.625803  0  2.050498  0  0  -0.555876  0  2.266138  0  0  -0.582962  0  2.256146  0  0  -0.303254  -0.53694  0  2.27258  0
O  O60  1  0.86625600  0.79625987  0.76764794  1  0  -0.625863  0  2.050409  0  0  -0.555999  0  2.266179  0  0  -0.583085  0  2.256181  0  0  -0.303299  -0.53706  0  2.272625  0
O  O61  1  0.56920913  0.28326677  0.57530087  1  0  -0.680593  0  2.011812  0  0  -0.605131  0  2.218759  0  0  -0.631195  0  2.206932  0  0  -0.312551  -0.587163  0  2.226879  0
O  O62  1  0.43078936  0.42469914  0.71673084  1  0  -0.680577  0  2.011782  0  0  -0.605113  0  2.218725  0  0  -0.631175  0  2.206898  0  0  -0.312536  -0.587145  0  2.226845  0
O  O63  1  0.01367910  0.19916506  0.45330200  1  0  -0.848839  0  2.009172  0  0  -0.776711  0  2.21823  0  0  -0.800405  0  2.182463  0  0  -0.562584  -0.759798  0  2.243002  0
O  O64  1  0.98632182  0.54669901  0.80083529  1  0  -0.848888  0  2.009164  0  0  -0.776706  0  2.21824  0  0  -0.800407  0  2.182483  0  0  -0.562612  -0.759794  0  2.243013  0
O  O65  1  0.94938641  0.92709582  0.52072171  1  0  -0.853382  0  1.895586  0  0  -0.794838  0  2.10371  0  0  -0.815929  0  2.068368  0  0  -0.583309  -0.779901  0  2.128418  0
O  O66  1  0.05061324  0.47927748  0.07290443  1  0  -0.853416  0  1.895522  0  0  -0.794829  0  2.10377  0  0  -0.815922  0  2.068433  0  0  -0.583288  -0.779892  0  2.128476  0
O  O67  1  0.43456760  0.80848467  0.49806224  1  0  -0.842426  0  1.938931  0  0  -0.770868  0  2.134773  0  0  -0.793985  0  2.098255  0  0  -0.55509  -0.754394  0  2.160376  0
O  O68  1  0.56543877  0.50193648  0.19151600  1  0  -0.842522  0  1.93882  0  0  -0.770986  0  2.134665  0  0  -0.794103  0  2.098144  0  0  -0.555159  -0.754517  0  2.160269  0
O  O69  1  0.51262291  0.09464126  0.42507450  1  0  -0.842428  0  1.904956  0  0  -0.785623  0  2.123183  0  0  -0.80516  0  2.088032  0  0  -0.578384  -0.771692  0  2.146487  0
O  O70  1  0.48737757  0.57492604  0.90535845  1  0  -0.842458  0  1.904918  0  0  -0.785656  0  2.123122  0  0  -0.805191  0  2.087972  0  0  -0.578413  -0.771729  0  2.146437  0
O  O71  1  0.24215791  0.60909937  0.50969583  1  0  -0.858982  0  1.894798  0  0  -0.798811  0  2.101416  0  0  -0.81872  0  2.065099  0  0  -0.59196  -0.78473  0  2.127305  0
O  O72  1  0.75784442  0.49030567  0.39090014  1  0  -0.859007  0  1.894686  0  0  -0.798833  0  2.101307  0  0  -0.818742  0  2.064993  0  0  -0.591993  -0.784749  0  2.127199  0
O  O73  1  0.78577620  0.55119528  0.62433123  1  0  -0.858216  0  1.936435  0  0  -0.790896  0  2.154602  0  0  -0.812791  0  2.11723  0  0  -0.585598  -0.775459  0  2.180977  0
O  O74  1  0.21421944  0.37567152  0.44880672  1  0  -0.858224  0  1.936383  0  0  -0.790916  0  2.154581  0  0  -0.81281  0  2.117203  0  0  -0.58562  -0.775477  0  2.180958  0
