# generated using pymatgen
data_Ag2H13C15(NO2)3
_symmetry_space_group_name_H-M   'P 1'
_cell_length_a   7.21492047
_cell_length_b   7.94555633
_cell_length_c   14.12252920
_cell_angle_alpha   76.01672328
_cell_angle_beta   83.54639359
_cell_angle_gamma   86.52026513
_symmetry_Int_Tables_number   1
_chemical_formula_structural   Ag2H13C15(NO2)3
_chemical_formula_sum   'Ag4 H26 C30 N6 O12'
_cell_volume   780.15413406
_cell_formula_units_Z   2
loop_
 _symmetry_equiv_pos_site_id
 _symmetry_equiv_pos_as_xyz
  1  'x, y, z'
loop_
 _atom_site_type_symbol
 _atom_site_label
 _atom_site_symmetry_multiplicity
 _atom_site_fract_x
 _atom_site_fract_y
 _atom_site_fract_z
 _atom_site_occupancy
 _atom_site_hle17_bader_spin_density
 _atom_site_hle17_ddec_charge
 _atom_site_hle17_ddec_spin_density
 _atom_site_hle17_ddec_sum_bond_order
 _atom_site_hle17_magmom
 _atom_site_hse06_10hf_bader_spin_density
 _atom_site_hse06_10hf_ddec_charge
 _atom_site_hse06_10hf_ddec_spin_density
 _atom_site_hse06_10hf_ddec_sum_bond_order
 _atom_site_hse06_10hf_magmom
 _atom_site_hse06_bader_spin_density
 _atom_site_hse06_ddec_charge
 _atom_site_hse06_ddec_spin_density
 _atom_site_hse06_ddec_sum_bond_order
 _atom_site_hse06_magmom
 _atom_site_pbe_bader_spin_density
 _atom_site_pbe_cm5_charge
 _atom_site_pbe_ddec_charge
 _atom_site_pbe_ddec_spin_density
 _atom_site_pbe_ddec_sum_bond_order
 _atom_site_pbe_magmom
Ag  Ag0  1  0.34017917  0.27929645  0.34323787  1  0  0.532437  0  1.412505  0  0  0.398073  0  1.858198  0  0  0.428123  0  1.807761  0  0  0.46357  0.377939  0  1.892942  0
Ag  Ag1  1  0.65982260  0.72070464  0.65676272  1  0  0.532417  0  1.412496  0  0  0.39806  0  1.858189  0  0  0.428103  0  1.807747  0  0  0.463556  0.377926  0  1.892923  0
Ag  Ag2  1  0.77135265  0.45459316  0.54578316  1  0  0.596222  0  1.386995  0  0  0.472185  0  1.845943  0  0  0.50663  0  1.789463  0  0  0.42871  0.448569  0  1.884842  0
Ag  Ag3  1  0.22864493  0.54540792  0.45421626  1  0  0.596237  0  1.387024  0  0  0.472193  0  1.846005  0  0  0.506638  0  1.789525  0  0  0.42871  0.448579  0  1.884899  0
H  H4  1  0.99213277  0.13943146  0.47269626  1  0  0.097979  0  0.944089  0  0  0.107587  0  1.005207  0  0  0.109689  0  1.004132  0  0  0.122658  0.105958  0  1.006367  0
H  H5  1  0.00786896  0.86057092  0.52730629  1  0  0.098033  0  0.944064  0  0  0.107636  0  1.005192  0  0  0.109737  0  1.004117  0  0  0.122679  0.106005  0  1.006355  0
H  H6  1  0.64306480  0.14079249  0.47171307  1  0  0.123738  0  0.959605  0  0  0.128891  0  1.022861  0  0  0.132495  0  1.019827  0  0  0.123663  0.126156  0  1.02541  0
H  H7  1  0.35693691  0.85920989  0.52828664  1  0  0.123686  0  0.959632  0  0  0.128916  0  1.022787  0  0  0.132512  0  1.019767  0  0  0.123694  0.126181  0  1.025335  0
H  H8  1  0.98794672  0.66588314  0.15819989  1  0  0.085115  0  0.943048  0  0  0.104254  0  0.995911  0  0  0.104504  0  0.997455  0  0  0.096797  0.104038  0  0.994885  0
H  H9  1  0.01205091  0.33411664  0.84179899  1  0  0.085079  0  0.943046  0  0  0.104224  0  0.995916  0  0  0.104473  0  0.99746  0  0  0.096773  0.104011  0  0.9949  0
H  H10  1  0.17229358  0.59124087  0.23112535  1  0  0.090378  0  0.945136  0  0  0.101872  0  1.018427  0  0  0.104194  0  1.015614  0  0  0.096233  0.1  0  1.020655  0
H  H11  1  0.82770684  0.40875891  0.76887337  1  0  0.090341  0  0.945132  0  0  0.101829  0  1.018437  0  0  0.10415  0  1.015626  0  0  0.096222  0.099958  0  1.020671  0
H  H12  1  0.73472958  0.61804030  0.12610871  1  0  0.128154  0  0.950077  0  0  0.150449  0  1.00407  0  0  0.151701  0  1.004312  0  0  0.097357  0.149557  0  1.003839  0
H  H13  1  0.26527243  0.38195429  0.87389063  1  0  0.128144  0  0.95005  0  0  0.150429  0  1.004057  0  0  0.151681  0  1.004298  0  0  0.097372  0.14954  0  1.003834  0
H  H14  1  0.62601431  0.42246030  0.12886166  1  0  0.120871  0  0.948065  0  0  0.142561  0  1.012134  0  0  0.142535  0  1.013572  0  0  0.097098  0.142546  0  1.011113  0
H  H15  1  0.37398761  0.57753689  0.87113874  1  0  0.12083  0  0.948094  0  0  0.142531  0  1.012153  0  0  0.142503  0  1.013597  0  0  0.097102  0.142519  0  1.011118  0
H  H16  1  0.52021760  0.56580063  0.20037129  1  0  0.134736  0  0.963722  0  0  0.150935  0  1.034453  0  0  0.15317  0  1.032791  0  0  0.097529  0.149226  0  1.03566  0
H  H17  1  0.47978426  0.43419786  0.79962681  1  0  0.134718  0  0.963676  0  0  0.150908  0  1.03442  0  0  0.153144  0  1.032758  0  0  0.097523  0.1492  0  1.035629  0
H  H18  1  0.07338496  0.43135672  0.06512987  1  0  0.092782  0  0.96297  0  0  0.11595  0  1.021031  0  0  0.11674  0  1.022245  0  0  0.084179  0.115368  0  1.020163  0
H  H19  1  0.92661396  0.56864566  0.93486859  1  0  0.092743  0  0.963047  0  0  0.115956  0  1.021044  0  0  0.116746  0  1.022259  0  0  0.084174  0.11537  0  1.020174  0
H  H20  1  0.26904757  0.56032886  0.06161238  1  0  0.103958  0  0.95011  0  0  0.128632  0  1.003821  0  0  0.129498  0  1.004592  0  0  0.090086  0.127982  0  1.00329  0
H  H21  1  0.73095136  0.43967352  0.93838678  1  0  0.103968  0  0.950127  0  0  0.128637  0  1.00384  0  0  0.129505  0  1.004608  0  0  0.090082  0.127987  0  1.003316  0
H  H22  1  0.25295211  0.35215403  0.14218583  1  0  0.08546  0  0.984716  0  0  0.096928  0  1.06861  0  0  0.098991  0  1.066838  0  0  0.076668  0.095298  0  1.070056  0
H  H23  1  0.74704836  0.64784446  0.85781236  1  0  0.085536  0  0.984677  0  0  0.096977  0  1.068595  0  0  0.099042  0  1.066821  0  0  0.076681  0.095346  0  1.07003  0
H  H24  1  0.94236297  0.89257415  0.89436703  1  0  0.09808  0  0.972811  0  0  0.10288  0  1.039347  0  0  0.106463  0  1.037288  0  0  0.102114  0.100306  0  1.040982  0
H  H25  1  0.05763605  0.10742563  0.10563178  1  0  0.098076  0  0.972782  0  0  0.102877  0  1.039317  0  0  0.106462  0  1.037258  0  0  0.102105  0.100304  0  1.040959  0
H  H26  1  0.24149838  0.84845381  0.97323547  1  0  0.114759  0  0.962468  0  0  0.118746  0  1.031865  0  0  0.122659  0  1.028543  0  0  0.110604  0.115993  0  1.034231  0
H  H27  1  0.75849940  0.15154208  0.02676252  1  0  0.114703  0  0.96247  0  0  0.118683  0  1.0319  0  0  0.122593  0  1.028583  0  0  0.11057  0.115932  0  1.034267  0
H  H28  1  0.93791407  0.06666815  0.72243851  1  0  0.116736  0  0.977835  0  0  0.122324  0  1.045151  0  0  0.126191  0  1.042593  0  0  0.104937  0.119418  0  1.047199  0
H  H29  1  0.06208475  0.93333682  0.27756172  1  0  0.116709  0  0.977844  0  0  0.122298  0  1.045174  0  0  0.126163  0  1.042617  0  0  0.104923  0.119391  0  1.047218  0
C  C30  1  0.75215930  0.41560325  0.25937511  1  0  0.242219  0  3.625832  0  0  0.244352  0  3.869714  0  0  0.249177  0  3.891251  0  0  0.135497  0.2407  0  3.855531  0
C  C31  1  0.24784402  0.58439394  0.74062450  1  0  0.242207  0  3.625918  0  0  0.24444  0  3.869688  0  0  0.249247  0  3.891231  0  0  0.135475  0.240785  0  3.855504  0
C  C32  1  0.92264917  0.22013496  0.41226526  1  0  0.071578  0  3.702244  0  0  0.038362  0  3.967797  0  0  0.041697  0  3.982712  0  0  0.039408  0.035588  0  3.958715  0
C  C33  1  0.07735265  0.77986483  0.58773550  1  0  0.071401  0  3.702211  0  0  0.038143  0  3.96783  0  0  0.041477  0  3.982744  0  0  0.039314  0.035364  0  3.958753  0
C  C34  1  0.73000265  0.22022433  0.41155804  1  0  0.060358  0  3.697634  0  0  0.026636  0  3.964837  0  0  0.031194  0  3.977841  0  0  0.038248  0.02302  0  3.957199  0
C  C35  1  0.27000061  0.77977416  0.58844211  1  0  0.060498  0  3.697411  0  0  0.02679  0  3.964529  0  0  0.031344  0  3.977531  0  0  0.038327  0.023174  0  3.956889  0
C  C36  1  0.94627493  0.42514501  0.26423115  1  0  0.182158  0  3.620045  0  0  0.182797  0  3.858127  0  0  0.186619  0  3.879322  0  0  0.132955  0.179817  0  3.844179  0
C  C37  1  0.05372828  0.57485478  0.73576883  1  0  0.182086  0  3.620003  0  0  0.182694  0  3.858088  0  0  0.186518  0  3.879288  0  0  0.132904  0.179722  0  3.844135  0
C  C38  1  0.06945787  0.54917886  0.19038118  1  0  -0.143611  0  3.729821  0  0  -0.182564  0  3.980983  0  0  -0.183922  0  3.9939  0  0  -0.163361  -0.181337  0  3.971986  0
C  C39  1  0.93054115  0.45082092  0.80961834  1  0  -0.143475  0  3.729683  0  0  -0.182421  0  3.980841  0  0  -0.18378  0  3.993764  0  0  -0.163313  -0.181207  0  3.971868  0
C  C40  1  0.65420121  0.51207332  0.17367871  1  0  -0.37112  0  3.693934  0  0  -0.456542  0  3.930707  0  0  -0.459432  0  3.940064  0  0  -0.240963  -0.454091  0  3.924119  0
C  C41  1  0.34580076  0.48792258  0.82632187  1  0  -0.371007  0  3.693848  0  0  -0.456455  0  3.930639  0  0  -0.459344  0  3.940002  0  0  -0.240929  -0.454005  0  3.924055  0
C  C42  1  0.17124470  0.46893691  0.10991941  1  0  -0.274698  0  3.700741  0  0  -0.347653  0  3.944157  0  0  -0.350541  0  3.955623  0  0  -0.246483  -0.34529  0  3.936076  0
C  C43  1  0.82875432  0.53106287  0.89008010  1  0  -0.274788  0  3.700777  0  0  -0.347745  0  3.944198  0  0  -0.350633  0  3.955658  0  0  -0.246497  -0.34538  0  3.93613  0
C  C44  1  0.07146901  0.94201549  0.85235335  1  0  -0.059852  0  3.746336  0  0  -0.071504  0  4.003277  0  0  -0.075534  0  4.023804  0  0  -0.090103  -0.068861  0  3.989466  0
C  C45  1  0.92853007  0.05798300  0.14764705  1  0  -0.059878  0  3.746256  0  0  -0.071527  0  4.003199  0  0  -0.075557  0  4.023725  0  0  -0.090081  -0.068886  0  3.989392  0
C  C46  1  0.58007256  0.14372362  0.68155450  1  0  0.659868  0  3.95741  0  0  0.59915  0  4.262129  0  0  0.63476  0  4.2548  0  0  0.202543  0.574843  0  4.266015  0
C  C47  1  0.41992497  0.85627876  0.31844617  1  0  0.65983  0  3.957391  0  0  0.599142  0  4.262083  0  0  0.634753  0  4.25475  0  0  0.202524  0.574833  0  4.265968  0
C  C48  1  0.40309877  0.07808192  0.74359323  1  0  -0.078489  0  3.680251  0  0  -0.073875  0  3.921983  0  0  -0.073752  0  3.937676  0  0  0.003815  -0.074045  0  3.911704  0
C  C49  1  0.59690155  0.92192046  0.25640727  1  0  -0.078285  0  3.679958  0  0  -0.073752  0  3.921793  0  0  -0.07363  0  3.937486  0  0  0.003833  -0.073917  0  3.911515  0
C  C50  1  0.23275426  0.10888022  0.70175198  1  0  -0.046994  0  3.682344  0  0  -0.027757  0  3.913012  0  0  -0.034053  0  3.932608  0  0  -0.00421  -0.024168  0  3.900363  0
C  C51  1  0.76724323  0.89112345  0.29824992  1  0  -0.047094  0  3.682201  0  0  -0.02782  0  3.912915  0  0  -0.034117  0  3.932507  0  0  -0.004199  -0.024244  0  3.900285  0
C  C52  1  0.23675545  0.91480688  0.89644395  1  0  -0.10602  0  3.750128  0  0  -0.134034  0  4.012563  0  0  -0.132566  0  4.030163  0  0  -0.084625  -0.134944  0  4.000685  0
C  C53  1  0.76324223  0.08519161  0.10355511  1  0  -0.105847  0  3.749967  0  0  -0.133855  0  4.012383  0  0  -0.132386  0  4.029983  0  0  -0.084575  -0.134764  0  4.000505  0
C  C54  1  0.39902851  0.98521331  0.84159183  1  0  0.040528  0  3.723637  0  0  0.025922  0  3.987664  0  0  0.02236  0  4.008767  0  0  0.07503  0.028158  0  3.973645  0
C  C55  1  0.60097052  0.01478647  0.15840840  1  0  0.040405  0  3.723612  0  0  0.025834  0  3.987649  0  0  0.022273  0  4.008751  0  0  0.075033  0.02807  0  3.973631  0
C  C56  1  0.06860686  0.04156606  0.75613128  1  0  -0.040251  0  3.654632  0  0  -0.072269  0  3.912257  0  0  -0.069928  0  3.929682  0  0  -0.075584  -0.073567  0  3.900662  0
C  C57  1  0.93139197  0.95843892  0.24386895  1  0  -0.040265  0  3.65462  0  0  -0.072282  0  3.912241  0  0  -0.069942  0  3.929665  0  0  -0.075607  -0.073573  0  3.900644  0
C  C58  1  0.23205044  0.21565153  0.59770740  1  0  0.647314  0  3.918609  0  0  0.596211  0  4.204605  0  0  0.630854  0  4.199951  0  0  0.201974  0.572697  0  4.206762  0
C  C59  1  0.76794845  0.78435214  0.40229372  1  0  0.647547  0  3.918264  0  0  0.596375  0  4.204363  0  0  0.631027  0  4.199689  0  0  0.202062  0.572862  0  4.206522  0
N  N60  1  0.02972336  0.32016692  0.33877136  1  0  -0.298559  0  3.299563  0  0  -0.220916  0  3.566969  0  0  -0.236038  0  3.582338  0  0  -0.322381  -0.210729  0  3.556931  0
N  N61  1  0.97027986  0.67983287  0.66122933  1  0  -0.2985  0  3.29953  0  0  -0.220843  0  3.566915  0  0  -0.235965  0  3.582285  0  0  -0.32237  -0.210655  0  3.556868  0
N  N62  1  0.64683486  0.31318958  0.33392996  1  0  -0.288025  0  3.238042  0  0  -0.212949  0  3.513522  0  0  -0.228709  0  3.52903  0  0  -0.318335  -0.202471  0  3.50358  0
N  N63  1  0.35316846  0.68680761  0.66607036  1  0  -0.288044  0  3.238041  0  0  -0.213061  0  3.513573  0  0  -0.228784  0  3.529045  0  0  -0.318368  -0.202581  0  3.503629  0
N  N64  1  0.56613176  0.97123983  0.89207911  1  0  0.502365  0  3.901684  0  0  0.52251  0  4.210235  0  0  0.544735  0  4.217039  0  0  0.05045  0.507435  0  4.205917  0
N  N65  1  0.43386597  0.02875735  0.10792012  1  0  0.50228  0  3.901746  0  0  0.522413  0  4.210303  0  0  0.54464  0  4.217106  0  0  0.050421  0.507336  0  4.205989  0
O  O66  1  0.12830005  0.35539261  0.58633783  1  0  -0.644269  0  2.128813  0  0  -0.561877  0  2.409217  0  0  -0.597075  0  2.400171  0  0  -0.335717  -0.537014  0  2.414452  0
O  O67  1  0.87170023  0.64461107  0.41366250  1  0  -0.644333  0  2.128553  0  0  -0.561899  0  2.408952  0  0  -0.597099  0  2.399899  0  0  -0.335786  -0.537033  0  2.414183  0
O  O68  1  0.33309001  0.16322694  0.53158417  1  0  -0.606135  0  2.013786  0  0  -0.54278  0  2.260106  0  0  -0.571263  0  2.25138  0  0  -0.304105  -0.522568  0  2.265352  0
O  O69  1  0.66690897  0.83677414  0.46841730  1  0  -0.606222  0  2.013722  0  0  -0.542843  0  2.260088  0  0  -0.571331  0  2.251356  0  0  -0.304117  -0.522631  0  2.265336  0
O  O70  1  0.67641466  0.09205363  0.86567948  1  0  -0.355883  0  1.796386  0  0  -0.321777  0  2.008313  0  0  -0.33531  0  2.006922  0  0  -0.108297  -0.312991  0  2.009649  0
O  O71  1  0.32358592  0.90794226  0.13432047  1  0  -0.355834  0  1.796412  0  0  -0.321728  0  2.008336  0  0  -0.335272  0  2.006957  0  0  -0.108272  -0.312931  0  2.00966  0
O  O72  1  0.58855393  0.84150486  0.96046024  1  0  -0.379396  0  1.754842  0  0  -0.355321  0  1.969191  0  0  -0.367905  0  1.965975  0  0  -0.13351  -0.347103  0  1.971648  0
O  O73  1  0.41144246  0.15849103  0.03953855  1  0  -0.379341  0  1.754857  0  0  -0.355256  0  1.969219  0  0  -0.367836  0  1.966002  0  0  -0.133493  -0.347044  0  1.97169  0
O  O74  1  0.58609183  0.30922640  0.65931718  1  0  -0.626567  0  2.153904  0  0  -0.548111  0  2.446368  0  0  -0.582642  0  2.434289  0  0  -0.328009  -0.523421  0  2.45343  0
O  O75  1  0.41390710  0.69077598  0.34068269  1  0  -0.626603  0  2.153901  0  0  -0.548162  0  2.446374  0  0  -0.582695  0  2.434296  0  0  -0.328017  -0.523469  0  2.453432  0
O  O76  1  0.69873887  0.03754498  0.65504029  1  0  -0.607933  0  1.989273  0  0  -0.548298  0  2.247653  0  0  -0.576329  0  2.236837  0  0  -0.316432  -0.528029  0  2.254039  0
O  O77  1  0.30126012  0.96245610  0.34496188  1  0  -0.607948  0  1.989337  0  0  -0.548315  0  2.247707  0  0  -0.576342  0  2.236884  0  0  -0.316441  -0.528063  0  2.254131  0
