# generated using pymatgen
data_CuH10C17NO4
_symmetry_space_group_name_H-M   'P 1'
_cell_length_a   13.09589567
_cell_length_b   13.09589433
_cell_length_c   14.01897264
_cell_angle_alpha   93.52733007
_cell_angle_beta   93.52733834
_cell_angle_gamma   97.22900003
_symmetry_Int_Tables_number   1
_chemical_formula_structural   CuH10C17NO4
_chemical_formula_sum   'Cu6 H60 C102 N6 O24'
_cell_volume   2374.82631209
_cell_formula_units_Z   6
loop_
 _symmetry_equiv_pos_site_id
 _symmetry_equiv_pos_as_xyz
  1  'x, y, z'
loop_
 _atom_site_type_symbol
 _atom_site_label
 _atom_site_symmetry_multiplicity
 _atom_site_fract_x
 _atom_site_fract_y
 _atom_site_fract_z
 _atom_site_occupancy
 _atom_site_pbe_bader_charge
 _atom_site_pbe_bader_spin_density
 _atom_site_pbe_cm5_charge
 _atom_site_pbe_ddec_charge
 _atom_site_pbe_ddec_spin_density
 _atom_site_pbe_ddec_sum_bond_order
 _atom_site_pbe_magmom
Cu  Cu0  1  0.30882590  0.68361320  0.59160245  1  1.075619  0.583506  0.68679  0.767132  0.740114  2.397714  0.584
Cu  Cu1  1  0.31638688  0.69117474  0.40839775  1  1.072691  0.583393  0.686806  0.767161  0.740113  2.397693  0.584
Cu  Cu2  1  0.02062004  0.32771327  0.74733544  1  1.083982  0.579504  0.68527  0.765312  0.734817  2.391571  0.581
Cu  Cu3  1  0.67228669  0.97938057  0.25266476  1  1.083935  0.579505  0.685299  0.765367  0.73482  2.39154  0.581
Cu  Cu4  1  0.01182739  0.31869254  0.93086693  1  1.066286  0.579557  0.683816  0.762959  0.733467  2.390842  0.581
Cu  Cu5  1  0.68130699  0.98817246  0.06913321  1  1.066313  0.579555  0.683809  0.762931  0.733464  2.39089  0.581
H  H6  1  0.24696137  0.53125727  0.74387724  1  0.100523  -8.2e-05  0.117714  0.095393  -8.1e-05  1.004318  0.0
H  H7  1  0.46874279  0.75303833  0.25612435  1  0.10057  -8.2e-05  0.117715  0.095404  -8.1e-05  1.004299  0.0
H  H8  1  0.24552133  0.52763035  0.92230076  1  0.089075  -0.000116  0.108567  0.121397  -0.000126  1.015008  0.0
H  H9  1  0.47237090  0.75447871  0.07770020  1  0.089122  -0.000116  0.108571  0.121398  -0.000126  1.015018  0.0
H  H10  1  0.37722303  0.84811436  0.94397748  1  0.100704  3.3e-05  0.108496  0.120575  7.3e-05  1.019539  0.0
H  H11  1  0.15188707  0.62277801  0.05602281  1  0.100724  3.3e-05  0.10849  0.120569  7.3e-05  1.019587  0.0
H  H12  1  0.36950084  0.83938314  0.76413976  1  0.085801  -6.1e-05  0.117084  0.089437  -4e-05  1.000318  0.0
H  H13  1  0.16061753  0.63049915  0.23586044  1  0.085806  -6.1e-05  0.117091  0.089418  -4e-05  1.000335  0.0
H  H14  1  0.00413189  0.73304699  0.32680774  1  0.091174  0.000456  0.103316  0.108793  0.00033  1.017776  0.0
H  H15  1  0.26695316  0.99586768  0.67319167  1  0.091183  0.000456  0.103292  0.108749  0.00033  1.017736  0.0
H  H16  1  0.81659184  0.75312227  0.31306144  1  0.095621  0.000292  0.102885  0.114578  0.000148  1.014217  0.0
H  H17  1  0.24687811  0.18340776  0.68693875  1  0.095621  0.000292  0.102885  0.114583  0.000148  1.014217  0.0
H  H18  1  0.64836196  0.74161577  0.38472968  1  0.119929  0.000357  0.106116  0.116156  0.000351  1.038273  0.0
H  H19  1  0.25838470  0.35163810  0.61527053  1  0.119931  0.000357  0.106143  0.116195  0.000351  1.038333  0.0
H  H20  1  0.62047392  0.64397805  0.67078613  1  0.061041  0.000406  0.105632  0.112626  0.000276  0.998446  0.0
H  H21  1  0.35602093  0.37952581  0.32921327  1  0.061044  0.000406  0.105672  0.112707  0.000276  0.998382  0.0
H  H22  1  0.80873762  0.62846362  0.68623392  1  0.086193  0.000352  0.104699  0.110183  0.000161  0.99472  0.0
H  H23  1  0.37153590  0.19126245  0.31376555  1  0.086192  0.000352  0.104699  0.110179  0.000161  0.994718  0.0
H  H24  1  0.97725567  0.64052288  0.61425170  1  0.083084  0.000334  0.10551  0.107393  0.000292  1.04604  0.0
H  H25  1  0.35947812  0.02274426  0.38574785  1  0.083076  0.000334  0.105502  0.107374  0.000292  1.046042  0.0
H  H26  1  0.99583985  0.16503115  0.57688101  1  0.093764  -3.8e-05  0.11456  0.086384  3e-06  1.011876  0.0
H  H27  1  0.83496952  0.00416026  0.42311928  1  0.093774  -3.8e-05  0.11457  0.08642  3e-06  1.011784  0.0
H  H28  1  0.99335756  0.15428146  0.39722380  1  0.12279  -2.6e-05  0.109032  0.117469  -1e-05  1.00762  0.0
H  H29  1  0.84571723  0.00664124  0.60277702  1  0.122775  -2.6e-05  0.109016  0.11745  -1e-05  1.007595  0.0
H  H30  1  0.05860591  0.48644861  0.41494678  1  0.097252  -8.5e-05  0.107093  0.115801  -9.5e-05  1.020858  0.0
H  H31  1  0.51355027  0.94139412  0.58505332  1  0.097656  -8.5e-05  0.107102  0.115778  -9.5e-05  1.020885  0.0
H  H32  1  0.05907091  0.48311294  0.59330865  1  0.108045  -5.8e-05  0.1167  0.093543  -3.5e-05  1.012142  0.0
H  H33  1  0.51688767  0.94092942  0.40669085  1  0.108048  -5.8e-05  0.116705  0.093538  -3.5e-05  1.012182  0.0
H  H34  1  0.88898496  0.20346330  0.26142564  1  0.09974  -0.000114  0.108975  0.124401  -0.000111  1.012198  0.0
H  H35  1  0.79653596  0.11101381  0.73857377  1  0.099673  -0.000114  0.10896  0.124388  -0.000111  1.012215  0.0
H  H36  1  0.88870436  0.20616403  0.08337777  1  0.111413  -0.000111  0.117958  0.094679  -0.000133  0.999515  0.0
H  H37  1  0.79383634  0.11129543  0.91662176  1  0.111483  -0.000111  0.117957  0.094689  -0.000133  0.999505  0.0
H  H38  1  0.14483837  0.42832889  0.10228067  1  0.100035  -9e-05  0.113874  0.084052  -8e-05  1.005115  0.0
H  H39  1  0.57167102  0.85516107  0.89771946  1  0.100266  -9e-05  0.113872  0.084062  -8e-05  1.005116  0.0
H  H40  1  0.15673675  0.43543225  0.28186272  1  0.085857  2.6e-05  0.107729  0.121605  7.2e-05  1.024611  0.0
H  H41  1  0.56456716  0.84326356  0.71813673  1  0.085856  2.6e-05  0.107734  0.121605  7.2e-05  1.024596  0.0
H  H42  1  0.08224573  0.66203780  0.73248382  1  0.105558  0.000357  0.10677  0.116512  0.000323  1.034825  0.0
H  H43  1  0.33796168  0.91775503  0.26751563  1  0.105588  0.000357  0.106773  0.11654  0.000323  1.034791  0.0
H  H44  1  0.10413132  0.83250351  0.66438696  1  0.092309  0.000303  0.103627  0.117134  0.000131  1.012538  0.0
H  H45  1  0.16749594  0.89586965  0.33561321  1  0.092315  0.000303  0.103642  0.117141  0.000131  1.012507  0.0
H  H46  1  0.08196905  0.01937985  0.67680109  1  0.102437  0.000379  0.100364  0.104072  0.000253  1.029276  0.0
H  H47  1  0.98062030  0.91803192  0.32319917  1  0.102427  0.000379  0.100363  0.104059  0.000253  1.029288  0.0
H  H48  1  0.93739164  0.98160299  0.94232986  1  0.089223  0.000354  0.105797  0.114392  0.000343  1.0426  0.0
H  H49  1  0.01839694  0.06260814  0.05767031  1  0.089605  0.000353  0.105809  0.114401  0.000343  1.042585  0.0
H  H50  1  0.91586986  0.81171400  0.01018913  1  0.079811  0.000327  0.104897  0.115317  0.000143  0.998217  0.0
H  H51  1  0.18828583  0.08413068  0.98981109  1  0.079812  0.000327  0.104888  0.115337  0.000143  0.998213  0.0
H  H52  1  0.94072276  0.62527951  0.99950884  1  0.078495  0.000382  0.103858  0.110029  0.00025  1.014551  0.0
H  H53  1  0.37472102  0.05927778  0.00049143  1  0.078504  0.000382  0.10387  0.110045  0.00025  1.014516  0.0
H  H54  1  0.35667994  0.40002217  0.73631729  1  0.074366  0.000304  0.105556  0.108677  0.000247  1.037363  0.0
H  H55  1  0.59997850  0.64332040  0.26368295  1  0.074362  0.000304  0.105553  0.108664  0.000247  1.037372  0.0
H  H56  1  0.52899524  0.43097883  0.67177137  1  0.068094  0.000349  0.105816  0.113073  0.000153  0.990347  0.0
H  H57  1  0.56902156  0.47100446  0.32822954  1  0.068091  0.000349  0.105831  0.113094  0.000153  0.990382  0.0
H  H58  1  0.71580322  0.40853928  0.68272941  1  0.096569  0.000371  0.105947  0.114336  0.000237  0.997176  0.0
H  H59  1  0.59146125  0.28419593  0.31726935  1  0.096651  0.000371  0.105955  0.114324  0.000237  0.997184  0.0
H  H60  1  0.67549007  0.24823418  0.93983021  1  0.099295  0.000336  0.106063  0.112239  0.00032  1.043542  0.0
H  H61  1  0.75176663  0.32451020  0.06016935  1  0.098887  0.000336  0.10606  0.112239  0.00032  1.043521  0.0
H  H62  1  0.50723621  0.22831627  0.00995601  1  0.073814  0.000318  0.10404  0.113342  0.00014  1.002742  0.0
H  H63  1  0.77168338  0.49276395  0.99004419  1  0.073824  0.000318  0.104032  0.113347  0.00014  1.002745  0.0
H  H64  1  0.32056927  0.25285985  0.00060183  1  0.090151  0.000402  0.103417  0.110314  0.00027  1.015843  0.0
H  H65  1  0.74713992  0.67943119  0.99939837  1  0.090149  0.000402  0.103421  0.110324  0.00027  1.015837  0.0
C  C66  1  0.27522115  0.59986032  0.79071898  1  0.525666  -0.000629  0.049609  0.105739  -0.000765  3.938202  0.0
C  C67  1  0.40013951  0.72477937  0.20928050  1  0.525612  -0.000629  0.049586  0.105688  -0.000765  3.938268  0.0
C  C68  1  0.27417413  0.59805230  0.88975846  1  -0.065302  0.000229  -0.082875  -0.17138  0.000112  3.926835  0.0
C  C69  1  0.40194793  0.72582591  0.11024244  1  -0.065362  0.000229  -0.08287  -0.171392  0.000112  3.926885  0.0
C  C70  1  0.31162707  0.68765124  0.94733681  1  0.024904  -0.000524  0.01482  0.110437  -0.000582  3.978826  0.0
C  C71  1  0.31234900  0.68837399  0.05266272  1  -0.03899  -0.000529  0.014857  0.110524  -0.000582  3.978801  0.0
C  C72  1  0.34828489  0.77622252  0.90209664  1  0.012779  0.00036  -0.080668  -0.174926  0.000224  3.930526  0.0
C  C73  1  0.22377823  0.65171547  0.09790358  1  0.012654  0.00036  -0.08066  -0.174925  0.000224  3.930595  0.0
C  C74  1  0.34445348  0.77165431  0.80252746  1  0.471845  -0.00053  0.0467  0.10145  -0.000619  3.950953  0.0
C  C75  1  0.22834566  0.65554651  0.19747270  1  0.471971  -0.00053  0.046705  0.10148  -0.000619  3.950947  0.0
C  C76  1  0.11472046  0.68107532  0.48194994  1  1.49215  -0.000925  0.210389  0.563098  -0.001527  4.178989  -0.004
C  C77  1  0.31892452  0.88527888  0.51804874  1  1.492181  -0.000925  0.21039  0.563109  -0.001527  4.178964  -0.004
C  C78  1  0.00160140  0.68691015  0.47240314  1  -0.022721  0.016425  -0.022481  -0.038155  0.011643  3.999853  0.013
C  C79  1  0.31309041  0.99839812  0.52759630  1  -0.022717  0.016425  -0.022456  -0.038157  0.011643  3.999853  0.013
C  C80  1  0.95568740  0.71739423  0.38600144  1  -0.020974  0.001084  -0.09086  -0.104839  0.000642  3.990958  0.001
C  C81  1  0.28260566  0.04431309  0.61399808  1  -0.020958  0.001084  -0.090834  -0.104787  0.000642  3.990889  0.001
C  C82  1  0.85237776  0.72808874  0.37840984  1  -0.100436  0.001769  -0.085616  -0.120125  0.00107  3.956972  0.001
C  C83  1  0.27191123  0.14762222  0.62159036  1  -0.100439  0.001769  -0.085626  -0.120141  0.00107  3.956988  0.001
C  C84  1  0.78978994  0.70679494  0.45599373  1  0.048445  4.2e-05  -0.00248  0.078759  -0.000206  3.987937  0.0
C  C85  1  0.29320572  0.21021031  0.54400580  1  0.048422  4.2e-05  -0.002489  0.078765  -0.000206  3.987957  0.0
C  C86  1  0.68319347  0.71523877  0.44970027  1  -0.079593  0.002267  -0.076043  -0.13474  0.001437  3.92002  0.001
C  C87  1  0.28476216  0.31680651  0.55030068  1  -0.07956  0.002267  -0.076057  -0.1348  0.001437  3.920076  0.001
C  C88  1  0.62355387  0.69148172  0.52546488  1  -0.017248  0.016277  -0.019065  -0.029448  0.011518  3.985489  0.013
C  C89  1  0.30851899  0.37644668  0.47453467  1  -0.017253  0.016277  -0.019074  -0.029395  0.011518  3.985463  0.013
C  C90  1  0.66923044  0.66093581  0.61200030  1  -0.007516  0.001626  -0.087879  -0.103528  0.001064  3.990646  0.001
C  C91  1  0.33906330  0.33077004  0.38799986  1  -0.007519  0.001626  -0.087925  -0.103654  0.001064  3.990632  0.001
C  C92  1  0.77295431  0.65221624  0.62020030  1  -0.037466  0.001118  -0.084181  -0.122012  0.000631  3.973418  0.001
C  C93  1  0.34778378  0.22704555  0.37979989  1  -0.037778  0.001118  -0.084174  -0.121973  0.000631  3.973393  0.001
C  C94  1  0.83557728  0.67391239  0.54269399  1  -0.050588  0.001013  -0.003637  0.077607  0.000549  3.996459  0.001
C  C95  1  0.32608805  0.16442319  0.45730626  1  -0.050278  0.001013  -0.003646  0.077563  0.000549  3.996481  0.001
C  C96  1  0.94202248  0.66500761  0.54865172  1  0.001338  5.6e-05  -0.076134  -0.132911  -0.000415  3.93137  0.0
C  C97  1  0.33499284  0.05797776  0.45134852  1  0.001345  5.6e-05  -0.076142  -0.132873  -0.000415  3.931403  0.0
C  C98  1  0.51021623  0.69597415  0.51556992  1  1.526124  -0.001663  0.211403  0.570282  -0.002204  4.171833  -0.004
C  C99  1  0.30402633  0.48978429  0.48443031  1  1.526133  -0.001663  0.211382  0.570229  -0.002204  4.171975  -0.004
C  C100  1  0.00836879  0.23430817  0.53749877  1  0.523262  -0.000503  0.046536  0.101085  -0.000605  3.9554  0.0
C  C101  1  0.76569100  0.99163044  0.46250202  1  0.523275  -0.000503  0.046532  0.101033  -0.000605  3.955323  0.0
C  C102  1  0.00679725  0.22888770  0.43807431  1  -0.097809  0.00011  -0.07978  -0.170415  6e-05  3.936766  0.0
C  C103  1  0.77111108  0.99320210  0.56192576  1  -0.097774  0.00011  -0.079767  -0.170385  6e-05  3.936673  0.0
C  C104  1  0.02519444  0.32042642  0.39144417  1  0.041739  -0.000505  0.015235  0.10789  -0.000558  3.983637  0.0
C  C105  1  0.67957322  0.97480460  0.60855664  1  0.041727  -0.000505  0.015209  0.107841  -0.000558  3.983717  0.0
C  C106  1  0.04471804  0.41349213  0.44815543  1  -0.084401  3.5e-05  -0.082144  -0.166876  -1.9e-05  3.92743  0.0
C  C107  1  0.58650673  0.95528182  0.55184538  1  -0.084847  3.5e-05  -0.082152  -0.166814  -1.9e-05  3.927428  0.0
C  C108  1  0.04413841  0.41195395  0.54719890  1  0.515343  -0.000553  0.049576  0.106032  -0.000691  3.933016  0.0
C  C109  1  0.58804541  0.95586180  0.45280124  1  0.515347  -0.000554  0.049593  0.106058  -0.000691  3.932956  0.0
C  C110  1  0.02310037  0.31942486  0.28616886  1  -0.121237  -0.000536  0.013602  0.109476  -0.000593  3.983742  0.0
C  C111  1  0.68057518  0.97689813  0.71383052  1  -0.121232  -0.000536  0.013553  0.109332  -0.000593  3.983907  0.0
C  C112  1  0.94767539  0.25388383  0.22890527  1  -0.0187  0.00029  -0.081932  -0.173924  0.000154  3.925448  0.0
C  C113  1  0.74611636  0.05232449  0.77109426  1  -0.018616  0.00029  -0.081888  -0.173841  0.000154  3.925369  0.0
C  C114  1  0.94680655  0.25599275  0.12978065  1  0.517219  -0.000748  0.047308  0.104922  -0.000911  3.946512  -0.001
C  C115  1  0.74400727  0.05319286  0.87021956  1  0.517237  -0.000748  0.047276  0.104861  -0.000911  3.946447  -0.001
C  C116  1  0.08921097  0.38046683  0.14081777  1  0.465168  -0.000618  0.048408  0.107532  -0.000709  3.947556  0.0
C  C117  1  0.61953290  0.91078856  0.85918164  1  0.46492  -0.000618  0.048395  0.107435  -0.000709  3.947627  0.0
C  C118  1  0.09540116  0.38430536  0.24036234  1  0.035692  0.000418  -0.08307  -0.179909  0.000265  3.934484  0.0
C  C119  1  0.61569460  0.90459843  0.75963852  1  0.035678  0.000418  -0.083041  -0.179798  0.000265  3.934451  0.0
C  C120  1  0.02111016  0.52056788  0.85537071  1  1.523579  -0.001487  0.209792  0.563778  -0.001981  4.183343  -0.004
C  C121  1  0.47943123  0.97888966  0.14463010  1  1.523522  -0.001487  0.209801  0.563757  -0.001981  4.183344  -0.004
C  C122  1  0.01148382  0.63299118  0.86395404  1  -0.048344  0.017688  -0.019996  -0.030124  0.012387  3.994018  0.014
C  C123  1  0.36700880  0.98851663  0.13604470  1  -0.048068  0.017687  -0.019964  -0.030033  0.012387  3.994061  0.014
C  C124  1  0.04533266  0.69481183  0.79259027  1  -0.00624  0.002421  -0.079287  -0.143182  0.001562  3.934828  0.002
C  C125  1  0.30518653  0.95466748  0.20741050  1  -0.006458  0.002422  -0.079279  -0.143233  0.001562  3.93483  0.002
C  C126  1  0.03374694  0.80066409  0.79719252  1  -0.054274  0.000657  -0.003609  0.080195  0.000242  3.991736  0.0
C  C127  1  0.19933650  0.96625405  0.20280699  1  -0.054311  0.000657  -0.003609  0.08019  0.000242  3.991739  0.0
C  C128  1  0.06755595  0.86570777  0.72468817  1  -0.007856  0.002423  -0.08752  -0.124127  0.001523  3.960928  0.002
C  C129  1  0.13429235  0.93244437  0.27531199  1  -0.007842  0.002424  -0.087509  -0.124092  0.001524  3.960866  0.002
C  C130  1  0.05548931  0.96870855  0.73152035  1  -0.08823  0.001054  -0.090814  -0.107509  0.000525  3.995921  0.001
C  C131  1  0.03129126  0.94451146  0.26847910  1  -0.088212  0.001054  -0.090824  -0.107513  0.000525  3.995982  0.001
C  C132  1  0.01065730  0.01160504  0.81194570  1  -0.044448  0.01778  -0.020424  -0.034268  0.012366  4.000314  0.014
C  C133  1  0.98839503  0.98934316  0.18805381  1  -0.044445  0.017781  -0.020424  -0.034273  0.012367  4.000362  0.014
C  C134  1  0.97453277  0.94930469  0.88217629  1  -0.033476  0.001598  -0.075915  -0.136015  0.000866  3.921223  0.001
C  C135  1  0.05069562  0.02546758  0.11782394  1  -0.033499  0.001599  -0.075919  -0.136002  0.000866  3.921207  0.001
C  C136  1  0.98531740  0.84322147  0.87696912  1  -0.003202  0.000803  -0.002329  0.080826  0.000373  3.98511  0.001
C  C137  1  0.15677838  0.01468382  0.12303114  1  -0.003247  0.000803  -0.002344  0.08084  0.000373  3.985149  0.001
C  C138  1  0.95206269  0.77827070  0.94972060  1  -0.009893  0.001992  -0.083095  -0.119038  0.001229  3.956041  0.001
C  C139  1  0.22172969  0.04793754  0.05027964  1  -0.009854  0.001992  -0.083099  -0.119135  0.001229  3.956108  0.001
C  C140  1  0.96573404  0.67558596  0.94398170  1  -0.045213  0.001266  -0.09072  -0.111243  0.000696  3.995604  0.001
C  C141  1  0.32441352  0.03426620  0.05601920  1  -0.045229  0.001265  -0.090737  -0.111239  0.000696  3.995704  0.001
C  C142  1  0.00662785  0.12495604  0.82224428  1  1.555978  -0.001484  0.211599  0.565598  -0.001828  4.175951  -0.004
C  C143  1  0.87504332  0.99337291  0.17775590  1  1.555988  -0.001484  0.211568  0.56558  -0.001828  4.176039  -0.004
C  C144  1  0.21451937  0.33072298  0.85700730  1  1.537962  -0.001461  0.211173  0.564898  -0.001903  4.181435  -0.004
C  C145  1  0.66927604  0.78548093  0.14299284  1  1.537971  -0.001461  0.211123  0.564767  -0.001903  4.181507  -0.004
C  C146  1  0.32776835  0.32567702  0.86620745  1  -0.054062  0.01809  -0.020355  -0.031881  0.012601  3.996273  0.014
C  C147  1  0.67432189  0.67223190  0.13379269  1  -0.054059  0.01809  -0.020342  -0.031841  0.0126  3.996238  0.014
C  C148  1  0.38975229  0.36302489  0.79616411  1  0.022198  0.001425  -0.076927  -0.138865  0.000745  3.930582  0.001
C  C149  1  0.63697505  0.61024738  0.20383606  1  0.022204  0.001425  -0.076927  -0.138845  0.000745  3.930572  0.001
C  C150  1  0.49605953  0.35348951  0.80095622  1  -0.023486  0.001045  -0.001326  0.080773  0.000536  3.99374  0.001
C  C151  1  0.64651078  0.50393987  0.19904396  1  -0.023496  0.001045  -0.001323  0.080806  0.000536  3.99379  0.001
C  C152  1  0.56183949  0.39172003  0.73053759  1  -0.063203  0.002037  -0.087327  -0.128165  0.001252  3.972578  0.001
C  C153  1  0.60828047  0.43816054  0.26946264  1  -0.063183  0.002037  -0.087346  -0.12823  0.001252  3.97267  0.001
C  C154  1  0.66483247  0.37936099  0.73627636  1  -0.029615  0.001268  -0.084911  -0.098469  0.000693  3.982846  0.001
C  C155  1  0.62063978  0.33516660  0.26372313  1  -0.029696  0.001268  -0.084943  -0.098475  0.000693  3.982977  0.001
C  C156  1  0.70650393  0.32834029  0.81335330  1  -0.025075  0.018259  -0.017022  -0.025736  0.012779  3.986519  0.014
C  C157  1  0.67165931  0.29349611  0.18664618  1  -0.025085  0.018259  -0.016974  -0.025616  0.012778  3.986596  0.014
C  C158  1  0.64386696  0.28935143  0.88214595  1  -0.053478  0.003001  -0.07833  -0.14216  0.001967  3.932873  0.002
C  C159  1  0.71064901  0.35613291  0.11785357  1  -0.053472  0.003001  -0.078375  -0.14225  0.001967  3.932916  0.002
C  C160  1  0.53827860  0.30171889  0.87860233  1  0.032465  0.000593  -0.002652  0.083672  0.000198  3.988427  0.0
C  C161  1  0.69828093  0.46172175  0.12139788  1  0.032515  0.000593  -0.002633  0.083672  0.000198  3.988481  0.0
C  C162  1  0.47351455  0.26596759  0.95058799  1  -0.055823  0.002746  -0.084777  -0.120473  0.001716  3.961057  0.002
C  C163  1  0.73403251  0.52648591  0.04941225  1  -0.055926  0.002746  -0.084754  -0.120448  0.001716  3.961073  0.002
C  C164  1  0.37078963  0.27907425  0.94544323  1  -0.031256  0.000891  -0.089085  -0.1049  0.000383  3.989396  0.001
C  C165  1  0.72092523  0.62921052  0.05455695  1  -0.031193  0.000891  -0.089095  -0.104935  0.000383  3.989396  0.001
C  C166  1  0.81892269  0.31902122  0.82201729  1  1.541979  -0.001731  0.210925  0.56481  -0.002192  4.173913  -0.004
C  C167  1  0.68097938  0.18107739  0.17798369  1  1.541985  -0.001731  0.210884  0.564695  -0.002192  4.174123  -0.004
N  N168  1  0.30916754  0.68514923  0.74740946  1  -1.227113  -0.001045  -0.335983  -0.245661  -0.000352  3.50028  0.0
N  N169  1  0.31485084  0.69083243  0.25259070  1  -1.227133  -0.001045  -0.335978  -0.245639  -0.000352  3.500245  0.0
N  N170  1  0.02605622  0.32404504  0.59161030  1  -1.214586  -0.001528  -0.334415  -0.241568  -0.000735  3.494833  0.0
N  N171  1  0.67595502  0.97394434  0.40838990  1  -1.214578  -0.001528  -0.334428  -0.241588  -0.000736  3.49481  0.0
N  N172  1  0.01610781  0.31799234  0.08605655  1  -1.213467  -0.001658  -0.337755  -0.243505  -0.000894  3.497321  0.0
N  N173  1  0.68200720  0.98389181  0.91394358  1  -1.21346  -0.001658  -0.33771  -0.243383  -0.000893  3.497273  0.0
O  O174  1  0.15494818  0.66915912  0.56526736  1  -1.108632  0.090756  -0.309546  -0.52183  0.057317  2.384264  0.083
O  O175  1  0.33084048  0.84505234  0.43473280  1  -1.108662  0.090749  -0.309543  -0.52183  0.057313  2.384371  0.083
O  O176  1  0.16343071  0.68953857  0.40598889  1  -1.109337  0.093298  -0.311939  -0.525021  0.059023  2.392612  0.085
O  O177  1  0.31046087  0.83656860  0.59401119  1  -1.109353  0.093303  -0.311948  -0.525023  0.059026  2.392561  0.085
O  O178  1  0.46802045  0.69284309  0.43048455  1  -1.107486  0.10143  -0.311774  -0.515549  0.064022  2.360751  0.092
O  O179  1  0.30715684  0.53198000  0.56951565  1  -1.107501  0.101428  -0.311754  -0.515519  0.06402  2.360802  0.092
O  O180  1  0.46365601  0.70082971  0.59277040  1  -1.104557  0.092358  -0.314335  -0.527661  0.0582  2.364755  0.084
O  O181  1  0.29917043  0.53634393  0.40722978  1  -1.104552  0.092362  -0.314332  -0.527649  0.058202  2.364766  0.084
O  O182  1  0.02669447  0.47984776  0.77090453  1  -1.101535  0.100451  -0.31051  -0.513305  0.063471  2.371087  0.091
O  O183  1  0.52015166  0.97330567  0.22909631  1  -1.101577  0.100452  -0.310523  -0.513313  0.063472  2.371089  0.091
O  O184  1  0.02162037  0.47363289  0.93253254  1  -1.111524  0.090756  -0.313852  -0.527419  0.057362  2.3644  0.083
O  O185  1  0.52636709  0.97837974  0.06746762  1  -1.111499  0.090758  -0.31389  -0.527461  0.057364  2.364372  0.083
O  O186  1  0.01224854  0.17367716  0.74619901  1  -1.12823  0.087927  -0.312379  -0.529269  0.055666  2.395067  0.08
O  O187  1  0.82632349  0.98775358  0.25380061  1  -1.128193  0.087924  -0.312345  -0.529266  0.055664  2.39514  0.08
O  O188  1  0.00009511  0.16521813  0.90669991  1  -1.10662  0.097012  -0.309274  -0.516068  0.061267  2.368893  0.088
O  O189  1  0.83478218  0.99990274  0.09329945  1  -1.106622  0.097011  -0.309275  -0.516072  0.061266  2.36889  0.088
O  O190  1  0.17412883  0.33858835  0.77279115  1  -1.117292  0.092972  -0.310556  -0.523594  0.058723  2.386452  0.085
O  O191  1  0.66141142  0.82587251  0.22720909  1  -1.117288  0.092973  -0.310537  -0.523551  0.058723  2.386439  0.085
O  O192  1  0.16619723  0.32521942  0.93321095  1  -1.117659  0.089515  -0.313333  -0.524239  0.056897  2.365712  0.081
O  O193  1  0.67477973  0.83380299  0.06678848  1  -1.117702  0.089515  -0.313315  -0.524172  0.056897  2.365665  0.081
O  O194  1  0.86626109  0.31970275  0.74526690  1  -1.111591  0.094316  -0.311794  -0.513347  0.059588  2.339497  0.086
O  O195  1  0.68029641  0.13373856  0.25473255  1  -1.111605  0.09431  -0.311756  -0.513277  0.059584  2.339617  0.086
O  O196  1  0.85927700  0.31236877  0.90666324  1  -1.109712  0.099016  -0.312359  -0.520829  0.06254  2.367048  0.09
O  O197  1  0.68763122  0.14072318  0.09333557  1  -1.109704  0.099022  -0.312368  -0.520816  0.062544  2.367129  0.09
