# generated using pymatgen
data_ZnH10C10NO5F2
_symmetry_space_group_name_H-M   'P 1'
_cell_length_a   9.92604078
_cell_length_b   11.39377019
_cell_length_c   11.39398912
_cell_angle_alpha   94.86090271
_cell_angle_beta   90.84173091
_cell_angle_gamma   90.81992422
_symmetry_Int_Tables_number   1
_chemical_formula_structural   ZnH10C10NO5F2
_chemical_formula_sum   'Zn2 H20 C20 N2 O10 F4'
_cell_volume   1283.67382712
_cell_formula_units_Z   2
loop_
 _symmetry_equiv_pos_site_id
 _symmetry_equiv_pos_as_xyz
  1  'x, y, z'
loop_
 _atom_site_type_symbol
 _atom_site_label
 _atom_site_symmetry_multiplicity
 _atom_site_fract_x
 _atom_site_fract_y
 _atom_site_fract_z
 _atom_site_occupancy
 _atom_site_pbe_bader_charge
 _atom_site_pbe_bader_spin_density
 _atom_site_pbe_cm5_charge
 _atom_site_pbe_ddec_charge
 _atom_site_pbe_ddec_spin_density
 _atom_site_pbe_ddec_sum_bond_order
 _atom_site_pbe_magmom
Zn  Zn0  1  0.63873305  0.52404093  0.52331454  1  1.295687  0  0.671123  0.807055  0  2.426688  0
Zn  Zn1  1  0.36133658  0.47671594  0.47590960  1  1.294802  0  0.671012  0.806984  0  2.42693  0
H  H2  1  0.67520255  0.11926218  0.46939407  1  0.139411  0  0.115908  0.156606  0  0.989719  0
H  H3  1  0.11788733  0.57496990  0.56497808  1  0.183131  0  0.140279  0.125916  0  0.989718  0
H  H4  1  0.88220583  0.43498840  0.42508174  1  0.183457  0  0.140253  0.125705  0  0.989961  0
H  H5  1  0.84476728  0.70869628  0.80829073  1  0.064011  0  0.112186  0.087714  0  0.949828  0
H  H6  1  0.71053139  0.67572662  0.70452849  1  0.109132  0  0.108325  0.088616  0  1.026947  0
H  H7  1  0.95273331  0.84064001  0.67005574  1  -0.010395  0  0.090734  0.083762  0  0.972814  0
H  H8  1  0.81958265  0.80741344  0.56605405  1  0.06846  0  0.092298  0.092975  0  0.992671  0
H  H9  1  0.65254980  0.89946746  0.70734960  1  0.046473  0  0.083671  0.113498  0  1.013098  0
H  H10  1  0.78298631  0.00217889  0.68231239  1  0.021053  0  0.088395  0.118284  0  1.000075  0
H  H11  1  0.78220392  0.93129962  0.81514335  1  0.018765  0  0.084724  0.107954  0  1.002292  0
H  H12  1  0.30935255  0.87792762  0.50724795  1  0.150676  0  0.116934  0.158084  0  0.987024  0
H  H13  1  0.15521329  0.19170999  0.29128353  1  0.064282  0  0.112255  0.087819  0  0.949973  0
H  H14  1  0.28951479  0.29537491  0.32432208  1  0.108472  0  0.108496  0.088789  0  1.027059  0
H  H15  1  0.04731599  0.33009019  0.15942596  1  -0.010396  0  0.090742  0.083693  0  0.973038  0
H  H16  1  0.18052258  0.43399835  0.19270232  1  0.068033  0  0.092256  0.09278  0  0.993051  0
H  H17  1  0.34746635  0.29262007  0.10059609  1  0.046251  0  0.08354  0.113395  0  1.01312  0
H  H18  1  0.21702435  0.31780059  0.99790530  1  0.021364  0  0.088428  0.118224  0  1.000285  0
H  H19  1  0.21772520  0.18493326  0.06870835  1  0.019752  0  0.084718  0.10787  0  1.002455  0
H  H20  1  0.32485175  0.53063432  0.88065651  1  0.090718  0  0.115907  0.156641  0  0.989962  0
H  H21  1  0.69066874  0.49268437  0.12214268  1  0.151455  0  0.116835  0.157879  0  0.987376  0
C  C22  1  0.45248978  0.51119214  0.72450849  1  1.583173  0  0.208157  0.660269  0  4.16691  0
C  C23  1  0.92813903  0.49129155  0.49720621  1  0.54735  0  0.064782  0.022706  0  3.916696  0
C  C24  1  0.07194665  0.50282270  0.50870525  1  0.611577  0  0.064968  0.022882  0  3.916799  0
C  C25  1  0.41330353  0.85064837  0.49588167  1  0.047147  0  -0.102897  -0.341726  0  3.886924  0
C  C26  1  0.57118928  0.14702365  0.47863186  1  0.073435  0  -0.104677  -0.345246  0  3.881546  0
C  C27  1  0.58671879  0.50410323  0.14937329  1  0.045764  0  -0.102744  -0.341339  0  3.887267  0
C  C28  1  0.42886576  0.52136371  0.85294048  1  0.123208  0  -0.104493  -0.34476  0  3.88117  0
C  C29  1  0.56029948  0.50260944  0.27696549  1  1.59747  0  0.210072  0.661827  0  4.164207  0
C  C30  1  0.50489920  0.93554970  0.47883061  1  0.436986  0  0.101552  0.209949  0  4.108091  0
C  C31  1  0.47696637  0.06109177  0.48282589  1  0.43645  0  0.103899  0.219764  0  4.095041  0
C  C32  1  0.49514296  0.52118571  0.06443152  1  0.437432  0  0.101774  0.210338  0  4.108315  0
C  C33  1  0.52308367  0.51716948  0.93890802  1  0.436592  0  0.103816  0.219314  0  4.094778  0
C  C34  1  0.81659920  0.70385121  0.71435560  1  0.351935  0  -0.064042  -0.005495  0  3.85544  0
C  C35  1  0.54759963  0.27546861  0.48880886  1  1.5835  0  0.208018  0.660387  0  4.167776  0
C  C36  1  0.84438130  0.81906585  0.66075618  1  0.008234  0  -0.172163  -0.141372  0  3.994336  0
C  C37  1  0.76093181  0.91851555  0.71984506  1  -0.059831  0  -0.243108  -0.345782  0  3.970474  0
C  C38  1  0.18343967  0.28562764  0.29618452  1  0.352407  0  -0.06436  -0.006173  0  3.856555  0
C  C39  1  0.15567262  0.33931298  0.18100534  1  0.010154  0  -0.172052  -0.140737  0  3.994466  0
C  C40  1  0.23907299  0.28020977  0.08154525  1  -0.062514  0  -0.243059  -0.345677  0  3.970721  0
C  C41  1  0.43968656  0.72303599  0.49738132  1  1.597603  0  0.210208  0.662248  0  4.163814  0
N  N42  1  0.15645237  0.43596542  0.44944082  1  -0.62064  0  -0.202055  -0.053456  0  3.393603  0
N  N43  1  0.84361755  0.55055041  0.56405706  1  -0.620373  0  -0.201984  -0.053439  0  3.39317  0
O  O44  1  0.57401524  0.50816994  0.68951847  1  -1.161828  0  -0.31964  -0.553822  0  2.348693  0
O  O45  1  0.66161114  0.52949357  0.34469707  1  -1.147251  0  -0.320076  -0.542768  0  2.266153  0
O  O46  1  0.65295298  0.34114667  0.49371361  1  -1.165662  0  -0.319001  -0.546376  0  2.256252  0
O  O47  1  0.33838322  0.65533583  0.47047277  1  -1.147381  0  -0.320141  -0.542961  0  2.266203  0
O  O48  1  0.34713167  0.50631475  0.65878658  1  -1.164868  0  -0.319064  -0.546385  0  2.256267  0
O  O49  1  0.90117224  0.61023909  0.66247046  1  -0.635697  0  -0.075281  -0.079523  0  2.416771  0
O  O50  1  0.09891288  0.33752109  0.38980874  1  -0.635689  0  -0.07525  -0.079455  0  2.416987  0
O  O51  1  0.44285124  0.47339883  0.30848110  1  -1.161722  0  -0.312492  -0.551242  0  2.318335  0
O  O52  1  0.42606474  0.31049742  0.49181119  1  -1.161071  0  -0.319483  -0.553685  0  2.349346  0
O  O53  1  0.55714079  0.69147452  0.52662509  1  -1.161626  0  -0.312588  -0.551483  0  2.31825  0
F  F54  1  0.34427181  0.08389961  0.49607450  1  -0.624221  0  -0.082375  -0.105693  0  1.374772  0
F  F55  1  0.63586345  0.91111791  0.45681241  1  -0.62509  0  -0.075261  -0.102644  0  1.392199  0
F  F56  1  0.65577845  0.50389082  0.91613938  1  -0.624627  0  -0.082553  -0.105766  0  1.374559  0
F  F57  1  0.36418196  0.54325378  0.08881359  1  -0.624922  0  -0.075429  -0.102918  0  1.392196  0
