# generated using pymatgen
data_Dy2U3H26(C3O4)10
_symmetry_space_group_name_H-M   'P 1'
_cell_length_a   10.51780214
_cell_length_b   11.40741663
_cell_length_c   13.37884845
_cell_angle_alpha   68.34564220
_cell_angle_beta   78.23936932
_cell_angle_gamma   63.90144766
_symmetry_Int_Tables_number   1
_chemical_formula_structural   Dy2U3H26(C3O4)10
_chemical_formula_sum   'Dy2 U3 H26 C30 O40'
_cell_volume   1338.14760285
_cell_formula_units_Z   1
loop_
 _symmetry_equiv_pos_site_id
 _symmetry_equiv_pos_as_xyz
  1  'x, y, z'
loop_
 _atom_site_type_symbol
 _atom_site_label
 _atom_site_symmetry_multiplicity
 _atom_site_fract_x
 _atom_site_fract_y
 _atom_site_fract_z
 _atom_site_occupancy
 _atom_site_pbe_bader_charge
 _atom_site_pbe_bader_spin_density
 _atom_site_pbe_cm5_charge
 _atom_site_pbe_ddec_charge
 _atom_site_pbe_ddec_spin_density
 _atom_site_pbe_ddec_sum_bond_order
 _atom_site_pbe_magmom
Dy  Dy0  1  0.58855288  0.24016778  0.74676713  1  2.209701  0  1.527152  2.153394  0  2.057777  0
Dy  Dy1  1  0.41144674  0.75983291  0.25323896  1  2.209839  0  1.527143  2.153438  0  2.057718  0
U  U2  1  0.62207929  0.71348339  0.83861401  1  2.923559  0  2.193118  2.444208  0  4.796807  0
U  U3  1  0.37791840  0.28651730  0.16139089  1  2.924161  0  2.193232  2.444465  0  4.796319  0
U  U4  1  0.99999857  0.49999569  0.49998856  1  2.891035  0  2.152093  2.402158  0  4.746786  0
H  H5  1  0.09513960  0.36747141  0.96816203  1  0.144041  0  0.121174  0.137266  0  1.00467  0
H  H6  1  0.90484926  0.63252715  0.03184419  1  0.144128  0  0.121164  0.137313  0  1.004576  0
H  H7  1  0.15293875  0.10675435  0.72438376  1  0.094501  0  0.114096  0.12352  0  1.001439  0
H  H8  1  0.84707082  0.89327133  0.27559505  1  0.094705  0  0.114121  0.1237  0  1.001289  0
H  H9  1  0.72751539  0.00231468  0.40526333  1  0.092995  0  0.118933  0.12827  0  0.97892  0
H  H10  1  0.27249091  0.99767480  0.59473097  1  0.093124  0  0.118961  0.128206  0  0.979012  0
H  H11  1  0.66403650  0.20911155  0.53250212  1  0.651437  0  0.295771  0.396289  0  0.945292  0
H  H12  1  0.33596798  0.79087988  0.46750532  1  0.651259  0  0.295705  0.396185  0  0.945478  0
H  H13  1  0.71852291  0.05818020  0.62067734  1  0.639229  0  0.332324  0.4296  0  0.858054  0
H  H14  1  0.28148468  0.94181537  0.37933206  1  0.639243  0  0.332338  0.429608  0  0.858065  0
H  H15  1  0.53772038  0.51881122  0.58639520  1  0.642644  0  0.309188  0.406702  0  0.921698  0
H  H16  1  0.46228247  0.48118642  0.41360833  1  0.642565  0  0.30918  0.406673  0  0.921726  0
H  H17  1  0.70464694  0.42575956  0.59683528  1  0.658745  0  0.311125  0.407326  0  0.923989  0
H  H18  1  0.29535635  0.57422781  0.40316389  1  0.658746  0  0.31105  0.407207  0  0.924156  0
H  H19  1  0.30268269  0.47062594  0.66966978  1  0.642201  0  0.347014  0.445109  0  0.830244  0
H  H20  1  0.69734153  0.52939257  0.33031714  1  0.641908  0  0.346984  0.444869  0  0.830336  0
H  H21  1  0.33099814  0.37183123  0.60446206  1  0.642892  0  0.316792  0.415297  0  0.903461  0
H  H22  1  0.66898857  0.62817244  0.39554815  1  0.643111  0  0.316749  0.415262  0  0.903546  0
H  H23  1  0.49719560  0.51669596  0.78231924  1  0.667475  0  0.309835  0.408879  0  0.916423  0
H  H24  1  0.50281026  0.48330373  0.21768766  1  0.667438  0  0.309828  0.408897  0  0.916395  0
H  H25  1  0.48462002  0.40957326  0.89661817  1  0.65606  0  0.317087  0.43073  0  0.879584  0
H  H26  1  0.51537627  0.59042844  0.10338739  1  0.656129  0  0.31713  0.430813  0  0.879482  0
H  H27  1  0.74047460  0.93242620  0.87135331  1  0.655531  0  0.310349  0.411198  0  0.919055  0
H  H28  1  0.25952223  0.06757652  0.12865484  1  0.655792  0  0.310376  0.411264  0  0.918975  0
H  H29  1  0.83960616  0.01326594  0.85513452  1  0.627691  0  0.335008  0.425857  0  0.858986  0
H  H30  1  0.16039433  0.98673269  0.14487207  1  0.627755  0  0.334984  0.425883  0  0.858953  0
C  C31  1  0.99404361  0.34273053  0.85751856  1  -0.040742  0  0.000165  -0.033556  0  3.937245  0
C  C32  1  0.00595041  0.65727430  0.14247966  1  -0.041009  0  0.00028  -0.033604  0  3.937227  0
C  C33  1  0.10902284  0.31049735  0.91399255  1  0.029512  0  -0.057532  -0.080667  0  3.884349  0
C  C34  1  0.89097011  0.68950539  0.08600948  1  0.029593  0  -0.057536  -0.080664  0  3.884315  0
C  C35  1  0.24269622  0.21219529  0.89711841  1  -0.00244  0  -0.004802  -0.0816  0  3.962141  0
C  C36  1  0.75729877  0.78780952  0.10288265  1  -0.002855  0  -0.004771  -0.081559  0  3.962065  0
C  C37  1  0.25961905  0.14159349  0.82497399  1  -0.003967  0  0.01313  -0.011116  0  3.902009  0
C  C38  1  0.74038249  0.85841657  0.17502066  1  -0.003785  0  0.013011  -0.01126  0  3.902048  0
C  C39  1  0.14071402  0.16488685  0.77697311  1  -0.011182  0  -0.071972  -0.126515  0  3.927445  0
C  C40  1  0.85929267  0.83512949  0.22301280  1  -0.012125  0  -0.071928  -0.126699  0  3.927242  0
C  C41  1  0.00854347  0.26686342  0.79042787  1  0.000786  0  0.016842  -0.021348  0  3.912237  0
C  C42  1  0.99145796  0.73314460  0.20956369  1  0.001704  0  0.016738  -0.021284  0  3.912145  0
C  C43  1  0.62677525  0.00277122  0.44661148  1  0.040183  0  -0.064219  -0.104707  0  3.917818  0
C  C44  1  0.37322965  0.99721926  0.55338497  1  0.039838  0  -0.064275  -0.104744  0  3.917937  0
C  C45  1  0.61620209  0.87619747  0.50077472  1  -0.004268  0  0.007384  -0.013112  0  3.918418  0
C  C46  1  0.38380507  0.12378995  0.49922158  1  -0.004102  0  0.007411  -0.012932  0  3.918069  0
C  C47  1  0.48781948  0.87295899  0.55562670  1  -0.038517  0  0.006402  -0.059363  0  3.948414  0
C  C48  1  0.51218509  0.12703460  0.44436885  1  -0.038453  0  0.0064  -0.05957  0  3.948438  0
C  C49  1  0.86149598  0.46419452  0.86154577  1  1.527573  0  0.213372  0.575377  0  4.181693  0
C  C50  1  0.13849536  0.53580511  0.13845673  1  1.527515  0  0.213376  0.57541  0  4.181776  0
C  C51  1  0.36060781  0.18843575  0.95812658  1  1.580578  0  0.254875  0.654377  0  4.110088  0
C  C52  1  0.63938374  0.81156800  0.04187685  1  1.581063  0  0.254898  0.654403  0  4.109909  0
C  C53  1  0.40111193  0.04226207  0.79504791  1  1.61304  0  0.241349  0.643522  0  4.155767  0
C  C54  1  0.59888801  0.95774486  0.20495096  1  1.613343  0  0.241477  0.643699  0  4.155382  0
C  C55  1  0.88671904  0.29420981  0.73008133  1  1.62613  0  0.257112  0.67542  0  4.105297  0
C  C56  1  0.11328208  0.70579199  0.26991446  1  1.625941  0  0.257056  0.675387  0  4.105474  0
C  C57  1  0.46859333  0.74138497  0.62039873  1  1.596282  0  0.248744  0.630377  0  4.142175  0
C  C58  1  0.53141007  0.25860442  0.37960503  1  1.596083  0  0.248678  0.630296  0  4.142383  0
C  C59  1  0.74289034  0.74885351  0.49632792  1  1.531742  0  0.214725  0.567894  0  4.205855  0
C  C60  1  0.25711326  0.25114009  0.50366554  1  1.531415  0  0.214572  0.56779  0  4.206025  0
O  O61  1  0.53424457  0.63131849  0.95707425  1  -0.885064  0  -0.745756  -0.708091  0  1.848499  0
O  O62  1  0.46574934  0.36868425  0.04292837  1  -0.885388  0  -0.745843  -0.708241  0  1.848357  0
O  O63  1  0.71304277  0.79610768  0.72484434  1  -0.853746  0  -0.755525  -0.688312  0  1.811866  0
O  O64  1  0.28695955  0.20388890  0.27516259  1  -0.853874  0  -0.755549  -0.688358  0  1.811736  0
O  O65  1  0.05497467  0.50977754  0.61506150  1  -0.85693  0  -0.762425  -0.692714  0  1.840426  0
O  O66  1  0.94502472  0.49021920  0.38491968  1  -0.856783  0  -0.762412  -0.692679  0  1.840697  0
O  O67  1  0.85014433  0.54176758  0.91467896  1  -1.132075  0  -0.342145  -0.577178  0  2.168615  0
O  O68  1  0.14984283  0.45822579  0.08533064  1  -1.132009  0  -0.34212  -0.577232  0  2.168684  0
O  O69  1  0.75831319  0.49619264  0.80599504  1  -1.125255  0  -0.337157  -0.572132  0  2.272583  0
O  O70  1  0.24168233  0.50381324  0.19400261  1  -1.125149  0  -0.337168  -0.57213  0  2.272584  0
O  O71  1  0.80311114  0.23635679  0.77881186  1  -1.182863  0  -0.373  -0.642603  0  2.258729  0
O  O72  1  0.19688966  0.76364805  0.22119200  1  -1.182966  0  -0.372963  -0.642588  0  2.258879  0
O  O73  1  0.87882808  0.36740016  0.63059779  1  -1.163213  0  -0.343515  -0.607216  0  2.353438  0
O  O74  1  0.12117348  0.63259137  0.36939514  1  -1.163255  0  -0.343517  -0.607223  0  2.353465  0
O  O75  1  0.41267139  0.91892043  0.81699157  1  -1.15863  0  -0.365717  -0.623372  0  2.260145  0
O  O76  1  0.58733048  0.08108649  0.18300998  1  -1.159086  0  -0.365804  -0.623494  0  2.260035  0
O  O77  1  0.49700147  0.08420061  0.74800484  1  -1.183581  0  -0.365674  -0.648714  0  2.332538  0
O  O78  1  0.50300062  0.91580118  0.25199304  1  -1.183519  0  -0.365707  -0.648778  0  2.332338  0
O  O79  1  0.48231835  0.17438387  0.91632503  1  -1.179714  0  -0.364373  -0.625344  0  2.315272  0
O  O80  1  0.51767180  0.82562089  0.08367980  1  -1.179925  0  -0.364368  -0.625353  0  2.315296  0
O  O81  1  0.32721402  0.18543189  0.05766169  1  -1.175038  0  -0.369168  -0.635955  0  2.363885  0
O  O82  1  0.67277850  0.81457187  0.94234159  1  -1.175041  0  -0.369194  -0.635998  0  2.363893  0
O  O83  1  0.50303036  0.68657731  0.71908103  1  -1.173352  0  -0.354164  -0.618057  0  2.329302  0
O  O84  1  0.49697013  0.31342134  0.28092331  1  -1.173254  0  -0.3542  -0.618045  0  2.329126  0
O  O85  1  0.41319044  0.69334080  0.57885055  1  -1.157094  0  -0.280636  -0.51493  0  2.183071  0
O  O86  1  0.58681092  0.30664650  0.42115643  1  -1.157231  0  -0.280588  -0.514902  0  2.183279  0
O  O87  1  0.72881139  0.63571894  0.51640686  1  -1.159755  0  -0.327578  -0.605603  0  2.26445  0
O  O88  1  0.27118736  0.36427467  0.48357989  1  -1.159542  0  -0.327423  -0.605437  0  2.264692  0
O  O89  1  0.86444653  0.75255850  0.47028983  1  -1.12908  0  -0.328089  -0.561127  0  2.219771  0
O  O90  1  0.13555890  0.24743310  0.52969648  1  -1.128865  0  -0.328088  -0.561145  0  2.219741  0
O  O91  1  0.70648200  0.15287750  0.60508906  1  -1.256416  0  -0.649349  -0.846488  0  2.030852  0
O  O92  1  0.29352656  0.84711809  0.39491719  1  -1.256338  0  -0.649286  -0.846386  0  2.031001  0
O  O93  1  0.61047280  0.42382053  0.59993097  1  -1.270794  0  -0.654323  -0.849022  0  2.090399  0
O  O94  1  0.38952554  0.57617397  0.40007500  1  -1.270799  0  -0.654246  -0.848922  0  2.090486  0
O  O95  1  0.36271351  0.37853712  0.66591641  1  -1.244245  0  -0.621948  -0.845518  0  2.063508  0
O  O96  1  0.63727998  0.62146662  0.33408970  1  -1.244182  0  -0.621889  -0.845191  0  2.063596  0
O  O97  1  0.48979821  0.42671534  0.81810338  1  -1.302375  0  -0.638179  -0.873954  0  2.026129  0
O  O98  1  0.51020389  0.57328640  0.18190199  1  -1.302385  0  -0.638215  -0.874093  0  2.026012  0
O  O99  1  0.75999482  0.01505101  0.82754721  1  -1.249686  0  -0.631837  -0.843293  0  2.064988  0
O  O100  1  0.24000061  0.98495271  0.17246309  1  -1.250019  0  -0.631828  -0.843415  0  2.064896  0
