# generated using pymatgen
data_ZnH22C32(N2O)2
_symmetry_space_group_name_H-M   'P 1'
_cell_length_a   9.76270805
_cell_length_b   11.76151135
_cell_length_c   14.66700000
_cell_angle_alpha   90.00000000
_cell_angle_beta   106.86025362
_cell_angle_gamma   90.00000000
_symmetry_Int_Tables_number   1
_chemical_formula_structural   ZnH22C32(N2O)2
_chemical_formula_sum   'Zn2 H44 C64 N8 O4'
_cell_volume   1611.73441001
_cell_formula_units_Z   2
loop_
 _symmetry_equiv_pos_site_id
 _symmetry_equiv_pos_as_xyz
  1  'x, y, z'
loop_
 _atom_site_type_symbol
 _atom_site_label
 _atom_site_symmetry_multiplicity
 _atom_site_fract_x
 _atom_site_fract_y
 _atom_site_fract_z
 _atom_site_occupancy
 _atom_site_hle17_bader_spin_density
 _atom_site_hle17_ddec_charge
 _atom_site_hle17_ddec_spin_density
 _atom_site_hle17_ddec_sum_bond_order
 _atom_site_hle17_magmom
 _atom_site_hse06_10hf_bader_spin_density
 _atom_site_hse06_10hf_ddec_charge
 _atom_site_hse06_10hf_ddec_spin_density
 _atom_site_hse06_10hf_ddec_sum_bond_order
 _atom_site_hse06_10hf_magmom
 _atom_site_hse06_bader_spin_density
 _atom_site_hse06_ddec_charge
 _atom_site_hse06_ddec_spin_density
 _atom_site_hse06_ddec_sum_bond_order
 _atom_site_hse06_magmom
 _atom_site_pbe_bader_charge
 _atom_site_pbe_bader_spin_density
 _atom_site_pbe_cm5_charge
 _atom_site_pbe_ddec_charge
 _atom_site_pbe_ddec_spin_density
 _atom_site_pbe_ddec_sum_bond_order
 _atom_site_pbe_magmom
Zn  Zn0  1  0.50000438  0.50000037  0.00000016  1  0  0.895712  0  1.960632  0  0  0.697248  0  2.412693  0  0  0.744497  0  2.368517  0  1.260458  0  0.660257  0.664926  0  2.442147  0
Zn  Zn1  1  0.50000010  0.99999904  0.50000138  1  0  0.895773  0  1.960609  0  0  0.697341  0  2.412657  0  0  0.744585  0  2.368477  0  1.260424  0  0.660294  0.665023  0  2.442109  0
H  H2  1  0.02494793  0.43130426  0.12199165  1  0  0.100402  0  0.956805  0  0  0.112719  0  1.014893  0  0  0.115745  0  1.014087  0  0.039919  0  0.103646  0.110331  0  1.016057  0
H  H3  1  0.97505333  0.93129783  0.37801064  1  0  0.100386  0  0.956843  0  0  0.112713  0  1.014938  0  0  0.115738  0  1.014135  0  0.039542  0  0.103656  0.110342  0  1.01608  0
H  H4  1  0.97505975  0.56869902  0.87800642  1  0  0.100341  0  0.956789  0  0  0.112668  0  1.01487  0  0  0.115693  0  1.014068  0  0.039476  0  0.103613  0.110309  0  1.015999  0
H  H5  1  0.02494472  0.06869865  0.62199308  1  0  0.100378  0  0.956768  0  0  0.1127  0  1.014865  0  0  0.115727  0  1.014058  0  0.03998  0  0.103635  0.110324  0  1.016014  0
H  H6  1  0.49210011  0.92924622  0.29263183  1  0  0.079276  0  0.939724  0  0  0.088915  0  1.002372  0  0  0.091379  0  1.000237  0  0.093214  0  0.115806  0.087134  0  1.003836  0
H  H7  1  0.50790436  0.42924245  0.20736767  1  0  0.079206  0  0.939767  0  0  0.088868  0  1.002378  0  0  0.091315  0  1.000279  0  0.093312  0  0.115787  0.087111  0  1.003819  0
H  H8  1  0.50790115  0.07075791  0.70736910  1  0  0.07925  0  0.939656  0  0  0.088883  0  1.002309  0  0  0.091347  0  1.000177  0  0.09336  0  0.115779  0.087102  0  1.003774  0
H  H9  1  0.49209904  0.57075488  0.79262957  1  0  0.079292  0  0.93969  0  0  0.088931  0  1.002319  0  0  0.091391  0  1.000199  0  0.093198  0  0.115808  0.087149  0  1.003784  0
H  H10  1  0.95117036  0.26307588  0.01770068  1  0  0.086531  0  0.954978  0  0  0.100347  0  1.014043  0  0  0.10296  0  1.012055  0  0.053749  0  0.103873  0.098771  0  1.014877  0
H  H11  1  0.04882555  0.76306945  0.48230330  1  0  0.08651  0  0.954904  0  0  0.10038  0  1.013933  0  0  0.102981  0  1.011948  0  0.053635  0  0.103877  0.098803  0  1.014767  0
H  H12  1  0.04883305  0.73692825  0.98229929  1  0  0.086581  0  0.955006  0  0  0.10043  0  1.014032  0  0  0.103032  0  1.012046  0  0.053659  0  0.103906  0.098857  0  1.014859  0
H  H13  1  0.95117143  0.23692788  0.51770089  1  0  0.086548  0  0.954915  0  0  0.100361  0  1.013987  0  0  0.102991  0  1.01198  0  0.053723  0  0.103889  0.098785  0  1.014823  0
H  H14  1  0.36416235  0.60002153  0.13027596  1  0  0.119746  0  1.011494  0  0  0.125967  0  1.079946  0  0  0.131012  0  1.075689  0  0.151935  0  0.108542  0.122751  0  1.082255  0
H  H15  1  0.63583571  0.10001606  0.36972434  1  0  0.119709  0  1.011627  0  0  0.125949  0  1.08006  0  0  0.130992  0  1.075804  0  0.152057  0  0.108581  0.122734  0  1.082364  0
H  H16  1  0.63584534  0.39998346  0.86972348  1  0  0.119751  0  1.01153  0  0  0.125963  0  1.08  0  0  0.131005  0  1.075747  0  0.151967  0  0.108524  0.122749  0  1.082305  0
H  H17  1  0.36415914  0.89998043  0.63027671  1  0  0.119706  0  1.011535  0  0  0.125955  0  1.079974  0  0  0.130997  0  1.075721  0  0.152043  0  0.108523  0.122739  0  1.082281  0
H  H18  1  0.26170767  0.82216135  0.47261546  1  0  0.070178  0  0.95952  0  0  0.077629  0  1.029411  0  0  0.079766  0  1.027316  0  0.08144  0  0.111445  0.076332  0  1.030536  0
H  H19  1  0.73829145  0.32215418  0.02738505  1  0  0.070218  0  0.959457  0  0  0.077674  0  1.029343  0  0  0.07981  0  1.027249  0  0.081371  0  0.111431  0.076364  0  1.030481  0
H  H20  1  0.73829145  0.17783769  0.52738573  1  0  0.070196  0  0.95956  0  0  0.077657  0  1.029439  0  0  0.079793  0  1.027346  0  0.08144  0  0.111455  0.076355  0  1.030569  0
H  H21  1  0.26170981  0.67783466  0.97261315  1  0  0.070244  0  0.959495  0  0  0.077695  0  1.029387  0  0  0.079833  0  1.027289  0  0.081486  0  0.111468  0.076396  0  1.030515  0
H  H22  1  0.10065441  0.57506810  0.20540117  1  0  0.08653  0  0.954897  0  0  0.100294  0  1.012613  0  0  0.103561  0  1.010387  0  0.058686  0  0.101791  0.098045  0  1.013948  0
H  H23  1  0.89934364  0.07506093  0.29459913  1  0  0.086565  0  0.954802  0  0  0.100305  0  1.012565  0  0  0.103569  0  1.010335  0  0.058702  0  0.101775  0.098054  0  1.013905  0
H  H24  1  0.89935007  0.42493263  0.79459696  1  0  0.086547  0  0.954909  0  0  0.100282  0  1.012678  0  0  0.103542  0  1.010446  0  0.058625  0  0.1018  0.098035  0  1.01401  0
H  H25  1  0.10065120  0.92493215  0.70540260  1  0  0.086518  0  0.954876  0  0  0.100255  0  1.012631  0  0  0.103522  0  1.010408  0  0.058618  0  0.101767  0.09801  0  1.013957  0
H  H26  1  0.99261289  0.13425656  0.89145721  1  0  0.091282  0  0.958808  0  0  0.10215  0  1.018675  0  0  0.105297  0  1.018567  0  0.046769  0  0.092238  0.099825  0  1.018887  0
H  H27  1  0.00737981  0.63424672  0.60854547  1  0  0.09124  0  0.958838  0  0  0.102145  0  1.018665  0  0  0.105293  0  1.018559  0  0.047028  0  0.092227  0.099813  0  1.018884  0
H  H28  1  0.00738837  0.86575268  0.10853826  1  0  0.091271  0  0.958691  0  0  0.102135  0  1.01858  0  0  0.105282  0  1.018474  0  0.047029  0  0.092228  0.099791  0  1.018813  0
H  H29  1  0.99261503  0.36574806  0.39145831  1  0  0.091283  0  0.958741  0  0  0.102154  0  1.018614  0  0  0.105302  0  1.018507  0  0.047094  0  0.092253  0.099826  0  1.018829  0
H  H30  1  0.35859244  0.19632256  0.78905543  1  0  0.10199  0  0.969337  0  0  0.112285  0  1.032202  0  0  0.115023  0  1.032255  0  0.061642  0  0.094035  0.110138  0  1.032747  0
H  H31  1  0.64140348  0.69632038  0.71094378  1  0  0.101976  0  0.96944  0  0  0.112261  0  1.032323  0  0  0.114998  0  1.032377  0  0.061564  0  0.094016  0.110115  0  1.032867  0
H  H32  1  0.64140990  0.80368243  0.21094297  1  0  0.102056  0  0.969289  0  0  0.112356  0  1.032146  0  0  0.115094  0  1.032196  0  0.061701  0  0.094058  0.110209  0  1.032692  0
H  H33  1  0.35859137  0.30367781  0.28905659  1  0  0.102002  0  0.969365  0  0  0.11229  0  1.032238  0  0  0.115029  0  1.032286  0  0.061647  0  0.094023  0.110141  0  1.032782  0
H  H34  1  0.39258238  0.77463854  0.17591877  1  0  0.11724  0  0.9536  0  0  0.127545  0  1.011166  0  0  0.131632  0  1.009169  0  0.095997  0  0.110028  0.124477  0  1.012957  0
H  H35  1  0.60741889  0.27463562  0.32408148  1  0  0.117216  0  0.953588  0  0  0.127542  0  1.011131  0  0  0.131632  0  1.009127  0  0.096009  0  0.110038  0.124475  0  1.01292  0
H  H36  1  0.60741889  0.22536644  0.82408011  1  0  0.117242  0  0.953637  0  0  0.127544  0  1.011209  0  0  0.131632  0  1.009207  0  0.096102  0  0.110026  0.124476  0  1.013  0
H  H37  1  0.39258238  0.72536596  0.67592081  1  0  0.117254  0  0.953619  0  0  0.12756  0  1.011178  0  0  0.13165  0  1.009176  0  0.09611  0  0.110049  0.124494  0  1.012968  0
H  H38  1  0.14235703  0.66728839  0.36033902  1  0  0.104815  0  0.941581  0  0  0.117681  0  0.995896  0  0  0.121198  0  0.994759  0  0.076716  0  0.108029  0.115276  0  0.996681  0
H  H39  1  0.85763674  0.16728037  0.13965841  1  0  0.104803  0  0.941638  0  0  0.117718  0  0.995894  0  0  0.121236  0  0.994755  0  0.076683  0  0.107993  0.115307  0  0.996681  0
H  H40  1  0.85764209  0.33271234  0.63965808  1  0  0.104786  0  0.941614  0  0  0.117649  0  0.995931  0  0  0.121167  0  0.994793  0  0.076717  0  0.107989  0.115243  0  0.996715  0
H  H41  1  0.14235596  0.83270846  0.86034086  1  0  0.104787  0  0.941634  0  0  0.117659  0  0.995937  0  0  0.121176  0  0.9948  0  0.076732  0  0.108004  0.115253  0  0.996721  0
H  H42  1  0.14378162  0.08497377  0.78608279  1  0  0.06964  0  0.985077  0  0  0.081506  0  1.048109  0  0  0.08336  0  1.046829  0  0.065151  0  0.089353  0.080225  0  1.048882  0
H  H43  1  0.85620680  0.58496649  0.71391770  1  0  0.069602  0  0.98496  0  0  0.081501  0  1.047969  0  0  0.083355  0  1.046689  0  0.064931  0  0.089345  0.080219  0  1.048747  0
H  H44  1  0.85621751  0.91503546  0.21391227  1  0  0.069594  0  0.985021  0  0  0.081514  0  1.048012  0  0  0.083368  0  1.046732  0  0.064967  0  0.089348  0.080235  0  1.048785  0
H  H45  1  0.14378483  0.41503000  0.28608477  1  0  0.069645  0  0.985057  0  0  0.081525  0  1.048079  0  0  0.083379  0  1.046799  0  0.065135  0  0.089371  0.080247  0  1.048848  0
C  C46  1  0.34199081  0.31115729  0.89945507  1  0  0.301874  0  3.894362  0  0  0.286921  0  4.15317  0  0  0.302613  0  4.170364  0  0.706242  0  0.081657  0.276502  0  4.140825  0
C  C47  1  0.65800618  0.81115681  0.60054980  1  0  0.301894  0  3.894484  0  0  0.287094  0  4.153072  0  0  0.302788  0  4.170261  0  0.706064  0  0.081745  0.276675  0  4.140728  0
C  C48  1  0.65801581  0.68884770  0.10054416  1  0  0.301788  0  3.894315  0  0  0.286915  0  4.15304  0  0  0.302612  0  4.170228  0  0.706572  0  0.081642  0.276498  0  4.140699  0
C  C49  1  0.34199081  0.18884053  0.39945507  1  0  0.301879  0  3.894422  0  0  0.286921  0  4.15327  0  0  0.302612  0  4.170461  0  0.706221  0  0.081655  0.276501  0  4.140925  0
C  C50  1  0.29589455  0.21871849  0.83694438  1  0  -0.226084  0  3.762046  0  0  -0.244881  0  4.014499  0  0  -0.25585  0  4.0378  0  -0.059189  0  -0.127093  -0.237853  0  3.999225  0
C  C51  1  0.70410029  0.71871546  0.66305735  1  0  -0.226174  0  3.762221  0  0  -0.245015  0  4.014634  0  0  -0.255984  0  4.037931  0  -0.059051  0  -0.127093  -0.237983  0  3.999357  0
C  C52  1  0.70411314  0.78128395  0.16305847  1  0  -0.226343  0  3.762076  0  0  -0.245166  0  4.014541  0  0  -0.256134  0  4.037834  0  -0.059151  0  -0.127192  -0.23814  0  3.999273  0
C  C53  1  0.29589134  0.28127933  0.33694103  1  0  -0.226117  0  3.762105  0  0  -0.244896  0  4.014549  0  0  -0.255866  0  4.03785  0  -0.059216  0  -0.127038  -0.237864  0  3.999271  0
C  C54  1  0.17294016  0.15654111  0.83511900  1  0  -0.035573  0  3.866618  0  0  -0.051762  0  4.123766  0  0  -0.048889  0  4.147862  0  -0.067955  0  -0.101463  -0.05358  0  4.107188  0
C  C55  1  0.82705147  0.65653382  0.66488074  1  0  -0.035273  0  3.866336  0  0  -0.051483  0  4.123499  0  0  -0.048608  0  4.147593  0  -0.067491  0  -0.101393  -0.053304  0  4.106919  0
C  C56  1  0.82706217  0.84346643  0.16487872  1  0  -0.035301  0  3.866493  0  0  -0.051524  0  4.12362  0  0  -0.04865  0  4.147721  0  -0.067944  0  -0.101396  -0.053344  0  4.107035  0
C  C57  1  0.17294444  0.34346266  0.33512120  1  0  -0.035455  0  3.866511  0  0  -0.051658  0  4.12367  0  0  -0.048786  0  4.147767  0  -0.068025  0  -0.101453  -0.053478  0  4.107089  0
C  C58  1  0.08858234  0.18298924  0.89387647  1  0  -0.189067  0  3.826423  0  0  -0.213459  0  4.085367  0  0  -0.222823  0  4.111371  0  -0.029562  0  -0.128686  -0.206771  0  4.067169  0
C  C59  1  0.91140822  0.68298110  0.60612307  1  0  -0.189289  0  3.826608  0  0  -0.213742  0  4.085586  0  0  -0.223109  0  4.111592  0  -0.027594  0  -0.128785  -0.207045  0  4.067395  0
C  C60  1  0.91141785  0.81701830  0.10611879  1  0  -0.18922  0  3.826492  0  0  -0.213625  0  4.085458  0  0  -0.222994  0  4.111469  0  -0.030166  0  -0.128703  -0.206917  0  4.067271  0
C  C61  1  0.08858556  0.31701453  0.39387777  1  0  -0.189229  0  3.826312  0  0  -0.213638  0  4.085272  0  0  -0.223005  0  4.111277  0  -0.029989  0  -0.128775  -0.206947  0  4.067079  0
C  C62  1  0.12738227  0.27580639  0.95665648  1  0  0.040449  0  3.846357  0  0  0.058355  0  4.074919  0  0  0.05924  0  4.100047  0  -0.063095  0  -0.014158  0.057613  0  4.057619  0
C  C63  1  0.87261150  0.77579911  0.54334368  1  0  0.040461  0  3.846637  0  0  0.058403  0  4.075158  0  0  0.059291  0  4.100283  0  -0.065756  0  -0.014122  0.057657  0  4.057858  0
C  C64  1  0.87262006  0.72420115  0.04333852  1  0  0.040676  0  3.846303  0  0  0.05862  0  4.074851  0  0  0.059507  0  4.099974  0  -0.062802  0  -0.014005  0.057868  0  4.057557  0
C  C65  1  0.12738334  0.22419653  0.45665873  1  0  0.0405  0  3.846296  0  0  0.05846  0  4.074799  0  0  0.05935  0  4.099928  0  -0.062839  0  -0.014125  0.057718  0  4.057499  0
C  C66  1  0.25282514  0.34129372  0.96005860  1  0  0.08622  0  3.717543  0  0  0.085101  0  3.949383  0  0  0.084074  0  3.973037  0  0.461816  0  0.095748  0.085719  0  3.933444  0
C  C67  1  0.74717398  0.84129154  0.53994327  1  0  0.086194  0  3.71769  0  0  0.085053  0  3.949436  0  0  0.084024  0  3.973093  0  0.461961  0  0.09573  0.085673  0  3.933497  0
C  C68  1  0.74717933  0.65871466  0.03993749  1  0  0.086335  0  3.717497  0  0  0.085125  0  3.949404  0  0  0.084097  0  3.973059  0  0.461805  0  0.095708  0.085746  0  3.93347  0
C  C69  1  0.25282407  0.15870920  0.46006181  1  0  0.086172  0  3.71761  0  0  0.085013  0  3.949525  0  0  0.083984  0  3.97318  0  0.461745  0  0.095718  0.085632  0  3.933586  0
C  C70  1  0.04705847  0.31079339  0.01821701  1  0  -0.061403  0  3.754683  0  0  -0.085069  0  4.005115  0  0  -0.083025  0  4.022349  0  0.003666  0  -0.07567  -0.086096  0  3.992744  0
C  C71  1  0.95292888  0.81078441  0.48177987  1  0  -0.061298  0  3.754556  0  0  -0.085032  0  4.004981  0  0  -0.082976  0  4.022222  0  0.004189  0  -0.075704  -0.086056  0  3.992616  0
C  C72  1  0.95294387  0.68921160  0.98177867  1  0  -0.061536  0  3.754624  0  0  -0.08525  0  4.005061  0  0  -0.083193  0  4.022299  0  0.003981  0  -0.075803  -0.086272  0  3.992703  0
C  C73  1  0.04705954  0.18920953  0.51821858  1  0  -0.061416  0  3.754538  0  0  -0.085083  0  4.004954  0  0  -0.083058  0  4.022182  0  0.003978  0  -0.075714  -0.086112  0  3.992589  0
C  C74  1  0.08824948  0.40358334  0.07602466  1  0  -0.154719  0  3.744477  0  0  -0.174339  0  3.997423  0  0  -0.180303  0  4.018365  0  -0.060923  0  -0.09105  -0.17052  0  3.983846  0
C  C75  1  0.91174536  0.90357860  0.42397707  1  0  -0.154744  0  3.744445  0  0  -0.174371  0  3.997436  0  0  -0.18034  0  4.01837  0  -0.060729  0  -0.091032  -0.170565  0  3.983847  0
C  C76  1  0.91175714  0.59641910  0.92397457  1  0  -0.154721  0  3.744309  0  0  -0.174326  0  3.997259  0  0  -0.180293  0  4.018192  0  -0.060914  0  -0.09102  -0.170531  0  3.983668  0
C  C77  1  0.08824948  0.09641788  0.57602466  1  0  -0.154751  0  3.744385  0  0  -0.174366  0  3.997324  0  0  -0.180334  0  4.018271  0  -0.06133  0  -0.091049  -0.170556  0  3.983741  0
C  C78  1  0.21382506  0.46492239  0.07538137  1  0  0.237231  0  3.801462  0  0  0.236257  0  4.050483  0  0  0.244636  0  4.069254  0  0.539217  0  0.108464  0.230665  0  4.038159  0
C  C79  1  0.78617299  0.96491851  0.42462099  1  0  0.237302  0  3.801526  0  0  0.236303  0  4.050581  0  0  0.244695  0  4.069327  0  0.539315  0  0.108464  0.230711  0  4.038257  0
C  C80  1  0.78617941  0.53508174  0.92461813  1  0  0.237296  0  3.801747  0  0  0.23629  0  4.050758  0  0  0.244678  0  4.069514  0  0.539206  0  0.108465  0.230697  0  4.03844  0
C  C81  1  0.21382292  0.03507797  0.57538163  1  0  0.23734  0  3.801507  0  0  0.236362  0  4.050541  0  0  0.244748  0  4.069299  0  0.539275  0  0.108481  0.230769  0  4.038219  0
C  C82  1  0.26348225  0.56351686  0.13518619  1  0  -0.149061  0  3.726672  0  0  -0.173052  0  3.987842  0  0  -0.175458  0  4.004117  0  -0.03257  0  -0.089462  -0.171791  0  3.976416  0
C  C83  1  0.73651794  0.06350970  0.36481453  1  0  -0.149036  0  3.726805  0  0  -0.173037  0  3.987984  0  0  -0.175444  0  4.004253  0  -0.0326  0  -0.089543  -0.171772  0  3.976551  0
C  C84  1  0.73652329  0.43648982  0.86481216  1  0  -0.148973  0  3.726683  0  0  -0.172934  0  3.987827  0  0  -0.175341  0  4.004098  0  -0.032628  0  -0.089423  -0.171671  0  3.976394  0
C  C85  1  0.26347797  0.93648594  0.63518672  1  0  -0.149066  0  3.726734  0  0  -0.173064  0  3.987871  0  0  -0.175472  0  4.004148  0  -0.03257  0  -0.089456  -0.171801  0  3.976439  0
C  C86  1  0.19964769  0.61041730  0.19682719  1  0  -0.106789  0  3.732098  0  0  -0.128439  0  3.98875  0  0  -0.130089  0  4.007066  0  -0.093957  0  -0.088405  -0.12654  0  3.975205  0
C  C87  1  0.80034929  0.11040843  0.30317154  1  0  -0.106786  0  3.732027  0  0  -0.128454  0  3.988692  0  0  -0.130098  0  4.007002  0  -0.094142  0  -0.088357  -0.126554  0  3.975148  0
C  C88  1  0.80035678  0.38958599  0.80317231  1  0  -0.106853  0  3.732139  0  0  -0.128545  0  3.988807  0  0  -0.130181  0  4.007107  0  -0.09378  0  -0.088459  -0.126646  0  3.975264  0
C  C89  1  0.19964662  0.88958465  0.69682767  1  0  -0.10672  0  3.732116  0  0  -0.128376  0  3.988748  0  0  -0.130029  0  4.007065  0  -0.093947  0  -0.088369  -0.126476  0  3.975205  0
C  C90  1  0.25921919  0.70578004  0.25873217  1  0  0.144828  0  3.80863  0  0  0.160728  0  4.037291  0  0  0.166124  0  4.060134  0  0.033964  0  0.0083  0.157083  0  4.021622  0
C  C91  1  0.74077672  0.20577117  0.24126500  1  0  0.144758  0  3.808916  0  0  0.160711  0  4.037508  0  0  0.166107  0  4.06036  0  0.033825  0  0.008332  0.157066  0  4.021838  0
C  C92  1  0.74078207  0.29422324  0.74126671  1  0  0.14479  0  3.808993  0  0  0.160787  0  4.037503  0  0  0.166179  0  4.060359  0  0.033977  0  0.008336  0.157142  0  4.021833  0
C  C93  1  0.25921919  0.79422191  0.75873421  1  0  0.144704  0  3.808922  0  0  0.160673  0  4.03748  0  0  0.166073  0  4.060316  0  0.033967  0  0.008299  0.157026  0  4.021812  0
C  C94  1  0.35899059  0.78247172  0.24032954  1  0  -0.169081  0  3.685489  0  0  -0.182668  0  3.922412  0  0  -0.19004  0  3.941299  0  -0.064072  0  -0.082876  -0.178121  0  3.910538  0
C  C95  1  0.64101174  0.28246625  0.25967023  1  0  -0.169044  0  3.685776  0  0  -0.182674  0  3.92266  0  0  -0.190046  0  3.941543  0  -0.064382  0  -0.082925  -0.17813  0  3.910793  0
C  C96  1  0.64100960  0.21753327  0.75967049  1  0  -0.169128  0  3.685813  0  0  -0.182741  0  3.92268  0  0  -0.190114  0  3.94157  0  -0.06419  0  -0.082935  -0.178195  0  3.910806  0
C  C97  1  0.35898738  0.71753023  0.74032892  1  0  -0.169064  0  3.685732  0  0  -0.182671  0  3.922604  0  0  -0.190045  0  3.941491  0  -0.0642  0  -0.082928  -0.178126  0  3.91073  0
C  C98  1  0.41569472  0.86802620  0.30545678  1  0  0.128653  0  3.719782  0  0  0.097511  0  3.972098  0  0  0.105302  0  3.988173  0  0.4931  0  0.045062  0.092345  0  3.961398  0
C  C99  1  0.58430975  0.36802073  0.19454613  1  0  0.128712  0  3.719961  0  0  0.097562  0  3.972239  0  0  0.105356  0  3.98834  0  0.493587  0  0.045094  0.092377  0  3.961536  0
C  C100  1  0.58430547  0.13197794  0.69454326  1  0  0.128708  0  3.719853  0  0  0.097581  0  3.972158  0  0  0.105373  0  3.988236  0  0.49304  0  0.045137  0.092416  0  3.961457  0
C  C101  1  0.41569472  0.63197575  0.80545473  1  0  0.128574  0  3.719909  0  0  0.09745  0  3.972199  0  0  0.105237  0  3.988291  0  0.493135  0  0.045066  0.092286  0  3.961498  0
C  C102  1  0.28537872  0.80935432  0.40508536  1  0  0.128483  0  3.733954  0  0  0.09818  0  3.986559  0  0  0.105886  0  4.003669  0  0.47721  0  0.042869  0.093201  0  3.974897  0
C  C103  1  0.71461826  0.30934970  0.09491406  1  0  0.128393  0  3.733844  0  0  0.098055  0  3.986481  0  0  0.105763  0  4.003588  0  0.477236  0  0.042794  0.093085  0  3.97482  0
C  C104  1  0.71462147  0.19064642  0.59491400  1  0  0.128466  0  3.733955  0  0  0.098134  0  3.986601  0  0  0.105841  0  4.003708  0  0.477201  0  0.042837  0.093158  0  3.974939  0
C  C105  1  0.28537979  0.69064253  0.90508352  1  0  0.128305  0  3.733978  0  0  0.097988  0  3.98662  0  0  0.105697  0  4.003727  0  0.477086  0  0.042816  0.09301  0  3.974958  0
C  C106  1  0.22025550  0.72326334  0.34284903  1  0  -0.176285  0  3.715006  0  0  -0.191768  0  3.956017  0  0  -0.199912  0  3.97666  0  -0.073719  0  -0.086499  -0.186634  0  3.942216  0
C  C107  1  0.77974362  0.22325702  0.15714876  1  0  -0.17621  0  3.714945  0  0  -0.19175  0  3.95594  0  0  -0.199893  0  3.976581  0  -0.073285  0  -0.086394  -0.186608  0  3.94213  0
C  C108  1  0.77974576  0.27673824  0.65715054  1  0  -0.176205  0  3.715082  0  0  -0.191703  0  3.956063  0  0  -0.199845  0  3.976706  0  -0.073771  0  -0.086424  -0.186566  0  3.942259  0
C  C109  1  0.22025550  0.77673691  0.84284971  1  0  -0.176171  0  3.715088  0  0  -0.191675  0  3.956077  0  0  -0.19982  0  3.976719  0  -0.073862  0  -0.086473  -0.18654  0  3.942276  0
N  N110  1  0.29294048  0.43241892  0.01847198  1  0  -0.368015  0  3.199388  0  0  -0.307137  0  3.459475  0  0  -0.321673  0  3.475389  0  -1.225672  0  -0.308134  -0.297219  0  3.448622  0
N  N111  1  0.70705864  0.93241588  0.48153058  1  0  -0.368082  0  3.199595  0  0  -0.307214  0  3.459706  0  0  -0.321753  0  3.475609  0  -1.225771  0  -0.308158  -0.297297  0  3.448851  0
N  N112  1  0.70706613  0.56758777  0.98152657  1  0  -0.368218  0  3.199735  0  0  -0.307302  0  3.45985  0  0  -0.321839  0  3.475757  0  -1.225482  0  -0.308155  -0.297384  0  3.448996  0
N  N113  1  0.29293727  0.06758400  0.51847273  1  0  -0.368023  0  3.19951  0  0  -0.307182  0  3.459675  0  0  -0.321716  0  3.475578  0  -1.225626  0  -0.308123  -0.297263  0  3.448819  0
N  N114  1  0.38192634  0.88098372  0.38756783  1  0  -0.303978  0  3.253062  0  0  -0.232367  0  3.518213  0  0  -0.248276  0  3.533606  0  -1.222265  0  -0.319779  -0.221937  0  3.507668  0
N  N115  1  0.61807493  0.38097995  0.11243514  1  0  -0.303987  0  3.253207  0  0  -0.232336  0  3.518325  0  0  -0.248243  0  3.533714  0  -1.222653  0  -0.31977  -0.221907  0  3.507787  0
N  N116  1  0.61807386  0.11901702  0.61243357  1  0  -0.303975  0  3.253108  0  0  -0.232359  0  3.518265  0  0  -0.24827  0  3.533658  0  -1.222246  0  -0.31978  -0.22193  0  3.507718  0
N  N117  1  0.38192848  0.61901398  0.88756551  1  0  -0.303821  0  3.253111  0  0  -0.232221  0  3.51826  0  0  -0.248131  0  3.533657  0  -1.222081  0  -0.319733  -0.221793  0  3.507712  0
O  O118  1  0.45805130  0.36820523  0.90381671  1  0  -0.603174  0  2.124209  0  0  -0.533766  0  2.384523  0  0  -0.564709  0  2.380867  0  -1.177704  0  -0.337723  -0.511835  0  2.385364  0
O  O119  1  0.54194889  0.86820560  0.59618673  1  0  -0.603118  0  2.124347  0  0  -0.533802  0  2.384612  0  0  -0.564743  0  2.380949  0  -1.177798  0  -0.337754  -0.511874  0  2.385459  0
O  O120  1  0.54195745  0.63179806  0.09618225  1  0  -0.603049  0  2.124199  0  0  -0.533703  0  2.384545  0  0  -0.564652  0  2.380892  0  -1.177924  0  -0.337688  -0.51176  0  2.385358  0
O  O121  1  0.45805023  0.13179344  0.40381855  1  0  -0.603178  0  2.124309  0  0  -0.53378  0  2.38464  0  0  -0.564724  0  2.380982  0  -1.177713  0  -0.337754  -0.511848  0  2.385478  0
