# generated using pymatgen
data_CdH16C22(NO3)2
_symmetry_space_group_name_H-M   'P 1'
_cell_length_a   8.10602530
_cell_length_b   10.90797908
_cell_length_c   11.97685614
_cell_angle_alpha   66.05938252
_cell_angle_beta   85.10504483
_cell_angle_gamma   90.27756666
_symmetry_Int_Tables_number   1
_chemical_formula_structural   CdH16C22(NO3)2
_chemical_formula_sum   'Cd2 H32 C44 N4 O12'
_cell_volume   963.45223852
_cell_formula_units_Z   2
loop_
 _symmetry_equiv_pos_site_id
 _symmetry_equiv_pos_as_xyz
  1  'x, y, z'
loop_
 _atom_site_type_symbol
 _atom_site_label
 _atom_site_symmetry_multiplicity
 _atom_site_fract_x
 _atom_site_fract_y
 _atom_site_fract_z
 _atom_site_occupancy
 _atom_site_hle17_bader_spin_density
 _atom_site_hle17_ddec_charge
 _atom_site_hle17_ddec_spin_density
 _atom_site_hle17_ddec_sum_bond_order
 _atom_site_hle17_magmom
 _atom_site_hse06_10hf_bader_spin_density
 _atom_site_hse06_10hf_ddec_charge
 _atom_site_hse06_10hf_ddec_spin_density
 _atom_site_hse06_10hf_ddec_sum_bond_order
 _atom_site_hse06_10hf_magmom
 _atom_site_hse06_bader_spin_density
 _atom_site_hse06_ddec_charge
 _atom_site_hse06_ddec_spin_density
 _atom_site_hse06_ddec_sum_bond_order
 _atom_site_hse06_magmom
 _atom_site_pbe_bader_spin_density
 _atom_site_pbe_cm5_charge
 _atom_site_pbe_ddec_charge
 _atom_site_pbe_ddec_spin_density
 _atom_site_pbe_ddec_sum_bond_order
 _atom_site_pbe_magmom
Cd  Cd0  1  0.52779425  0.09685182  0.82904623  1  0  1.123863  0  1.703515  0  0  0.921195  0  2.154769  0  0  0.982367  0  2.100637  0  0  0.779415  0.877895  0  2.191514  0
Cd  Cd1  1  0.47217307  0.90314253  0.17094298  1  0  1.12383  0  1.703424  0  0  0.921196  0  2.154582  0  0  0.982367  0  2.100458  0  0  0.779416  0.877894  0  2.191316  0
H  H2  1  0.17019706  0.33990485  0.18429835  1  0  0.37884  0  0.909673  0  0  0.351978  0  0.985774  0  0  0.36271  0  0.973261  0  0  0.299192  0.344403  0  0.994469  0
H  H3  1  0.82981011  0.66008875  0.81571957  1  0  0.37898  0  0.909396  0  0  0.352049  0  0.985672  0  0  0.362793  0  0.973121  0  0  0.29917  0.34446  0  0.994398  0
H  H4  1  0.85039888  0.87922669  0.78391825  1  0  0.38209  0  0.924169  0  0  0.352147  0  1.001747  0  0  0.364058  0  0.989069  0  0  0.292442  0.343777  0  1.010512  0
H  H5  1  0.14958844  0.12076781  0.21609138  1  0  0.382064  0  0.924219  0  0  0.351987  0  1.00203  0  0  0.36389  0  0.989372  0  0  0.292369  0.343615  0  1.0108  0
H  H6  1  0.27806172  0.23838353  0.96688389  1  0  0.086034  0  0.942983  0  0  0.094097  0  1.00749  0  0  0.096536  0  1.005137  0  0  0.118279  0.092215  0  1.009322  0
H  H7  1  0.72191350  0.76161990  0.03310647  1  0  0.086102  0  0.943112  0  0  0.094102  0  1.007652  0  0  0.096536  0  1.005314  0  0  0.118293  0.092226  0  1.009474  0
H  H8  1  0.08695280  0.43196203  0.91207511  1  0  0.116592  0  0.950731  0  0  0.123904  0  1.013237  0  0  0.127437  0  1.011869  0  0  0.112598  0.12118  0  1.014732  0
H  H9  1  0.91303519  0.56804948  0.08791062  1  0  0.116609  0  0.950726  0  0  0.123905  0  1.01321  0  0  0.127439  0  1.01184  0  0  0.1126  0.121189  0  1.014707  0
H  H10  1  0.05144129  0.56742956  0.69129644  1  0  0.104563  0  0.932641  0  0  0.11716  0  0.990419  0  0  0.11988  0  0.988672  0  0  0.112965  0.115124  0  0.991775  0
H  H11  1  0.94857722  0.43259814  0.30868639  1  0  0.104626  0  0.93267  0  0  0.117283  0  0.990371  0  0  0.120003  0  0.988623  0  0  0.112961  0.11525  0  0.991729  0
H  H12  1  0.12841781  0.61105189  0.46871326  1  0  0.106776  0  0.94851  0  0  0.116448  0  1.011532  0  0  0.119231  0  1.010993  0  0  0.105363  0.114449  0  1.01202  0
H  H13  1  0.87161304  0.38897486  0.53127000  1  0  0.10676  0  0.948595  0  0  0.116429  0  1.011641  0  0  0.119187  0  1.01117  0  0  0.105338  0.114444  0  1.012092  0
H  H14  1  0.27835797  0.54616430  0.31597432  1  0  0.11844  0  0.934115  0  0  0.129274  0  0.99395  0  0  0.132511  0  0.992248  0  0  0.110721  0.127024  0  0.995062  0
H  H15  1  0.72167510  0.45385644  0.68401354  1  0  0.118429  0  0.934051  0  0  0.129318  0  0.993807  0  0  0.132539  0  0.992125  0  0  0.110755  0.127083  0  0.994904  0
H  H16  1  0.47169754  0.38999891  0.26749136  1  0  0.09579  0  0.977882  0  0  0.106804  0  1.039248  0  0  0.108644  0  1.039351  0  0  0.10504  0.105524  0  1.039101  0
H  H17  1  0.52833525  0.61001581  0.73249959  1  0  0.095769  0  0.977864  0  0  0.106721  0  1.039282  0  0  0.1086  0  1.03934  0  0  0.105027  0.105447  0  1.039115  0
H  H18  1  0.63830945  0.18426799  0.34301732  1  0  0.12888  0  0.950257  0  0  0.136307  0  1.009014  0  0  0.140253  0  1.007474  0  0  0.11133  0.133442  0  1.010265  0
H  H19  1  0.36169643  0.81572756  0.65698242  1  0  0.128887  0  0.9503  0  0  0.136308  0  1.009089  0  0  0.140254  0  1.007551  0  0  0.111289  0.133439  0  1.010335  0
H  H20  1  0.65761803  0.06380284  0.57031753  1  0  0.076177  0  0.94022  0  0  0.083504  0  1.005799  0  0  0.085137  0  1.005167  0  0  0.116346  0.082114  0  1.006821  0
H  H21  1  0.34234877  0.93617850  0.42968824  1  0  0.076139  0  0.940329  0  0  0.083422  0  1.005961  0  0  0.085052  0  1.005333  0  0  0.116335  0.082038  0  1.006976  0
H  H22  1  0.15775180  0.69540637  0.94370082  1  0  0.115804  0  0.913129  0  0  0.129983  0  0.970705  0  0  0.133002  0  0.968313  0  0  0.10351  0.127699  0  0.972644  0
H  H23  1  0.84223554  0.30456401  0.05630942  1  0  0.115669  0  0.913259  0  0  0.129877  0  0.970814  0  0  0.132877  0  0.968444  0  0  0.103391  0.127593  0  0.972754  0
H  H24  1  0.22011707  0.69295284  0.08329244  1  0  0.12272  0  0.932826  0  0  0.133641  0  0.997098  0  0  0.1366  0  0.995405  0  0  0.102823  0.131714  0  0.998134  0
H  H25  1  0.77987759  0.30704166  0.91670672  1  0  0.122592  0  0.932908  0  0  0.13353  0  0.997165  0  0  0.136492  0  0.995469  0  0  0.102801  0.13161  0  0.99819  0
H  H26  1  0.57890196  0.73776891  0.86700005  1  0  0.115245  0  0.962679  0  0  0.126086  0  1.023484  0  0  0.129472  0  1.021569  0  0  0.104717  0.123592  0  1.024989  0
H  H27  1  0.42109652  0.26222663  0.13300433  1  0  0.115301  0  0.962687  0  0  0.126133  0  1.023516  0  0  0.129514  0  1.0216  0  0  0.104735  0.123638  0  1.02502  0
H  H28  1  0.10101243  0.18277874  0.66303557  1  0  0.104593  0  0.962489  0  0  0.116609  0  1.025516  0  0  0.118559  0  1.025816  0  0  0.095138  0.115231  0  1.025382  0
H  H29  1  0.89898728  0.81721286  0.33699108  1  0  0.104547  0  0.962507  0  0  0.116605  0  1.025548  0  0  0.118553  0  1.025855  0  0  0.095147  0.115231  0  1.025416  0
H  H30  1  0.10677335  0.01185789  0.76759523  1  0  0.134566  0  0.94177  0  0  0.146084  0  1.00205  0  0  0.149299  0  0.999883  0  0  0.105379  0.143752  0  1.003659  0
H  H31  1  0.89320678  0.98813667  0.23244071  1  0  0.134552  0  0.941982  0  0  0.146192  0  1.002131  0  0  0.149409  0  0.999964  0  0  0.105479  0.143863  0  1.003738  0
H  H32  1  0.11076350  0.22894600  0.45491500  1  0  0.104406  0  0.969827  0  0  0.113621  0  1.036748  0  0  0.11675  0  1.03569  0  0  0.095816  0.111474  0  1.037423  0
H  H33  1  0.88925587  0.77104266  0.54510985  1  0  0.104398  0  0.969877  0  0  0.113561  0  1.036828  0  0  0.116688  0  1.035773  0  0  0.095792  0.111416  0  1.037501  0
C  C34  1  0.25956757  0.30101509  0.87161663  1  0  0.158143  0  3.679327  0  0  0.12606  0  3.930588  0  0  0.135011  0  3.948127  0  0  0.062828  0.120248  0  3.918767  0
C  C35  1  0.74041286  0.69899338  0.12837320  1  0  0.158088  0  3.67954  0  0  0.12606  0  3.930786  0  0  0.13501  0  3.948323  0  0  0.062866  0.120248  0  3.918967  0
C  C36  1  0.15299530  0.40873753  0.84054295  1  0  -0.102622  0  3.703704  0  0  -0.116842  0  3.957755  0  0  -0.124143  0  3.978551  0  0  -0.075238  -0.112362  0  3.944148  0
C  C37  1  0.84700270  0.59127603  0.15944307  1  0  -0.102581  0  3.703518  0  0  -0.116746  0  3.957531  0  0  -0.124045  0  3.978322  0  0  -0.075233  -0.112274  0  3.943937  0
C  C38  1  0.13362327  0.48354252  0.71821060  1  0  -0.024424  0  3.655441  0  0  -0.049207  0  3.902804  0  0  -0.045535  0  3.919459  0  0  -0.052495  -0.051548  0  3.891554  0
C  C39  1  0.86638891  0.51648215  0.28177375  1  0  -0.02482  0  3.655596  0  0  -0.049673  0  3.90304  0  0  -0.046002  0  3.919693  0  0  -0.05264  -0.052014  0  3.891804  0
C  C40  1  0.22013370  0.45098921  0.62698608  1  0  0.018555  0  3.793557  0  0  0.033536  0  4.027539  0  0  0.030746  0  4.051611  0  0  -0.000789  0.035416  0  4.011506  0
C  C41  1  0.77988093  0.54903546  0.37299562  1  0  0.018885  0  3.793545  0  0  0.033792  0  4.027631  0  0  0.031008  0  4.051699  0  0  -0.000697  0.035668  0  4.01161  0
C  C42  1  0.20617215  0.52450149  0.49863415  1  0  -0.094264  0  3.737288  0  0  -0.118818  0  3.998671  0  0  -0.121697  0  4.021765  0  0  -0.083929  -0.117067  0  3.983496  0
C  C43  1  0.79385596  0.47551924  0.50135320  1  0  -0.094187  0  3.737233  0  0  -0.118738  0  3.998654  0  0  -0.121631  0  4.021747  0  0  -0.083843  -0.116974  0  3.98348  0
C  C44  1  0.29023916  0.48869295  0.41338615  1  0  -0.098238  0  3.718215  0  0  -0.124104  0  3.981315  0  0  -0.126718  0  4.002196  0  0  -0.082877  -0.122408  0  3.967284  0
C  C45  1  0.70979514  0.51132780  0.58660163  1  0  -0.098347  0  3.718207  0  0  -0.124228  0  3.98132  0  0  -0.126829  0  4.002199  0  0  -0.082896  -0.122546  0  3.967289  0
C  C46  1  0.39405074  0.37582526  0.45007643  1  0  0.017853  0  3.801307  0  0  0.03302  0  4.037345  0  0  0.030646  0  4.06129  0  0  -0.003563  0.034777  0  4.021089  0
C  C47  1  0.60597211  0.62418941  0.54991182  1  0  0.018035  0  3.801348  0  0  0.033197  0  4.037399  0  0  0.030828  0  4.061346  0  0  -0.003527  0.034949  0  4.021152  0
C  C48  1  0.48030132  0.33339734  0.36543176  1  0  -0.039655  0  3.677721  0  0  -0.065434  0  3.92534  0  0  -0.063187  0  3.944222  0  0  -0.062866  -0.066832  0  3.912204  0
C  C49  1  0.51971755  0.66661131  0.63456148  1  0  -0.039596  0  3.677703  0  0  -0.065322  0  3.925359  0  0  -0.063103  0  3.944223  0  0  -0.062865  -0.066715  0  3.912216  0
C  C50  1  0.57421088  0.22082929  0.40674317  1  0  -0.116473  0  3.696772  0  0  -0.126541  0  3.945864  0  0  -0.133843  0  3.966217  0  0  -0.078571  -0.12144  0  3.932522  0
C  C51  1  0.42579138  0.77916825  0.59325689  1  0  -0.116637  0  3.696642  0  0  -0.126703  0  3.945756  0  0  -0.134009  0  3.966121  0  0  -0.078631  -0.121599  0  3.932406  0
C  C52  1  0.58446031  0.15291563  0.53378578  1  0  0.157689  0  3.682834  0  0  0.126334  0  3.936242  0  0  0.135024  0  3.953655  0  0  0.062232  0.120405  0  3.925363  0
C  C53  1  0.41552200  0.84707981  0.46621129  1  0  0.157834  0  3.682563  0  0  0.126507  0  3.936002  0  0  0.135196  0  3.953417  0  0  0.062291  0.120575  0  3.925124  0
C  C54  1  0.41255664  0.30099389  0.57664434  1  0  0.125569  0  3.762758  0  0  0.119378  0  3.999853  0  0  0.123442  0  4.022653  0  0  0.117283  0.116842  0  3.984316  0
C  C55  1  0.58744736  0.69901469  0.42334817  1  0  0.125601  0  3.762843  0  0  0.119364  0  3.999985  0  0  0.123426  0  4.022787  0  0  0.117315  0.11683  0  3.984447  0
C  C56  1  0.32523056  0.34036431  0.66671268  1  0  0.128066  0  3.757763  0  0  0.122226  0  3.994116  0  0  0.127036  0  4.016059  0  0  0.116241  0.118688  0  3.979562  0
C  C57  1  0.67477367  0.65964928  0.33327712  1  0  0.127644  0  3.758304  0  0  0.121873  0  3.994608  0  0  0.12668  0  4.01655  0  0  0.116029  0.118332  0  3.980059  0
C  C58  1  0.34267273  0.84646315  0.92001333  1  0  0.706069  0  3.854612  0  0  0.660371  0  4.145815  0  0  0.694157  0  4.139228  0  0  0.202376  0.637342  0  4.149422  0
C  C59  1  0.65730544  0.15352620  0.07997039  1  0  0.706117  0  3.854464  0  0  0.660333  0  4.145814  0  0  0.694135  0  4.139203  0  0  0.202306  0.637318  0  4.14941  0
C  C60  1  0.26524864  0.70679160  0.98952858  1  0  -0.287733  0  3.691514  0  0  -0.328782  0  3.933736  0  0  -0.334238  0  3.939654  0  0  -0.159729  -0.325038  0  3.929637  0
C  C61  1  0.73473934  0.29319282  0.01047390  1  0  -0.28755  0  3.691858  0  0  -0.328587  0  3.933984  0  0  -0.334042  0  3.939924  0  0  -0.15966  -0.324842  0  3.929874  0
C  C62  1  0.38829806  0.60150679  0.99393089  1  0  0.033897  0  3.742282  0  0  0.046292  0  3.987477  0  0  0.045396  0  4.011493  0  0  -0.025798  0.046981  0  3.971108  0
C  C63  1  0.61170036  0.39848773  0.00607220  1  0  0.033847  0  3.742292  0  0  0.046286  0  3.987491  0  0  0.045392  0  4.0115  0  0  -0.025697  0.046974  0  3.971126  0
C  C64  1  0.54388438  0.63316246  0.92648169  1  0  -0.266089  0  3.797935  0  0  -0.29178  0  4.056761  0  0  -0.296162  0  4.076313  0  0  -0.118246  -0.288606  0  4.043447  0
C  C65  1  0.45611511  0.36682806  0.07352532  1  0  -0.265984  0  3.798111  0  0  -0.291737  0  4.05692  0  0  -0.296106  0  4.076452  0  0  -0.118247  -0.288564  0  4.043603  0
C  C66  1  0.34429391  0.46607122  0.06820687  1  0  0.244772  0  3.859036  0  0  0.229278  0  4.133428  0  0  0.237752  0  4.150614  0  0  0.058875  0.223308  0  4.121581  0
C  C67  1  0.65570812  0.53392032  0.93180211  1  0  0.244991  0  3.858864  0  0  0.229395  0  4.133358  0  0  0.237867  0  4.150555  0  0  0.05885  0.223418  0  4.12152  0
C  C68  1  0.86722953  0.09756311  0.76138700  1  0  0.689248  0  3.842618  0  0  0.64588  0  4.133635  0  0  0.678668  0  4.128138  0  0  0.200927  0.623625  0  4.136445  0
C  C69  1  0.13275567  0.90244039  0.23861023  1  0  0.689177  0  3.842773  0  0  0.64599  0  4.133551  0  0  0.678773  0  4.12806  0  0  0.20089  0.623724  0  4.136376  0
C  C70  1  0.03379149  0.08536252  0.69957277  1  0  -0.302086  0  3.696047  0  0  -0.341408  0  3.933592  0  0  -0.347058  0  3.939563  0  0  -0.167314  -0.337401  0  3.92938  0
C  C71  1  0.96620697  0.91462906  0.30045146  1  0  -0.302082  0  3.695875  0  0  -0.341632  0  3.933519  0  0  -0.34729  0  3.939496  0  0  -0.167549  -0.337626  0  3.929317  0
C  C72  1  0.01384333  0.04084719  0.59716307  1  0  0.01982  0  3.75995  0  0  0.034876  0  4.002743  0  0  0.033797  0  4.026273  0  0  -0.025787  0.035531  0  3.986865  0
C  C73  1  0.98617841  0.95913946  0.40286154  1  0  0.019826  0  3.759434  0  0  0.034828  0  4.002456  0  0  0.033763  0  4.025954  0  0  -0.025783  0.035483  0  3.986585  0
C  C74  1  0.05995028  0.12856704  0.47519563  1  0  -0.232743  0  3.76195  0  0  -0.261394  0  4.022008  0  0  -0.265126  0  4.041406  0  0  -0.114458  -0.258753  0  4.008766  0
C  C75  1  0.94008114  0.87141463  0.52483107  1  0  -0.232572  0  3.761802  0  0  -0.261146  0  4.021749  0  0  -0.264878  0  4.041151  0  0  -0.114311  -0.258507  0  4.008505  0
C  C76  1  0.95171154  0.91061852  0.62140482  1  0  0.257961  0  3.827046  0  0  0.240515  0  4.098663  0  0  0.248867  0  4.115648  0  0  0.061005  0.234599  0  4.087127  0
C  C77  1  0.04831374  0.08936414  0.37862273  1  0  0.258553  0  3.825834  0  0  0.241019  0  4.09763  0  0  0.249374  0  4.114609  0  0  0.061392  0.235097  0  4.086106  0
N  N78  1  0.34332364  0.26871972  0.78747572  1  0  -0.361122  0  3.256686  0  0  -0.288229  0  3.522788  0  0  -0.309036  0  3.540687  0  0  -0.326892  -0.274151  0  3.510561  0
N  N79  1  0.65666412  0.73128677  0.21251439  1  0  -0.360888  0  3.256839  0  0  -0.287997  0  3.522839  0  0  -0.308801  0  3.540738  0  0  -0.326787  -0.273911  0  3.510603  0
N  N80  1  0.50766824  0.19254503  0.61544441  1  0  -0.353018  0  3.267262  0  0  -0.283025  0  3.528663  0  0  -0.302971  0  3.547895  0  0  -0.321995  -0.269543  0  3.515295  0
N  N81  1  0.49231660  0.80745143  0.38455296  1  0  -0.353047  0  3.266941  0  0  -0.283054  0  3.528373  0  0  -0.303  0  3.547608  0  0  -0.321978  -0.269577  0  3.515013  0
O  O82  1  0.33879209  0.90638547  0.80598277  1  0  -0.622455  0  1.912566  0  0  -0.570155  0  2.137357  0  0  -0.594863  0  2.128117  0  0  -0.317651  -0.55258  0  2.142818  0
O  O83  1  0.66121675  0.09357385  0.19400020  1  0  -0.622353  0  1.912442  0  0  -0.570063  0  2.137295  0  0  -0.594782  0  2.128063  0  0  -0.31757  -0.552491  0  2.142751  0
O  O84  1  0.41999192  0.89952946  0.98107004  1  0  -0.691433  0  2.093196  0  0  -0.603105  0  2.363505  0  0  -0.637747  0  2.350432  0  0  -0.345872  -0.578821  0  2.371552  0
O  O85  1  0.57994039  0.10048382  0.01891429  1  0  -0.691495  0  2.092823  0  0  -0.603182  0  2.363246  0  0  -0.637823  0  2.35016  0  0  -0.345882  -0.578909  0  2.371303  0
O  O86  1  0.81729379  0.20905478  0.75397223  1  0  -0.615229  0  1.92744  0  0  -0.561148  0  2.158695  0  0  -0.587285  0  2.151772  0  0  -0.317893  -0.542783  0  2.16262  0
O  O87  1  0.18269754  0.79094674  0.24602953  1  0  -0.615292  0  1.927629  0  0  -0.561244  0  2.158777  0  0  -0.58739  0  2.151857  0  0  -0.317926  -0.542861  0  2.162702  0
O  O88  1  0.77548309  0.98730018  0.81684241  1  0  -0.666078  0  2.009609  0  0  -0.595106  0  2.247148  0  0  -0.624961  0  2.235848  0  0  -0.337081  -0.574165  0  2.254047  0
O  O89  1  0.22448338  0.01270319  0.18313933  1  0  -0.665987  0  2.009619  0  0  -0.594969  0  2.247054  0  0  -0.624818  0  2.235762  0  0  -0.336934  -0.574022  0  2.253954  0
O  O90  1  0.19123111  0.43792885  0.13336938  1  0  -0.536529  0  2.128709  0  0  -0.488946  0  2.355989  0  0  -0.506962  0  2.34679  0  0  -0.367104  -0.475884  0  2.36187  0
O  O91  1  0.80877083  0.56205970  0.86664657  1  0  -0.536724  0  2.128522  0  0  -0.489133  0  2.355916  0  0  -0.507148  0  2.346703  0  0  -0.367074  -0.476075  0  2.361833  0
O  O92  1  0.90045700  0.82192617  0.73964873  1  0  -0.563139  0  2.14846  0  0  -0.50273  0  2.364389  0  0  -0.521601  0  2.353128  0  0  -0.366802  -0.489148  0  2.371737  0
O  O93  1  0.09955618  0.17806246  0.26037652  1  0  -0.563401  0  2.147727  0  0  -0.502957  0  2.363892  0  0  -0.521804  0  2.352599  0  0  -0.366994  -0.489386  0  2.371256  0
