# generated using pymatgen
data_CuH24C24(N6Cl)2
_symmetry_space_group_name_H-M   'P 1'
_cell_length_a   7.59040504
_cell_length_b   8.46431586
_cell_length_c   21.32700000
_cell_angle_alpha   90.00000000
_cell_angle_beta   90.00000000
_cell_angle_gamma   106.51687942
_symmetry_Int_Tables_number   1
_chemical_formula_structural   CuH24C24(N6Cl)2
_chemical_formula_sum   'Cu2 H48 C48 N24 Cl4'
_cell_volume   1313.66801796
_cell_formula_units_Z   2
loop_
 _symmetry_equiv_pos_site_id
 _symmetry_equiv_pos_as_xyz
  1  'x, y, z'
loop_
 _atom_site_type_symbol
 _atom_site_label
 _atom_site_symmetry_multiplicity
 _atom_site_fract_x
 _atom_site_fract_y
 _atom_site_fract_z
 _atom_site_occupancy
 _atom_site_hle17_ddec_charge
 _atom_site_hle17_ddec_spin_density
 _atom_site_hle17_ddec_sum_bond_order
 _atom_site_hle17_magmom
 _atom_site_hse06_10hf_ddec_charge
 _atom_site_hse06_10hf_ddec_spin_density
 _atom_site_hse06_10hf_ddec_sum_bond_order
 _atom_site_hse06_10hf_magmom
 _atom_site_hse06_ddec_charge
 _atom_site_hse06_ddec_spin_density
 _atom_site_hse06_ddec_sum_bond_order
 _atom_site_hse06_magmom
 _atom_site_pbe_bader_charge
 _atom_site_pbe_bader_spin_density
 _atom_site_pbe_cm5_charge
 _atom_site_pbe_ddec_charge
 _atom_site_pbe_ddec_spin_density
 _atom_site_pbe_ddec_sum_bond_order
 _atom_site_pbe_magmom
Cu  Cu0  1  0.49999829  0.49999849  0.50000094  1  0.787003  0.708481  1.91467  0.542  0.747169  0.784605  2.290686  0.641  0.826158  0.841515  2.236925  0.716  1.032186  0.592144  0.742011  0.697962  0.74408  2.32759  0.591
Cu  Cu1  1  0.49999874  0.00000123  0.99999906  1  0.787036  0.70849  1.914667  0.542  0.747237  0.784618  2.290688  0.641  0.826167  0.841519  2.236921  0.716  1.032118  0.592144  0.742016  0.697975  0.744081  2.327607  0.591
H  H2  1  0.84517807  0.37839472  0.44059127  1  0.107732  -0.000224  0.989192  0.0  0.110754  -3.8e-05  1.061922  0.0  0.113553  -3.3e-05  1.057509  0.0  0.227352  0.000184  0.119164  0.108509  -4.5e-05  1.065157  0.0
H  H3  1  0.15482252  0.12160377  0.94058892  1  0.107796  -0.000222  0.989183  0.0  0.110803  -3.8e-05  1.06191  0.0  0.113606  -3.4e-05  1.057487  0.0  0.227371  0.000184  0.119184  0.108558  -4.5e-05  1.065145  0.0
H  H4  1  0.15482168  0.62159979  0.55941108  1  0.107784  -0.000223  0.989183  0.0  0.110777  -3.8e-05  1.061937  0.0  0.113577  -3.4e-05  1.057518  0.0  0.2273  0.000184  0.119162  0.108534  -4.5e-05  1.065167  0.0
H  H5  1  0.84517772  0.87840060  0.05941014  1  0.10783  -0.000224  0.989107  0.0  0.110821  -3.8e-05  1.061874  0.0  0.113621  -3.4e-05  1.057453  0.0  0.227263  0.000184  0.119177  0.108574  -4.5e-05  1.065108  0.0
H  H6  1  0.34454280  0.39814446  0.35933512  1  0.091152  -0.000181  0.951936  0.0  0.097035  -4e-06  1.017972  0.0  0.098733  -1.9e-05  1.01553  0.0  0.146173  0.000229  0.128477  0.095638  1e-05  1.019876  0.0
H  H7  1  0.65546277  0.10186143  0.85933558  1  0.091091  -0.00018  0.951979  0.0  0.096973  -4e-06  1.018033  0.0  0.098669  -1.9e-05  1.015592  0.0  0.146125  0.000229  0.128443  0.095577  1e-05  1.019938  0.0
H  H8  1  0.65546008  0.60185991  0.64066535  1  0.0911  -0.000181  0.951968  0.0  0.096986  -4e-06  1.01801  0.0  0.098682  -1.9e-05  1.01557  0.0  0.14615  0.000229  0.128442  0.095589  1e-05  1.019913  0.0
H  H9  1  0.34454221  0.89814541  0.14066395  1  0.091127  -0.000176  0.951918  0.0  0.097013  -4e-06  1.017956  0.0  0.098711  -1.9e-05  1.015515  0.0  0.146158  0.000228  0.128456  0.095616  1e-05  1.019862  0.0
H  H10  1  0.74826210  0.07365086  0.32100202  1  0.098619  0.000124  0.911234  0.0  0.111106  9.4e-05  0.974969  0.0  0.112403  6.5e-05  0.974331  0.0  0.083238  0.000218  0.118001  0.110019  0.000121  0.975605  0.0
H  H11  1  0.25173928  0.42635010  0.82100061  1  0.098656  0.000124  0.91126  0.0  0.11116  9.4e-05  0.974986  0.0  0.112485  6.5e-05  0.974318  0.0  0.083234  0.000218  0.118029  0.110063  0.000121  0.975638  0.0
H  H12  1  0.25173619  0.92634735  0.67899892  1  0.098651  0.000123  0.911228  0.0  0.11113  9.4e-05  0.974973  0.0  0.112432  6.5e-05  0.974334  0.0  0.083267  0.000218  0.118016  0.110045  0.000121  0.975607  0.0
H  H13  1  0.74825965  0.57365428  0.17899751  1  0.09867  0.000123  0.911232  0.0  0.111177  9.4e-05  0.974952  0.0  0.1125  6.5e-05  0.974292  0.0  0.083237  0.000218  0.118046  0.110083  0.000121  0.975598  0.0
H  H14  1  0.93471550  0.20467171  0.36396211  1  0.097984  -2.3e-05  0.931958  0.0  0.110571  8e-06  0.99727  0.0  0.111366  8e-06  0.996762  0.0  0.118151  3.9e-05  0.111285  0.10986  1.1e-05  0.997683  0.0
H  H15  1  0.06528588  0.29532925  0.86396211  1  0.098009  -2.4e-05  0.931955  0.0  0.110594  9e-06  0.99728  0.0  0.11139  8e-06  0.996777  0.0  0.118172  3.9e-05  0.111285  0.109885  1.1e-05  0.99769  0.0
H  H16  1  0.06528319  0.79532774  0.63603742  1  0.098043  -2.5e-05  0.931896  0.0  0.110621  9e-06  0.997222  0.0  0.111422  8e-06  0.996709  0.0  0.118143  3.9e-05  0.11132  0.109908  1.1e-05  0.997646  0.0
H  H17  1  0.93471358  0.70467266  0.13603695  1  0.098017  -2.8e-05  0.9319  0.0  0.110604  9e-06  0.997224  0.0  0.111396  8e-06  0.996738  0.0  0.117872  3.9e-05  0.111302  0.109893  1.1e-05  0.997636  0.0
H  H18  1  0.72690364  0.09876348  0.20937028  1  0.092399  -7.1e-05  0.968186  0.0  0.100477  -2.7e-05  1.033649  0.0  0.10316  -2.4e-05  1.032806  0.0  0.073772  -1.6e-05  0.097666  0.098564  -2.9e-05  1.034316  0.0
H  H19  1  0.27310354  0.40123501  0.70936934  1  0.092249  -6.3e-05  0.968228  0.0  0.100393  -2.7e-05  1.033649  0.0  0.103075  -2.4e-05  1.032805  0.0  0.073754  -1.6e-05  0.097652  0.098481  -2.9e-05  1.034313  0.0
H  H20  1  0.27309504  0.90123597  0.79063019  1  0.092337  -6.6e-05  0.968257  0.0  0.100453  -2.7e-05  1.033675  0.0  0.103137  -2.4e-05  1.032832  0.0  0.07379  -1.6e-05  0.09766  0.098539  -2.9e-05  1.034343  0.0
H  H21  1  0.72689724  0.59876689  0.29062972  1  0.092311  -6.8e-05  0.96825  0.0  0.100453  -2.7e-05  1.033661  0.0  0.103134  -2.4e-05  1.032819  0.0  0.073756  -1.6e-05  0.097685  0.098542  -2.9e-05  1.034325  0.0
H  H22  1  0.88137086  0.21119293  0.10876776  1  0.091043  -6e-05  0.986638  0.0  0.097921  -1.5e-05  1.056584  0.0  0.099895  -1.9e-05  1.056624  0.0  0.098886  -1.8e-05  0.090578  0.096389  -1.1e-05  1.056751  0.0
H  H23  1  0.11863213  0.28880063  0.60876729  1  0.091031  -6.2e-05  0.986609  0.0  0.097896  -1.5e-05  1.056574  0.0  0.099865  -1.9e-05  1.056617  0.0  0.098955  -1.8e-05  0.090556  0.096364  -1.1e-05  1.056739  0.0
H  H24  1  0.11862666  0.78880282  0.89123224  1  0.091067  -6.2e-05  0.986628  0.0  0.097941  -1.5e-05  1.056583  0.0  0.099905  -1.9e-05  1.056631  0.0  0.098928  -1.8e-05  0.090584  0.096408  -1.1e-05  1.056749  0.0
H  H25  1  0.88136616  0.71119758  0.39123177  1  0.09105  -6.9e-05  0.98662  0.0  0.097914  -1.5e-05  1.056583  0.0  0.099884  -1.9e-05  1.056626  0.0  0.098951  -1.8e-05  0.090569  0.096383  -1.1e-05  1.056748  0.0
H  H26  1  0.28810234  0.57804242  0.21205561  1  0.098696  3.2e-05  0.97493  0.0  0.10426  4.3e-05  1.044324  0.0  0.10791  2.7e-05  1.04204  0.0  0.101736  5.7e-05  0.097964  0.101645  6.3e-05  1.045965  0.0
H  H27  1  0.71189536  0.92195674  0.71205655  1  0.09874  3.2e-05  0.974878  0.0  0.10429  4.3e-05  1.044286  0.0  0.107949  2.7e-05  1.041995  0.0  0.101732  5.7e-05  0.097963  0.101674  6.3e-05  1.045928  0.0
H  H28  1  0.71189332  0.42195579  0.78794298  1  0.09871  3.2e-05  0.97491  0.0  0.104269  4.3e-05  1.044319  0.0  0.107919  2.7e-05  1.042036  0.0  0.101718  5.7e-05  0.097961  0.101654  6.3e-05  1.045961  0.0
H  H29  1  0.28810556  0.07804147  0.28794392  1  0.098712  2.5e-05  0.974898  0.0  0.104283  4.3e-05  1.044287  0.0  0.107929  2.7e-05  1.042008  0.0  0.101745  5.7e-05  0.097957  0.101668  6.3e-05  1.045929  0.0
H  H30  1  0.13003275  0.46804672  0.31164439  1  0.088311  -1.5e-05  0.952462  0.0  0.101699  1e-06  1.010255  0.0  0.10387  1e-06  1.009686  0.0  0.059361  3e-06  0.099176  0.100069  -1e-06  1.010807  0.0
H  H31  1  0.86996638  0.03195546  0.81164533  1  0.088284  -1.7e-05  0.952475  0.0  0.101671  1e-06  1.010269  0.0  0.103843  1e-06  1.009698  0.0  0.059341  3e-06  0.099156  0.100042  -1e-06  1.01082  0.0
H  H32  1  0.86996896  0.53195395  0.68835561  1  0.088305  -1.8e-05  0.95248  0.0  0.101668  1e-06  1.010295  0.0  0.103841  1e-06  1.009723  0.0  0.059339  3e-06  0.099146  0.100039  -0.0  1.010845  0.0
H  H33  1  0.13003270  0.96804521  0.18835514  1  0.088303  -1.4e-05  0.95246  0.0  0.101693  1e-06  1.010245  0.0  0.103865  1e-06  1.009676  0.0  0.059356  3e-06  0.099162  0.100064  -1e-06  1.010797  0.0
H  H34  1  0.08703957  0.43859772  0.05425095  1  0.092293  -7e-05  0.935861  0.0  0.102949  -3.7e-05  1.005134  0.0  0.104133  -2.4e-05  1.003386  0.0  0.096354  -6.3e-05  0.105397  0.101933  -4.6e-05  1.006503  0.0
H  H35  1  0.91296483  0.06140447  0.55425142  1  0.092286  -6.1e-05  0.935806  0.0  0.102929  -3.7e-05  1.005081  0.0  0.104114  -2.4e-05  1.003336  0.0  0.096334  -6.3e-05  0.105382  0.101913  -4.5e-05  1.006448  0.0
H  H36  1  0.91296292  0.56140542  0.94574811  1  0.092279  -7.1e-05  0.935828  0.0  0.102914  -3.7e-05  1.005125  0.0  0.104097  -2.4e-05  1.00338  0.0  0.096375  -6.3e-05  0.105387  0.101897  -4.6e-05  1.006494  0.0
H  H37  1  0.08703649  0.93859497  0.44574858  1  0.092274  -6.4e-05  0.935807  0.0  0.102912  -3.7e-05  1.005107  0.0  0.104096  -2.4e-05  1.003361  0.0  0.096342  -6.3e-05  0.10538  0.101897  -4.5e-05  1.006475  0.0
H  H38  1  0.25804059  0.59471023  0.09333943  1  0.100794  0.000199  0.946729  0.0  0.110387  0.000146  1.016955  0.0  0.111763  8.8e-05  1.015951  0.0  0.128856  0.000383  0.111004  0.109319  0.0002  1.017735  0.0
H  H39  1  0.74196067  0.90528770  0.59333896  1  0.100767  0.000201  0.946736  0.0  0.110361  0.000146  1.016953  0.0  0.11174  8.8e-05  1.01595  0.0  0.128852  0.000383  0.110987  0.109294  0.000201  1.01773  0.0
H  H40  1  0.74195902  0.40528798  0.90666198  1  0.100764  0.000198  0.946713  0.0  0.110355  0.000146  1.016949  0.0  0.111731  8.8e-05  1.015945  0.0  0.128838  0.000383  0.111007  0.109287  0.0002  1.017728  0.0
H  H41  1  0.25803855  0.09470928  0.40666151  1  0.100798  0.0002  0.94671  0.0  0.110384  0.000146  1.016949  0.0  0.111761  8.8e-05  1.015943  0.0  0.128883  0.000383  0.11102  0.109315  0.0002  1.01773  0.0
H  H42  1  0.16414358  0.13573308  0.04925306  1  0.11187  -9.1e-05  0.968271  0.0  0.115504  8.9e-05  1.039415  0.0  0.118047  7.3e-05  1.035683  0.0  0.202805  0.000366  0.124394  0.1135  9.5e-05  1.042057  0.0
H  H43  1  0.83585834  0.36426541  0.54925306  1  0.111887  -9.1e-05  0.968248  0.0  0.115502  8.9e-05  1.0394  0.0  0.118046  7.3e-05  1.035665  0.0  0.202786  0.000366  0.124393  0.113494  9.5e-05  1.042058  0.0
H  H44  1  0.83585642  0.86426636  0.95074741  1  0.111897  -8.9e-05  0.968258  0.0  0.11554  8.9e-05  1.039381  0.0  0.118083  7.3e-05  1.035649  0.0  0.2028  0.000366  0.124409  0.113535  9.5e-05  1.042027  0.0
H  H45  1  0.16414259  0.63573280  0.45074835  1  0.111897  -9.2e-05  0.968261  0.0  0.115526  8.9e-05  1.039412  0.0  0.118071  7.3e-05  1.035676  0.0  0.202787  0.000366  0.124397  0.113526  9.5e-05  1.042043  0.0
H  H46  1  0.73320024  0.36741265  0.04998968  1  0.098252  -0.000125  0.947678  0.0  0.106671  3.1e-05  1.009342  0.0  0.108257  1.1e-05  1.007035  0.0  0.140757  0.000256  0.126801  0.105353  5e-05  1.01112  0.0
H  H47  1  0.26680206  0.13258707  0.54999062  1  0.098251  -0.000123  0.947638  0.0  0.106642  3.1e-05  1.009333  0.0  0.108226  1.1e-05  1.007026  0.0  0.1408  0.000257  0.126783  0.105323  5e-05  1.01111  0.0
H  H48  1  0.26680054  0.63258926  0.95000891  1  0.098259  -0.000119  0.947636  0.0  0.10664  3.1e-05  1.009336  0.0  0.108224  1.1e-05  1.007033  0.0  0.140775  0.000256  0.126795  0.105321  5e-05  1.011114  0.0
H  H49  1  0.73319926  0.86741237  0.45001032  1  0.09828  -0.000121  0.947638  0.0  0.106696  3.1e-05  1.009305  0.0  0.108282  1.1e-05  1.006998  0.0  0.140787  0.000257  0.126808  0.105378  5e-05  1.011082  0.0
C  C50  1  0.72761144  0.36674722  0.40969804  1  0.175438  -0.005189  3.613008  -0.002  0.100089  -0.001257  3.884516  0.0  0.115812  -0.00239  3.89661  -0.001  0.960128  2.6e-05  0.162473  0.090118  -0.000444  3.876421  0.001
C  C51  1  0.27238823  0.13325250  0.90969569  1  0.175462  -0.005195  3.613027  -0.002  0.100156  -0.001255  3.884456  0.0  0.115886  -0.002391  3.896535  -0.001  0.959399  2.5e-05  0.162493  0.090185  -0.000443  3.876359  0.001
C  C52  1  0.27238608  0.63324853  0.59030431  1  0.175415  -0.005172  3.613062  -0.002  0.100131  -0.001256  3.884481  0.0  0.115854  -0.002389  3.896585  -0.001  0.959973  2.5e-05  0.162503  0.090162  -0.000443  3.876383  0.001
C  C53  1  0.72760992  0.86674940  0.09030243  1  0.175391  -0.005193  3.613032  -0.002  0.100088  -0.001256  3.884458  0.0  0.115803  -0.00239  3.896565  -0.001  0.960251  2.5e-05  0.162484  0.090119  -0.000444  3.876359  0.001
C  C54  1  0.47656693  0.37508359  0.36600882  1  0.192799  -0.004979  3.713964  -0.002  0.145714  -0.001263  4.007365  0.0  0.159257  -0.002069  4.019319  -0.001  0.956721  -0.000353  0.144193  0.136916  -0.000697  3.999318  0.001
C  C55  1  0.52343825  0.12492106  0.86600835  1  0.192975  -0.004982  3.713852  -0.002  0.145859  -0.001263  4.007267  0.0  0.159402  -0.002067  4.019214  -0.001  0.957024  -0.000354  0.144287  0.137059  -0.000697  3.999218  0.001
C  C56  1  0.52343556  0.62491955  0.63399212  1  0.192982  -0.004973  3.713885  -0.002  0.145864  -0.001264  4.007286  0.0  0.159409  -0.002067  4.019234  -0.001  0.957  -0.000354  0.144293  0.137066  -0.000697  3.999238  0.001
C  C57  1  0.47656726  0.87508331  0.13399259  1  0.192935  -0.005005  3.714032  -0.002  0.145834  -0.001262  4.007439  0.0  0.159375  -0.002066  4.019392  -0.001  0.957173  -0.000354  0.144273  0.137035  -0.000696  3.999392  0.001
C  C58  1  0.83158364  0.20181159  0.32743518  1  -0.059088  0.000612  3.64423  0.001  -0.137921  0.000545  3.893014  0.001  -0.134154  0.000421  3.903211  0.001  0.303402  0.000885  -0.042354  -0.140148  0.000654  3.886105  0.001
C  C59  1  0.16841813  0.29819060  0.82743424  1  -0.05916  0.000613  3.644224  0.001  -0.138051  0.000545  3.89306  0.001  -0.134305  0.000421  3.903249  0.001  0.303391  0.000885  -0.042377  -0.140275  0.000654  3.88615  0.001
C  C60  1  0.16841544  0.79818909  0.67256529  1  -0.059258  0.000617  3.644137  0.001  -0.138084  0.000545  3.893037  0.001  -0.134329  0.000421  3.903244  0.001  0.303365  0.000884  -0.042425  -0.140314  0.000654  3.886126  0.001
C  C61  1  0.83158266  0.70181131  0.17256436  1  -0.059184  0.00062  3.644172  0.001  -0.138098  0.000545  3.893089  0.001  -0.134371  0.000421  3.903304  0.001  0.303694  0.000885  -0.042434  -0.140321  0.000654  3.886181  0.001
C  C62  1  0.92081566  0.27408476  0.26683875  1  0.070306  0.000553  3.758741  0.001  0.086858  7.4e-05  4.004497  0.0  0.085744  1.7e-05  4.029143  0.0  0.009488  0.000271  -0.013469  0.087622  0.000169  3.987659  0.0
C  C63  1  0.07918308  0.22591620  0.76683781  1  0.070313  0.000569  3.758619  0.001  0.08689  7.4e-05  4.004391  0.0  0.085778  1.9e-05  4.029038  0.0  0.009448  0.000271  -0.01347  0.087653  0.000169  3.987552  0.0
C  C64  1  0.07918249  0.72591715  0.73316172  1  0.070434  0.000578  3.758503  0.001  0.086885  7.3e-05  4.004403  0.0  0.085778  1.8e-05  4.029047  0.0  0.009509  0.000271  -0.013449  0.087651  0.000169  3.987561  0.0
C  C65  1  0.92081599  0.77408448  0.23316172  1  0.070276  0.0006  3.758694  0.001  0.086821  7.5e-05  4.004488  0.0  0.085713  1.5e-05  4.02914  0.0  0.009446  0.000271  -0.013469  0.087585  0.000169  3.987649  0.0
C  C66  1  0.84945932  0.20409870  0.20956628  1  -0.103108  0.000414  3.747249  0.0  -0.123926  0.000105  3.997319  0.0  -0.125747  4.7e-05  4.018394  0.0  -0.030132  0.000264  -0.092895  -0.122575  0.000169  3.982889  0.0
C  C67  1  0.15054444  0.29589733  0.70956534  1  -0.1029  0.000381  3.74714  0.0  -0.12379  0.000105  3.997215  0.0  -0.125607  4.6e-05  4.018281  0.0  -0.030077  0.000264  -0.092867  -0.122439  0.000169  3.982782  0.0
C  C68  1  0.15054029  0.79589952  0.79043419  1  -0.103024  0.000376  3.747221  0.0  -0.123843  0.000105  3.997323  0.0  -0.125663  4.7e-05  4.01839  0.0  -0.03012  0.000264  -0.092871  -0.122492  0.000169  3.98289  0.0
C  C69  1  0.84945331  0.70410335  0.29043372  1  -0.102966  0.000354  3.747258  0.0  -0.123842  0.000105  3.997341  0.0  -0.125659  4.9e-05  4.018411  0.0  -0.030113  0.000264  -0.092911  -0.122491  0.000169  3.982909  0.0
C  C70  1  0.93578946  0.26689441  0.15351808  1  -0.127772  -0.000176  3.758019  0.0  -0.1477  1.7e-05  4.006116  0.0  -0.151389  -1.7e-05  4.029993  0.0  -0.122919  0.000111  -0.099109  -0.145079  4.9e-05  3.989881  0.0
C  C71  1  0.06421259  0.23310038  0.65351761  1  -0.127775  -0.000126  3.758011  0.0  -0.147691  1.6e-05  4.006139  0.0  -0.151372  -1.6e-05  4.030016  0.0  -0.122995  0.000111  -0.0991  -0.145069  4.8e-05  3.989902  0.0
C  C72  1  0.06420634  0.73310011  0.84648192  1  -0.127834  -0.000109  3.758116  0.0  -0.147751  1.7e-05  4.006221  0.0  -0.151429  -1.7e-05  4.030103  0.0  -0.122898  0.000111  -0.099127  -0.14513  4.8e-05  3.989986  0.0
C  C73  1  0.93578531  0.76689659  0.34648146  1  -0.127791  -5.2e-05  3.758022  0.0  -0.147704  1.7e-05  4.006136  0.0  -0.151388  -1.9e-05  4.030015  0.0  -0.122975  0.000111  -0.099092  -0.145082  4.8e-05  3.989898  0.0
C  C74  1  0.09473319  0.40074333  0.15395555  1  0.067542  0.000572  3.750415  0.001  0.089496  4.7e-05  3.986217  0.0  0.087603  -3e-06  4.012596  0.0  -0.021101  0.000251  -0.014814  0.090821  0.000136  3.968155  0.0
C  C75  1  0.90526926  0.09925269  0.65395602  1  0.067485  0.000551  3.750463  0.0  0.089436  4.7e-05  3.986245  0.0  0.087546  -3e-06  4.012626  0.0  -0.020783  0.000251  -0.014832  0.090761  0.000136  3.968181  0.0
C  C76  1  0.90526432  0.59925241  0.84604351  1  0.067492  0.000542  3.750492  0.0  0.089417  4.7e-05  3.986323  0.0  0.087526  -2e-06  4.0127  0.0  -0.021011  0.000251  -0.014842  0.090742  0.000136  3.968262  0.0
C  C77  1  0.09473167  0.90074552  0.34604351  1  0.067549  0.000513  3.750428  0.0  0.089506  4.6e-05  3.986221  0.0  0.087615  0.0  4.012598  0.0  -0.021121  0.000251  -0.014794  0.090832  0.000136  3.968158  0.0
C  C78  1  0.16513107  0.47286740  0.21123083  1  -0.10446  0.000222  3.729615  0.0  -0.121055  0.000104  3.968272  0.0  -0.123589  5.2e-05  3.989841  0.0  -0.068728  0.000259  -0.09148  -0.119227  0.000165  3.953538  0.0
C  C79  1  0.83486953  0.02713109  0.71123177  1  -0.104482  0.000237  3.729579  0.0  -0.121064  0.000105  3.96823  0.0  -0.123607  5.2e-05  3.989794  0.0  -0.068623  0.000259  -0.091427  -0.119235  0.000165  3.953495  0.0
C  C80  1  0.83486684  0.52712958  0.78876776  1  -0.104447  0.000244  3.729545  0.0  -0.121027  0.000104  3.968184  0.0  -0.123559  5.2e-05  3.989756  0.0  -0.068468  0.000259  -0.091449  -0.119198  0.000165  3.95345  0.0
C  C81  1  0.16513008  0.97286712  0.28876823  1  -0.104479  0.000284  3.729626  0.0  -0.12108  0.000105  3.968282  0.0  -0.12361  5.1e-05  3.989855  0.0  -0.068625  0.000259  -0.091447  -0.119251  0.000165  3.953548  0.0
C  C82  1  0.07751237  0.40991765  0.26709851  1  -0.107597  0.000105  3.749807  0.0  -0.125258  7.8e-05  3.993596  0.0  -0.128055  4.6e-05  4.016606  0.0  -0.060316  0.00019  -0.089664  -0.12324  0.000114  3.977893  0.0
C  C83  1  0.92248769  0.09008330  0.76709945  1  -0.10758  9.6e-05  3.749843  0.0  -0.125244  7.8e-05  3.99362  0.0  -0.128042  4.5e-05  4.016631  0.0  -0.060388  0.00019  -0.089676  -0.123228  0.000114  3.977918  0.0
C  C84  1  0.92248724  0.59008056  0.73290055  1  -0.107686  8.5e-05  3.749803  0.0  -0.125295  7.9e-05  3.993614  0.0  -0.128092  4.6e-05  4.016622  0.0  -0.060388  0.00019  -0.089697  -0.123277  0.000114  3.977909  0.0
C  C85  1  0.07751231  0.90991614  0.23290055  1  -0.107637  4.4e-05  3.749882  0.0  -0.125292  7.8e-05  3.993673  0.0  -0.128089  4.7e-05  4.016679  0.0  -0.060404  0.00019  -0.089701  -0.123276  0.000114  3.977972  0.0
C  C86  1  0.18790803  0.46254337  0.09258405  1  -0.066468  0.00069  3.644895  0.001  -0.145034  0.000567  3.888485  0.001  -0.140887  0.000421  3.898358  0.001  0.256014  0.001025  -0.049963  -0.147453  0.000699  3.881692  0.001
C  C87  1  0.81209388  0.03745512  0.59258405  1  -0.06643  0.000675  3.644809  0.001  -0.14497  0.000567  3.888392  0.001  -0.140832  0.000421  3.898279  0.001  0.255623  0.001025  -0.04995  -0.147388  0.000699  3.881599  0.001
C  C88  1  0.81209026  0.53745485  0.90741548  1  -0.066358  0.000694  3.644812  0.001  -0.144871  0.000566  3.888359  0.001  -0.14073  0.000421  3.898239  0.001  0.255638  0.001025  -0.049935  -0.147289  0.000699  3.881566  0.001
C  C89  1  0.18790573  0.96254309  0.40741595  1  -0.066416  0.000678  3.644799  0.001  -0.144988  0.000567  3.888424  0.001  -0.140838  0.000421  3.898292  0.001  0.255988  0.001025  -0.049966  -0.147408  0.000699  3.881635  0.001
C  C90  1  0.29781668  0.22447320  0.05577718  1  0.161384  -0.006156  3.625187  -0.003  0.090025  -0.001736  3.885238  0.0  0.105092  -0.002915  3.897971  -0.001  0.974603  -0.000509  0.156551  0.080537  -0.000916  3.876642  0.0
C  C91  1  0.70218601  0.27552776  0.55577859  1  0.161417  -0.006149  3.625067  -0.003  0.090069  -0.001737  3.885189  0.0  0.105141  -0.002914  3.897919  -0.001  0.974598  -0.000509  0.156528  0.080584  -0.000915  3.87658  0.0
C  C92  1  0.70218371  0.77552748  0.94422188  1  0.161382  -0.006171  3.625122  -0.003  0.090013  -0.001736  3.885214  0.0  0.105082  -0.002916  3.897944  -0.001  0.974595  -0.000509  0.156536  0.080526  -0.000916  3.876612  0.0
C  C93  1  0.29781531  0.72447169  0.44422375  1  0.161354  -0.006158  3.625194  -0.003  0.08998  -0.001737  3.885254  0.0  0.105054  -0.002914  3.897984  -0.001  0.974604  -0.000509  0.156538  0.080495  -0.000916  3.876663  0.0
C  C94  1  0.58674020  0.34654277  0.05675716  1  0.197784  -0.005024  3.686988  -0.002  0.14849  -0.001174  3.980116  0.0  0.161783  -0.002022  3.993052  -0.001  0.977304  -0.000367  0.141088  0.139875  -0.000608  3.971258  0.001
C  C95  1  0.41326249  0.15345818  0.55675951  1  0.197792  -0.005041  3.686958  -0.002  0.148534  -0.001174  3.980099  0.0  0.16183  -0.002022  3.993035  -0.001  0.977379  -0.000367  0.141121  0.13992  -0.000608  3.971243  0.001
C  C96  1  0.41326151  0.65345791  0.94324096  1  0.197762  -0.005067  3.686966  -0.002  0.148505  -0.001173  3.98011  0.0  0.161798  -0.002023  3.993047  -0.001  0.977388  -0.000367  0.141106  0.13989  -0.000608  3.971251  0.001
C  C97  1  0.58673829  0.84654372  0.44324284  1  0.197709  -0.005035  3.68705  -0.002  0.148408  -0.001174  3.980189  0.0  0.161704  -0.002021  3.993125  -0.001  0.977311  -0.000366  0.14108  0.139794  -0.000608  3.971332  0.001
N  N98  1  0.57973643  0.42029591  0.41894641  1  -0.375257  0.072585  3.306843  0.097  -0.335781  0.051565  3.627487  0.072  -0.370148  0.041453  3.648643  0.062  -1.192868  0.089058  -0.367816  -0.314211  0.057973  3.61414  0.078
N  N99  1  0.42026665  0.07970628  0.91894500  1  -0.375386  0.072588  3.306965  0.097  -0.33592  0.051565  3.627619  0.072  -0.37027  0.041453  3.648745  0.062  -1.19286  0.089066  -0.367847  -0.314336  0.057975  3.614263  0.078
N  N100  1  0.42026318  0.57970230  0.58105594  1  -0.375341  0.072582  3.306923  0.097  -0.33584  0.051566  3.627514  0.072  -0.370208  0.041453  3.648662  0.062  -1.192932  0.089064  -0.367832  -0.314271  0.057975  3.61417  0.078
N  N101  1  0.57973623  0.92029809  0.08105500  1  -0.375375  0.072592  3.307026  0.097  -0.335907  0.051564  3.627665  0.072  -0.370261  0.041452  3.648798  0.062  -1.193307  0.089061  -0.367875  -0.314322  0.057973  3.614305  0.078
N  N102  1  0.55221105  0.29628057  0.32480424  1  -0.26825  0.008378  2.847417  0.01  -0.272104  0.004022  3.116402  0.005  -0.279647  0.002703  3.126635  0.004  -0.675858  0.008733  -0.221721  -0.266608  0.005475  3.109283  0.006
N  N103  1  0.44779111  0.20372285  0.82480283  1  -0.268269  0.008378  2.847325  0.01  -0.272122  0.004023  3.116301  0.005  -0.279662  0.002702  3.12654  0.004  -0.675789  0.008735  -0.221744  -0.266622  0.005477  3.109179  0.006
N  N104  1  0.44779013  0.70372257  0.67519717  1  -0.268308  0.008376  2.847367  0.01  -0.272149  0.004023  3.116362  0.005  -0.279688  0.002703  3.126598  0.004  -0.675793  0.008734  -0.221742  -0.266652  0.005476  3.109242  0.006
N  N105  1  0.55221177  0.79628152  0.17519623  1  -0.268326  0.008388  2.847488  0.01  -0.272177  0.004022  3.116466  0.005  -0.279721  0.002702  3.1267  0.004  -0.675907  0.008733  -0.22175  -0.266679  0.005476  3.109345  0.006
N  N106  1  0.71104452  0.29246174  0.35369016  1  0.050933  0.001973  3.567588  0.003  0.169279  0.001425  3.759081  0.002  0.160185  0.00104  3.779659  0.002  -0.815812  0.003015  -0.129813  0.174554  0.001738  3.74599  0.002
N  N107  1  0.28895475  0.20753675  0.85368875  1  0.050833  0.001979  3.567654  0.003  0.169213  0.001423  3.759079  0.002  0.160092  0.001042  3.779719  0.002  -0.815369  0.003015  -0.129884  0.174489  0.001737  3.745987  0.002
N  N108  1  0.28895338  0.70753524  0.64631125  1  0.05094  0.001966  3.567674  0.003  0.169259  0.001425  3.759144  0.002  0.160147  0.001039  3.779765  0.002  -0.815836  0.003015  -0.129871  0.174534  0.001737  3.746053  0.002
N  N109  1  0.71104564  0.79246392  0.14630984  1  0.050981  0.001971  3.567633  0.003  0.16935  0.001423  3.759067  0.002  0.160267  0.001041  3.779642  0.002  -0.815825  0.003015  -0.129805  0.174626  0.001738  3.745975  0.002
N  N110  1  0.32686631  0.37996711  0.07573780  1  0.058527  0.001715  3.541105  0.003  0.179932  0.001246  3.726308  0.002  0.169924  0.000895  3.748671  0.002  -0.79976  0.002685  -0.12682  0.18539  0.001513  3.712758  0.002
N  N111  1  0.67313770  0.12003385  0.57573920  1  0.058467  0.001721  3.540983  0.003  0.17986  0.001246  3.726175  0.002  0.169846  0.000895  3.74855  0.002  -0.799736  0.002685  -0.126825  0.185318  0.001512  3.712626  0.002
N  N112  1  0.67313540  0.62003357  0.92426127  1  0.058502  0.001717  3.541028  0.003  0.179889  0.001246  3.72625  0.002  0.169882  0.000895  3.74861  0.002  -0.799772  0.002685  -0.126805  0.185347  0.001512  3.7127  0.002
N  N113  1  0.32686230  0.87996560  0.42426267  1  0.05848  0.001727  3.541054  0.003  0.179898  0.001247  3.726241  0.002  0.169875  0.000895  3.748628  0.002  -0.799703  0.002685  -0.126829  0.185355  0.001512  3.71269  0.002
N  N114  1  0.46073127  0.19966742  0.04319923  1  -0.370504  0.072422  3.300794  0.097  -0.326528  0.051417  3.614869  0.073  -0.359921  0.041419  3.63556  0.063  -1.197247  0.089113  -0.363707  -0.305477  0.057698  3.601618  0.078
N  N115  1  0.53926972  0.30033230  0.54320064  1  -0.370515  0.072417  3.300774  0.097  -0.326558  0.051418  3.614857  0.073  -0.359966  0.041419  3.635567  0.063  -1.197286  0.089114  -0.36369  -0.30552  0.057698  3.601618  0.078
N  N116  1  0.53926912  0.80033326  0.95679936  1  -0.370518  0.07243  3.300782  0.097  -0.326548  0.051415  3.614853  0.073  -0.359941  0.041418  3.635547  0.063  -1.197307  0.08911  -0.36371  -0.305496  0.057696  3.601601  0.078
N  N117  1  0.46073068  0.69966837  0.45680124  1  -0.370508  0.072423  3.30084  0.097  -0.326506  0.051417  3.614885  0.073  -0.359913  0.041418  3.635596  0.063  -1.197267  0.089111  -0.363718  -0.305471  0.057697  3.601646  0.078
N  N118  1  0.51020571  0.45980894  0.07712477  1  -0.254912  0.009074  2.834506  0.011  -0.260453  0.004177  3.105062  0.005  -0.268731  0.002847  3.119088  0.004  -0.675371  0.0091  -0.21778  -0.254246  0.00567  3.095242  0.007
N  N119  1  0.48979699  0.04019202  0.57712665  1  -0.254847  0.009083  2.834459  0.011  -0.260376  0.004178  3.104999  0.005  -0.268648  0.002847  3.119017  0.004  -0.675418  0.0091  -0.217755  -0.254168  0.00567  3.095177  0.007
N  N120  1  0.48979469  0.54019174  0.92287335  1  -0.254852  0.009087  2.834464  0.011  -0.260383  0.004177  3.10501  0.005  -0.268658  0.002848  3.119033  0.004  -0.675389  0.009099  -0.217775  -0.254175  0.00567  3.095189  0.007
N  N121  1  0.51020170  0.95980743  0.42287523  1  -0.254803  0.00907  2.834448  0.011  -0.26034  0.004178  3.105009  0.005  -0.268613  0.002846  3.11903  0.004  -0.675382  0.0091  -0.217729  -0.254132  0.00567  3.095187  0.007
Cl  Cl122  1  0.87788007  0.67926553  0.52473531  1  -0.69997  -0.001547  0.65407  0.0  -0.657035  -0.002557  0.873179  -0.001  -0.669286  -0.002859  0.852591  -0.001  -0.771076  -0.00147  -0.383815  -0.647343  -0.002018  0.887474  0.0
Cl  Cl123  1  0.12212143  0.82073733  0.02473015  1  -0.699978  -0.001546  0.654068  0.0  -0.657073  -0.002558  0.873222  -0.001  -0.669311  -0.002859  0.852625  -0.001  -0.771047  -0.00147  -0.383812  -0.647359  -0.002018  0.887491  0.0
Cl  Cl124  1  0.12212164  0.32073515  0.47527078  1  -0.699951  -0.001546  0.654091  0.0  -0.657039  -0.002557  0.873226  -0.001  -0.669289  -0.002858  0.852636  -0.001  -0.77106  -0.00147  -0.383803  -0.647332  -0.002018  0.887495  0.0
Cl  Cl125  1  0.87787935  0.17926457  0.97526563  1  -0.699964  -0.001546  0.654084  0.0  -0.657054  -0.002558  0.873203  -0.001  -0.669298  -0.002859  0.852614  -0.001  -0.771049  -0.00147  -0.383811  -0.647353  -0.002018  0.887494  0.0
