# generated using pymatgen
data_CdH8C6N2O7
_symmetry_space_group_name_H-M   'P 1'
_cell_length_a   8.02815054
_cell_length_b   11.42417599
_cell_length_c   12.27705737
_cell_angle_alpha   110.19078570
_cell_angle_beta   90.00499699
_cell_angle_gamma   110.60859462
_symmetry_Int_Tables_number   1
_chemical_formula_structural   CdH8C6N2O7
_chemical_formula_sum   'Cd4 H32 C24 N8 O28'
_cell_volume   979.65096747
_cell_formula_units_Z   4
loop_
 _symmetry_equiv_pos_site_id
 _symmetry_equiv_pos_as_xyz
  1  'x, y, z'
loop_
 _atom_site_type_symbol
 _atom_site_label
 _atom_site_symmetry_multiplicity
 _atom_site_fract_x
 _atom_site_fract_y
 _atom_site_fract_z
 _atom_site_occupancy
 _atom_site_hle17_bader_spin_density
 _atom_site_hle17_ddec_charge
 _atom_site_hle17_ddec_spin_density
 _atom_site_hle17_ddec_sum_bond_order
 _atom_site_hle17_magmom
 _atom_site_hse06_10hf_bader_spin_density
 _atom_site_hse06_10hf_ddec_charge
 _atom_site_hse06_10hf_ddec_spin_density
 _atom_site_hse06_10hf_ddec_sum_bond_order
 _atom_site_hse06_10hf_magmom
 _atom_site_hse06_bader_spin_density
 _atom_site_hse06_ddec_charge
 _atom_site_hse06_ddec_spin_density
 _atom_site_hse06_ddec_sum_bond_order
 _atom_site_hse06_magmom
 _atom_site_pbe_bader_spin_density
 _atom_site_pbe_cm5_charge
 _atom_site_pbe_ddec_charge
 _atom_site_pbe_ddec_spin_density
 _atom_site_pbe_ddec_sum_bond_order
 _atom_site_pbe_magmom
Cd  Cd0  1  0.56166729  0.32634631  0.27499172  1  0  1.169845  0  1.597313  0  0  0.982848  0  2.03573  0  0  1.040858  0  1.981058  0  0  0.771526  0.941518  0  2.073133  0
Cd  Cd1  1  0.23533362  0.67372539  0.22505784  1  0  1.170601  0  1.595937  0  0  0.983522  0  2.03408  0  0  1.041457  0  1.979469  0  0  0.771628  0.942323  0  2.071482  0
Cd  Cd2  1  0.43832823  0.67365478  0.72500788  1  0  1.169766  0  1.597385  0  0  0.982801  0  2.035784  0  0  1.040811  0  1.981124  0  0  0.771489  0.941462  0  2.073196  0
Cd  Cd3  1  0.76466713  0.32627369  0.77494114  1  0  1.170599  0  1.595902  0  0  0.983707  0  2.033923  0  0  1.041453  0  1.979421  0  0  0.771632  0.942331  0  2.071436  0
H  H4  1  0.47943938  0.03339796  0.12859236  1  0  0.083811  0  0.983807  0  0  0.093199  0  1.049039  0  0  0.096049  0  1.046175  0  0  0.112592  0.091093  0  1.051111  0
H  H5  1  0.44672233  0.96675890  0.37156547  1  0  0.084475  0  0.983247  0  0  0.092978  0  1.049439  0  0  0.095811  0  1.046595  0  0  0.112522  0.090901  0  1.051479  0
H  H6  1  0.52055773  0.96660132  0.87141483  1  0  0.083831  0  0.983793  0  0  0.093205  0  1.049043  0  0  0.096053  0  1.046183  0  0  0.112583  0.091103  0  1.051113  0
H  H7  1  0.55328173  0.03323931  0.62843895  1  0  0.084486  0  0.983227  0  0  0.092998  0  1.049413  0  0  0.095832  0  1.046573  0  0  0.112528  0.090927  0  1.051431  0
H  H8  1  0.97680556  0.33530166  0.28146729  1  0  0.101861  0  0.942101  0  0  0.108817  0  1.009079  0  0  0.111891  0  1.00535  0  0  0.121223  0.106517  0  1.011844  0
H  H9  1  0.64150992  0.66477908  0.21891724  1  0  0.10175  0  0.941922  0  0  0.108629  0  1.008882  0  0  0.111687  0  1.005141  0  0  0.121259  0.106347  0  1.011657  0
H  H10  1  0.02318817  0.66470331  0.71852779  1  0  0.101841  0  0.942213  0  0  0.108784  0  1.009211  0  0  0.111838  0  1.005501  0  0  0.121187  0.106476  0  1.011982  0
H  H11  1  0.35848983  0.33521802  0.78108195  1  0  0.101685  0  0.941991  0  0  0.108587  0  1.008908  0  0  0.111631  0  1.00519  0  0  0.121215  0.106293  0  1.011708  0
H  H12  1  0.95592595  0.93772581  0.08191296  1  0  0.107813  0  0.954224  0  0  0.115279  0  1.019983  0  0  0.11869  0  1.016524  0  0  0.109467  0.112727  0  1.022572  0
H  H13  1  0.01903475  0.06240011  0.41821986  1  0  0.107291  0  0.952601  0  0  0.114788  0  1.018716  0  0  0.118255  0  1.015155  0  0  0.109166  0.112191  0  1.021374  0
H  H14  1  0.04407587  0.06228040  0.91809145  1  0  0.107794  0  0.954258  0  0  0.115215  0  1.020116  0  0  0.118654  0  1.016607  0  0  0.109447  0.112691  0  1.022657  0
H  H15  1  0.98096697  0.93759593  0.58177738  1  0  0.107314  0  0.952609  0  0  0.114803  0  1.018721  0  0  0.118273  0  1.01516  0  0  0.109167  0.112206  0  1.021377  0
H  H16  1  0.62120880  0.86243972  0.04008738  1  0  0.105505  0  0.957373  0  0  0.113673  0  1.02159  0  0  0.116941  0  1.020333  0  0  0.106924  0.111328  0  1.022675  0
H  H17  1  0.75978831  0.13768900  0.45997273  1  0  0.106175  0  0.957684  0  0  0.114167  0  1.021922  0  0  0.117429  0  1.020659  0  0  0.107101  0.111749  0  1.023143  0
H  H18  1  0.37879225  0.13756246  0.95991580  1  0  0.105507  0  0.957347  0  0  0.113696  0  1.021581  0  0  0.116983  0  1.020275  0  0  0.106912  0.111362  0  1.022643  0
H  H19  1  0.24021670  0.86231113  0.54002820  1  0  0.106156  0  0.957714  0  0  0.114157  0  1.021928  0  0  0.117409  0  1.020678  0  0  0.107103  0.111732  0  1.023167  0
H  H20  1  0.52275187  0.42429512  0.09415482  1  0  0.42424  0  0.876602  0  0  0.386032  0  0.952657  0  0  0.397693  0  0.935538  0  0  0.291868  0.377801  0  0.96472  0
H  H21  1  0.09868462  0.57576478  0.40580169  1  0  0.424352  0  0.87645  0  0  0.386415  0  0.952265  0  0  0.398121  0  0.935074  0  0  0.291868  0.378078  0  0.964494  0
H  H22  1  0.47724812  0.57570495  0.90584365  1  0  0.424268  0  0.876564  0  0  0.386121  0  0.952526  0  0  0.397714  0  0.935512  0  0  0.291874  0.377821  0  0.964695  0
H  H23  1  0.90131562  0.42423329  0.59419698  1  0  0.424332  0  0.876473  0  0  0.386417  0  0.952258  0  0  0.398124  0  0.935063  0  0  0.291866  0.378079  0  0.964488  0
H  H24  1  0.64499235  0.33622678  0.04813827  1  0  0.42932  0  0.865754  0  0  0.401242  0  0.924584  0  0  0.411195  0  0.910046  0  0  0.29311  0.394169  0  0.934916  0
H  H25  1  0.30916499  0.66394333  0.45180941  1  0  0.43031  0  0.864644  0  0  0.401942  0  0.923929  0  0  0.411964  0  0.909308  0  0  0.293346  0.394797  0  0.934366  0
H  H26  1  0.35500889  0.66377328  0.95186019  1  0  0.429323  0  0.865757  0  0  0.401242  0  0.924595  0  0  0.411198  0  0.910049  0  0  0.29311  0.39417  0  0.93492  0
H  H27  1  0.69083576  0.33605575  0.54818957  1  0  0.430317  0  0.864633  0  0  0.401934  0  0.923943  0  0  0.411954  0  0.909323  0  0  0.293341  0.394789  0  0.934379  0
H  H28  1  0.39240016  0.16650284  0.41051538  1  0  0.441966  0  0.799502  0  0  0.418157  0  0.862158  0  0  0.42692  0  0.85237  0  0  0.322286  0.411831  0  0.869307  0
H  H29  1  0.22582772  0.83343030  0.08952292  1  0  0.443417  0  0.798335  0  0  0.419519  0  0.861235  0  0  0.428299  0  0.851346  0  0  0.322577  0.413158  0  0.868484  0
H  H30  1  0.60760407  0.83349822  0.58948257  1  0  0.441952  0  0.799451  0  0  0.418149  0  0.86212  0  0  0.426913  0  0.85233  0  0  0.322301  0.411823  0  0.869265  0
H  H31  1  0.77417178  0.16656878  0.91047606  1  0  0.443417  0  0.798324  0  0  0.419516  0  0.861226  0  0  0.428297  0  0.851342  0  0  0.322579  0.413159  0  0.868471  0
H  H32  1  0.42832945  0.31714652  0.49339688  1  0  0.423172  0  0.881421  0  0  0.38407  0  0.958525  0  0  0.396281  0  0.940816  0  0  0.294548  0.375378  0  0.97109  0
H  H33  1  0.11122382  0.68277628  0.00656735  1  0  0.424565  0  0.880027  0  0  0.385061  0  0.957637  0  0  0.397209  0  0.940059  0  0  0.294653  0.376378  0  0.970179  0
H  H34  1  0.57167180  0.68285357  0.50660240  1  0  0.42319  0  0.881387  0  0  0.384076  0  0.958503  0  0  0.396286  0  0.940795  0  0  0.294561  0.375386  0  0.971065  0
H  H35  1  0.88877743  0.31722381  0.99343194  1  0  0.424577  0  0.88001  0  0  0.384978  0  0.95777  0  0  0.397217  0  0.940051  0  0  0.294641  0.376376  0  0.970187  0
C  C36  1  0.19126052  0.19080501  0.20969937  1  0  0.632427  0  3.955612  0  0  0.583167  0  4.245544  0  0  0.617916  0  4.241191  0  0  0.189942  0.559705  0  4.247483  0
C  C37  1  0.00073238  0.80922306  0.29061517  1  0  0.631146  0  3.958016  0  0  0.582012  0  4.248447  0  0  0.616768  0  4.244109  0  0  0.189462  0.558582  0  4.250422  0
C  C38  1  0.80873608  0.80919822  0.79030576  1  0  0.63245  0  3.955783  0  0  0.583232  0  4.245667  0  0  0.617973  0  4.241332  0  0  0.18992  0.55976  0  4.247631  0
C  C39  1  0.99926635  0.19077198  0.70938176  1  0  0.631149  0  3.957963  0  0  0.581993  0  4.248401  0  0  0.616755  0  4.244039  0  0  0.189469  0.558567  0  4.250358  0
C  C40  1  0.99049344  0.14223972  0.18375439  1  0  -0.10408  0  3.71937  0  0  -0.074154  0  3.950185  0  0  -0.087678  0  3.973575  0  0  -0.010078  -0.065785  0  3.93478  0
C  C41  1  0.84862433  0.85780715  0.31662839  1  0  -0.102229  0  3.71869  0  0  -0.074039  0  3.951966  0  0  -0.087545  0  3.975353  0  0  -0.0104  -0.065703  0  3.936622  0
C  C42  1  0.00950509  0.85776238  0.81624551  1  0  -0.104122  0  3.719326  0  0  -0.074244  0  3.950213  0  0  -0.087775  0  3.973616  0  0  -0.010084  -0.065882  0  3.934826  0
C  C43  1  0.15137536  0.14218983  0.68336588  1  0  -0.102399  0  3.71888  0  0  -0.074135  0  3.952027  0  0  -0.087636  0  3.975401  0  0  -0.010476  -0.065797  0  3.936673  0
C  C44  1  0.62409082  0.05938046  0.14165918  1  0  0.107594  0  3.717363  0  0  0.074937  0  3.965622  0  0  0.082649  0  3.985183  0  0  0.037261  0.069785  0  3.952858  0
C  C45  1  0.56526834  0.94068395  0.35856428  1  0  0.107841  0  3.717573  0  0  0.075891  0  3.965881  0  0  0.083627  0  3.985382  0  0  0.037893  0.070928  0  3.952657  0
C  C46  1  0.37590670  0.94061962  0.85834011  1  0  0.107586  0  3.717379  0  0  0.074927  0  3.965651  0  0  0.082635  0  3.985218  0  0  0.037283  0.069765  0  3.9529  0
C  C47  1  0.43473518  0.05931819  0.64143727  1  0  0.107776  0  3.717652  0  0  0.07581  0  3.965954  0  0  0.083537  0  3.985459  0  0  0.037871  0.070848  0  3.952734  0
C  C48  1  0.90098001  0.23027782  0.22824417  1  0  0.140534  0  3.648827  0  0  0.093729  0  3.902894  0  0  0.104614  0  3.918974  0  0  0.054652  0.086818  0  3.891815  0
C  C49  1  0.67086052  0.76977857  0.27212088  1  0  0.140068  0  3.649326  0  0  0.09427  0  3.903336  0  0  0.105154  0  3.919418  0  0  0.054926  0.087292  0  3.892352  0
C  C50  1  0.09902276  0.76972531  0.77175686  1  0  0.140521  0  3.649001  0  0  0.093741  0  3.903065  0  0  0.104634  0  3.919147  0  0  0.054649  0.086826  0  3.891999  0
C  C51  1  0.32913673  0.23021850  0.72787749  1  0  0.140166  0  3.649395  0  0  0.094353  0  3.90333  0  0  0.105237  0  3.919416  0  0  0.054977  0.087372  0  3.892355  0
C  C52  1  0.88892637  0.00801188  0.11595883  1  0  0.003169  0  3.675549  0  0  -0.02808  0  3.921711  0  0  -0.021893  0  3.938896  0  0  -0.055958  -0.031653  0  3.909896  0
C  C53  1  0.88161298  0.99207038  0.38429979  1  0  0.003684  0  3.672559  0  0  -0.027501  0  3.920186  0  0  -0.021346  0  3.93737  0  0  -0.056272  -0.031082  0  3.908389  0
C  C54  1  0.11107093  0.99199026  0.88404271  1  0  0.003305  0  3.675392  0  0  -0.027961  0  3.921667  0  0  -0.021766  0  3.938818  0  0  -0.055904  -0.031517  0  3.909806  0
C  C55  1  0.11838978  0.00792774  0.61570052  1  0  0.003661  0  3.672576  0  0  -0.027528  0  3.920129  0  0  -0.021378  0  3.937315  0  0  -0.056266  -0.031105  0  3.90833  0
C  C56  1  0.70312530  0.96618639  0.09355070  1  0  -0.102654  0  3.728959  0  0  -0.114161  0  3.982507  0  0  -0.122616  0  4.005236  0  0  -0.083207  -0.108787  0  3.967124  0
C  C57  1  0.73770387  0.03389021  0.40666892  1  0  -0.104371  0  3.727137  0  0  -0.115548  0  3.980927  0  0  -0.123976  0  4.003625  0  0  -0.083335  -0.110189  0  3.965647  0
C  C58  1  0.29687376  0.03381677  0.90645197  1  0  -0.102725  0  3.728848  0  0  -0.114264  0  3.982411  0  0  -0.122703  0  4.005118  0  0  -0.083238  -0.10888  0  3.967012  0
C  C59  1  0.26230436  0.96610890  0.59333088  1  0  -0.104256  0  3.727031  0  0  -0.115435  0  3.980807  0  0  -0.123859  0  4.003517  0  0  -0.083293  -0.110079  0  3.96552  0
N  N60  1  0.80055440  0.59045393  0.44347394  1  0  0.70328  0  4.11807  0  0  0.725411  0  4.416575  0  0  0.755007  0  4.422564  0  0  0.106206  0.705423  0  4.412156  0
N  N61  1  0.21008719  0.40967489  0.05646210  1  0  0.703064  0  4.117027  0  0  0.724629  0  4.415999  0  0  0.754416  0  4.421711  0  0  0.10511  0.706633  0  4.41132  0
N  N62  1  0.19944707  0.40954411  0.55652309  1  0  0.703425  0  4.117672  0  0  0.725558  0  4.41621  0  0  0.755172  0  4.422173  0  0  0.106213  0.705513  0  4.411866  0
N  N63  1  0.78991404  0.59032516  0.94353554  1  0  0.702931  0  4.117073  0  0  0.726588  0  4.415681  0  0  0.754246  0  4.421811  0  0  0.105018  0.706482  0  4.411394  0
N  N64  1  0.72121826  0.18931432  0.20822163  1  0  -0.359621  0  3.287472  0  0  -0.272798  0  3.553808  0  0  -0.296665  0  3.574173  0  0  -0.336364  -0.256497  0  3.539266  0
N  N65  1  0.53216255  0.81075393  0.29202946  1  0  -0.3605  0  3.289081  0  0  -0.273884  0  3.554916  0  0  -0.29773  0  3.575219  0  0  -0.33726  -0.257573  0  3.54042  0
N  N66  1  0.27877778  0.81068779  0.79177909  1  0  -0.35957  0  3.287702  0  0  -0.272705  0  3.553973  0  0  -0.296573  0  3.574341  0  0  -0.336315  -0.256404  0  3.539427  0
N  N67  1  0.46783673  0.18924719  0.70797096  1  0  -0.360498  0  3.289164  0  0  -0.273888  0  3.554977  0  0  -0.297739  0  3.575309  0  0  -0.337264  -0.257584  0  3.540508  0
O  O68  1  0.26630646  0.10577957  0.18172486  1  0  -0.655804  0  1.938129  0  0  -0.603036  0  2.173227  0  0  -0.629608  0  2.164596  0  0  -0.336869  -0.584233  0  2.178419  0
O  O69  1  0.16095102  0.89420603  0.31863138  1  0  -0.65526  0  1.940335  0  0  -0.602147  0  2.175348  0  0  -0.628732  0  2.166735  0  0  -0.336141  -0.583339  0  2.180438  0
O  O70  1  0.73369847  0.89422289  0.81828982  1  0  -0.655777  0  1.938225  0  0  -0.603002  0  2.173283  0  0  -0.629571  0  2.164655  0  0  -0.336826  -0.584203  0  2.178481  0
O  O71  1  0.83904729  0.10578816  0.68137181  1  0  -0.655237  0  1.940264  0  0  -0.602113  0  2.175247  0  0  -0.6287  0  2.166635  0  0  -0.336129  -0.583309  0  2.180342  0
O  O72  1  0.27649493  0.31806566  0.25990797  1  0  -0.634575  0  1.987184  0  0  -0.573417  0  2.235692  0  0  -0.604823  0  2.227942  0  0  -0.338058  -0.551282  0  2.240067  0
O  O73  1  0.95843692  0.68196003  0.24025623  1  0  -0.634761  0  1.987823  0  0  -0.573101  0  2.235803  0  0  -0.604642  0  2.228341  0  0  -0.337973  -0.551016  0  2.240073  0
O  O74  1  0.72350184  0.68193542  0.74009081  1  0  -0.634624  0  1.987221  0  0  -0.573422  0  2.235636  0  0  -0.604857  0  2.22794  0  0  -0.338051  -0.551307  0  2.240046  0
O  O75  1  0.04156106  0.31803601  0.75974101  1  0  -0.634735  0  1.987836  0  0  -0.573105  0  2.235843  0  0  -0.604638  0  2.228378  0  0  -0.337972  -0.551009  0  2.240105  0
O  O76  1  0.86064663  0.49662425  0.39928842  1  0  -0.487517  0  1.823302  0  0  -0.454667  0  2.044994  0  0  -0.475684  0  2.037629  0  0  -0.17721  -0.440027  0  2.049938  0
O  O77  1  0.36416128  0.50352432  0.10055123  1  0  -0.486711  0  1.822829  0  0  -0.45323  0  2.044154  0  0  -0.474107  0  2.036548  0  0  -0.175848  -0.4396  0  2.049273  0
O  O78  1  0.13935309  0.50337278  0.60070830  1  0  -0.487589  0  1.82318  0  0  -0.454778  0  2.044919  0  0  -0.475804  0  2.037552  0  0  -0.177214  -0.440118  0  2.049882  0
O  O79  1  0.63583873  0.49647577  0.89944806  1  0  -0.486757  0  1.822915  0  0  -0.454213  0  2.044308  0  0  -0.474137  0  2.036637  0  0  -0.175877  -0.439627  0  2.049351  0
O  O80  1  0.63139054  0.55993844  0.41651761  1  0  -0.482025  0  1.814248  0  0  -0.443238  0  2.029621  0  0  -0.464877  0  2.022103  0  0  -0.178867  -0.428085  0  2.034527  0
O  O81  1  0.07150275  0.44016559  0.08355515  1  0  -0.483074  0  1.814722  0  0  -0.443665  0  2.030203  0  0  -0.465384  0  2.022598  0  0  -0.179251  -0.42939  0  2.03528  0
O  O82  1  0.36861070  0.44006162  0.58348086  1  0  -0.481959  0  1.81413  0  0  -0.443289  0  2.02963  0  0  -0.464934  0  2.022111  0  0  -0.178867  -0.428108  0  2.034537  0
O  O83  1  0.92849721  0.55983442  0.91644086  1  0  -0.482918  0  1.814652  0  0  -0.444441  0  2.0302  0  0  -0.465208  0  2.022523  0  0  -0.179178  -0.429289  0  2.035263  0
O  O84  1  0.61387788  0.39473969  0.11812023  1  0  -0.827373  0  1.877326  0  0  -0.76585  0  2.079023  0  0  -0.787373  0  2.04338  0  0  -0.591152  -0.750568  0  2.103751  0
O  O85  1  0.21942045  0.60523274  0.38183419  1  0  -0.828832  0  1.875823  0  0  -0.767316  0  2.07707  0  0  -0.788905  0  2.041267  0  0  -0.591639  -0.751991  0  2.102081  0
O  O86  1  0.38611913  0.60525939  0.88187875  1  0  -0.827393  0  1.877311  0  0  -0.765847  0  2.078925  0  0  -0.787382  0  2.043358  0  0  -0.591156  -0.750581  0  2.103742  0
O  O87  1  0.78058030  0.39476634  0.61816479  1  0  -0.82882  0  1.875832  0  0  -0.767287  0  2.077021  0  0  -0.788883  0  2.041246  0  0  -0.591631  -0.751972  0  2.102061  0
O  O88  1  0.48670873  0.25626262  0.44374701  1  0  -0.826922  0  1.870337  0  0  -0.763626  0  2.068096  0  0  -0.785614  0  2.037778  0  0  -0.560827  -0.747965  0  2.089392  0
O  O89  1  0.23050176  0.74375943  0.05630851  1  0  -0.829813  0  1.867331  0  0  -0.766401  0  2.065905  0  0  -0.78845  0  2.035468  0  0  -0.561298  -0.750682  0  2.087287  0
O  O90  1  0.51329426  0.74373846  0.55625176  1  0  -0.826882  0  1.870241  0  0  -0.763624  0  2.068039  0  0  -0.785612  0  2.037719  0  0  -0.560863  -0.747965  0  2.08933  0
O  O91  1  0.76949825  0.25624066  0.94369078  1  0  -0.829798  0  1.867316  0  0  -0.766404  0  2.065974  0  0  -0.788435  0  2.035437  0  0  -0.561279  -0.750665  0  2.087274  0
O  O92  1  0.89911876  0.70495212  0.50886992  1  0  -0.393654  0  1.792623  0  0  -0.387163  0  2.009218  0  0  -0.399568  0  2.004272  0  0  -0.142507  -0.378565  0  2.012667  0
O  O93  1  0.19389638  0.29518353  0.99101583  1  0  -0.393553  0  1.790084  0  0  -0.387105  0  2.006734  0  0  -0.399695  0  2.001823  0  0  -0.142592  -0.379429  0  2.010213  0
O  O94  1  0.10088393  0.29504586  0.49112465  1  0  -0.393712  0  1.792451  0  0  -0.387172  0  2.008993  0  0  -0.39959  0  2.004044  0  0  -0.14251  -0.378559  0  2.012467  0
O  O95  1  0.80610559  0.70481551  0.00898150  1  0  -0.393495  0  1.790076  0  0  -0.387991  0  2.006717  0  0  -0.399635  0  2.001828  0  0  -0.142555  -0.379367  0  2.010204  0
