# generated using pymatgen
data_ZnH9C9N3ClO4
_symmetry_space_group_name_H-M   'P 1'
_cell_length_a   9.64599782
_cell_length_b   10.58897613
_cell_length_c   10.63283605
_cell_angle_alpha   92.73378813
_cell_angle_beta   90.29455589
_cell_angle_gamma   90.47489093
_symmetry_Int_Tables_number   1
_chemical_formula_structural   ZnH9C9N3ClO4
_chemical_formula_sum   'Zn2 H18 C18 N6 Cl2 O8'
_cell_volume   1084.76112959
_cell_formula_units_Z   2
loop_
 _symmetry_equiv_pos_site_id
 _symmetry_equiv_pos_as_xyz
  1  'x, y, z'
loop_
 _atom_site_type_symbol
 _atom_site_label
 _atom_site_symmetry_multiplicity
 _atom_site_fract_x
 _atom_site_fract_y
 _atom_site_fract_z
 _atom_site_occupancy
 _atom_site_pbe_bader_charge
 _atom_site_pbe_bader_spin_density
 _atom_site_pbe_cm5_charge
 _atom_site_pbe_ddec_charge
 _atom_site_pbe_ddec_spin_density
 _atom_site_pbe_ddec_sum_bond_order
 _atom_site_pbe_magmom
Zn  Zn0  1  0.65070604  0.48211681  0.48201150  1  1.29838  0  0.685487  0.86191  0  2.341684  0
Zn  Zn1  1  0.35006418  0.48529393  0.48305514  1  1.282189  0  0.682161  0.856364  0  2.328487  0
H  H2  1  0.28701617  0.57472902  0.09966380  1  0.09326  0  0.12166  0.116578  0  1.009851  0
H  H3  1  0.71585247  0.56420740  0.11230591  1  0.139202  0  0.119607  0.124567  0  1.018654  0
H  H4  1  0.29659237  0.59413368  0.86339083  1  0.111169  0  0.118889  0.113963  0  1.013418  0
H  H5  1  0.13115826  0.32466990  0.59981489  1  0.087743  0  0.112494  0.10066  0  0.968272  0
H  H6  1  0.11058849  0.47411797  0.67831721  1  0.066184  0  0.112014  0.101431  0  0.970414  0
H  H7  1  0.86777362  0.43159508  0.67111758  1  0.107133  0  0.104074  0.099249  0  1.014933  0
H  H8  1  0.88853862  0.30264832  0.56062411  1  0.076826  0  0.112136  0.099887  0  0.966931  0
H  H9  1  0.88866645  0.64454655  0.59345936  1  0.102384  0  0.100386  0.092462  0  1.008061  0
H  H10  1  0.86998971  0.66889868  0.43187599  1  0.075125  0  0.112488  0.106374  0  0.966893  0
H  H11  1  0.13160781  0.66498033  0.56260844  1  0.084716  0  0.111933  0.101501  0  0.974422  0
H  H12  1  0.11311260  0.65283019  0.39729433  1  0.065535  0  0.115066  0.103392  0  0.952697  0
H  H13  1  0.11103535  0.31060739  0.37343727  1  0.092681  0  0.114508  0.103097  0  0.959661  0
H  H14  1  0.13227771  0.44703562  0.28560408  1  0.086612  0  0.112282  0.104902  0  0.983362  0
H  H15  1  0.88973478  0.48723440  0.28531726  1  0.061537  0  0.111988  0.099037  0  0.971788  0
H  H16  1  0.86796906  0.33253399  0.33853285  1  0.07972  0  0.116378  0.10825  0  0.956702  0
H  H17  1  0.28101578  0.10441661  0.54097563  1  0.11893  0  0.11937  0.113361  0  1.018483  0
H  H18  1  0.70679285  0.12009779  0.57984054  1  0.133263  0  0.119697  0.124926  0  1.014874  0
H  H19  1  0.28420214  0.87059499  0.58245717  1  0.124617  0  0.117664  0.111318  0  1.01703  0
C  C20  1  0.50300131  0.49920240  0.72582440  1  2.000518  0  0.293916  0.682975  0  4.229636  0
C  C21  1  0.49664343  0.50326809  0.24072262  1  1.98133  0  0.302843  0.683696  0  4.211933  0
C  C22  1  0.50001827  0.24030122  0.48322131  1  1.988725  0  0.301709  0.682622  0  4.211597  0
C  C23  1  0.50308581  0.72870032  0.51671867  1  1.983016  0  0.296235  0.687157  0  4.221117  0
C  C24  1  0.63139968  0.55651299  0.92620412  1  0.458515  0  0.098127  0.165593  0  4.065802  0
C  C25  1  0.37944822  0.55628898  0.04437185  1  0.416076  0  -0.003599  -0.068308  0  4.038663  0
C  C26  1  0.62611473  0.54741671  0.05183296  1  0.410021  0  -0.005818  -0.129581  0  3.994868  0
C  C27  1  0.38474645  0.56715316  0.91952612  1  0.294326  0  -0.009234  -0.063716  0  4.029482  0
C  C28  1  0.07918096  0.41608854  0.59464725  1  0.232007  0  -0.066848  -0.086026  0  3.820181  0
C  C29  1  0.92007382  0.40088238  0.58377701  1  0.171057  0  -0.070597  -0.09246  0  3.810744  0
C  C30  1  0.92132886  0.60973714  0.49965991  1  0.178551  0  -0.073793  -0.097522  0  3.837346  0
C  C31  1  0.08004412  0.61108574  0.48490514  1  0.24137  0  -0.068132  -0.086085  0  3.82754  0
C  C32  1  0.07965686  0.40950731  0.36716357  1  0.209838  0  -0.06701  -0.091479  0  3.818868  0
C  C33  1  0.92052222  0.42357785  0.35873085  1  0.208652  0  -0.066173  -0.087419  0  3.822152  0
C  C34  1  0.62227406  0.93292651  0.57926651  1  0.366898  0  0.095048  0.163369  0  4.077603  0
C  C35  1  0.37427026  0.04788876  0.53813706  1  0.298987  0  -0.00469  -0.06917  0  4.039333  0
C  C36  1  0.62065556  0.05670996  0.55612244  1  0.513357  0  -0.004967  -0.127303  0  3.99008  0
C  C37  1  0.37629700  0.92454901  0.56058540  1  0.352396  0  -0.009066  -0.061917  0  4.033763  0
N  N38  1  0.50939063  0.54363713  0.85188216  1  -1.19477  0  -0.252721  -0.155716  0  3.654704  0
N  N39  1  0.49961004  0.52683084  0.11227446  1  -1.222392  0  -0.251989  -0.079976  0  3.704479  0
N  N40  1  0.86683906  0.47816693  0.48047460  1  -0.960972  0  -0.340634  -0.105846  0  3.444031  0
N  N41  1  0.13355446  0.47941794  0.48256141  1  -0.967213  0  -0.340852  -0.109423  0  3.448613  0
N  N42  1  0.50275674  0.85666638  0.55676007  1  -1.191757  0  -0.257485  -0.161245  0  3.66378  0
N  N43  1  0.49853306  0.11322667  0.51470629  1  -1.211926  0  -0.251109  -0.077668  0  3.695289  0
Cl  Cl44  1  0.78455046  0.60892087  0.86145650  1  -0.195803  0  -0.011779  -0.094961  0  1.583762  0
Cl  Cl45  1  0.75928596  0.87517077  0.66439191  1  -0.191171  0  -0.019588  -0.105011  0  1.570183  0
O  O46  1  0.61934615  0.28919134  0.46806219  1  -1.181821  0  -0.328401  -0.589196  0  2.327483  0
O  O47  1  0.38222770  0.29334132  0.47420472  1  -1.185008  0  -0.329354  -0.59843  0  2.324046  0
O  O48  1  0.62015542  0.67558953  0.50292117  1  -1.179778  0  -0.328149  -0.596345  0  2.37379  0
O  O49  1  0.38346782  0.67828806  0.49935222  1  -1.18149  0  -0.330942  -0.599812  0  2.349891  0
O  O50  1  0.61684169  0.47058719  0.67210951  1  -1.187987  0  -0.332269  -0.595898  0  2.377419  0
O  O51  1  0.37738725  0.49632303  0.29093390  1  -1.179845  0  -0.325605  -0.59167  0  2.327799  0
O  O52  1  0.38183157  0.49286219  0.67685664  1  -1.180045  0  -0.330346  -0.59642  0  2.32418  0
O  O53  1  0.61460919  0.49182255  0.29323833  1  -1.180869  0  -0.32701  -0.590043  0  2.348315  0
