# generated using pymatgen
data_CuH7C8SO2
_symmetry_space_group_name_H-M   'P 1'
_cell_length_a   3.89435865
_cell_length_b   5.26795230
_cell_length_c   18.66331739
_cell_angle_alpha   89.99782606
_cell_angle_beta   90.00121261
_cell_angle_gamma   91.50142680
_symmetry_Int_Tables_number   1
_chemical_formula_structural   CuH7C8SO2
_chemical_formula_sum   'Cu2 H14 C16 S2 O4'
_cell_volume   382.75201827
_cell_formula_units_Z   2
loop_
 _symmetry_equiv_pos_site_id
 _symmetry_equiv_pos_as_xyz
  1  'x, y, z'
loop_
 _atom_site_type_symbol
 _atom_site_label
 _atom_site_symmetry_multiplicity
 _atom_site_fract_x
 _atom_site_fract_y
 _atom_site_fract_z
 _atom_site_occupancy
 _atom_site_hle17_bader_spin_density
 _atom_site_hle17_ddec_charge
 _atom_site_hle17_ddec_spin_density
 _atom_site_hle17_ddec_sum_bond_order
 _atom_site_hle17_magmom
 _atom_site_hse06_10hf_bader_spin_density
 _atom_site_hse06_10hf_ddec_charge
 _atom_site_hse06_10hf_ddec_spin_density
 _atom_site_hse06_10hf_ddec_sum_bond_order
 _atom_site_hse06_10hf_magmom
 _atom_site_hse06_bader_spin_density
 _atom_site_hse06_ddec_charge
 _atom_site_hse06_ddec_spin_density
 _atom_site_hse06_ddec_sum_bond_order
 _atom_site_hse06_magmom
 _atom_site_pbe_bader_spin_density
 _atom_site_pbe_cm5_charge
 _atom_site_pbe_ddec_charge
 _atom_site_pbe_ddec_spin_density
 _atom_site_pbe_ddec_sum_bond_order
 _atom_site_pbe_magmom
Cu  Cu0  1  0.76945061  0.85393280  0.52437003  1  0  0.343272  0  2.108563  0  0  0.285484  0  2.585545  0  0  0.282709  0  2.537917  0  0  0.336253  0.288094  0  2.618749  0
Cu  Cu1  1  0.26950200  0.35393804  0.47563648  1  0  0.343224  0  2.108861  0  0  0.285433  0  2.585873  0  0  0.28266  0  2.538255  0  0  0.336226  0.288052  0  2.619075  0
H  H2  1  0.59498677  0.49838386  0.60931261  1  0  0.075054  0  0.997406  0  0  0.08116  0  1.07837  0  0  0.087825  0  1.070199  0  0  0.076295  0.076071  0  1.084737  0
H  H3  1  0.09497892  0.99837472  0.39069183  1  0  0.075071  0  0.997361  0  0  0.081202  0  1.078293  0  0  0.087873  0  1.070116  0  0  0.076273  0.076112  0  1.084652  0
H  H4  1  0.61743180  0.67654691  0.73282772  1  0  0.09261  0  0.98492  0  0  0.102313  0  1.049326  0  0  0.104848  0  1.047921  0  0  0.103268  0.100553  0  1.050212  0
H  H5  1  0.11743220  0.17655680  0.26717578  1  0  0.092549  0  0.984902  0  0  0.102246  0  1.049347  0  0  0.10478  0  1.047946  0  0  0.103267  0.100489  0  1.050229  0
H  H6  1  0.02395915  0.03820343  0.81162457  1  0  0.107346  0  0.946652  0  0  0.114688  0  1.011959  0  0  0.118385  0  1.008752  0  0  0.109849  0.112045  0  1.014248  0
H  H7  1  0.52399971  0.53819930  0.18837470  1  0  0.107358  0  0.946653  0  0  0.114664  0  1.012015  0  0  0.11836  0  1.008807  0  0  0.109819  0.112024  0  1.014305  0
H  H8  1  0.99786748  0.85840024  0.68792084  1  0  0.091849  0  0.978146  0  0  0.104762  0  1.038933  0  0  0.107359  0  1.038185  0  0  0.096204  0.10294  0  1.039437  0
H  H9  1  0.49791364  0.35837951  0.31207716  1  0  0.091711  0  0.978102  0  0  0.104606  0  1.038929  0  0  0.107223  0  1.038151  0  0  0.09613  0.102776  0  1.039456  0
H  H10  1  0.32546661  0.82033946  0.95540766  1  0  0.094968  0  0.948177  0  0  0.112287  0  1.015214  0  0  0.112636  0  1.014647  0  0  0.104447  0.111988  0  1.015623  0
H  H11  1  0.82551809  0.32034156  0.04459257  1  0  0.095087  0  0.94813  0  0  0.112326  0  1.015288  0  0  0.112677  0  1.014723  0  0  0.104455  0.112025  0  1.015698  0
H  H12  1  0.71333944  0.97263309  0.92336203  1  0  0.104143  0  0.936823  0  0  0.120522  0  1.002942  0  0  0.12143  0  1.001745  0  0  0.105449  0.119719  0  1.003997  0
H  H13  1  0.21338446  0.47263105  0.07663208  1  0  0.103913  0  0.937087  0  0  0.12031  0  1.003187  0  0  0.12122  0  1.001987  0  0  0.105391  0.119512  0  1.00424  0
H  H14  1  0.72433840  0.66190994  0.96332569  1  0  0.098259  0  0.954296  0  0  0.113104  0  1.024401  0  0  0.113722  0  1.023504  0  0  0.103087  0.112602  0  1.025103  0
H  H15  1  0.22437043  0.16192044  0.03667693  1  0  0.098156  0  0.954475  0  0  0.113012  0  1.024567  0  0  0.113627  0  1.023681  0  0  0.103057  0.112511  0  1.025263  0
C  C16  1  0.29256544  0.16699691  0.64124163  1  0  0.124979  0  3.741208  0  0  0.149157  0  3.973253  0  0  0.151229  0  3.9999  0  0  -0.010624  0.147618  0  3.955258  0
C  C17  1  0.79254790  0.66697878  0.35876129  1  0  0.124903  0  3.741439  0  0  0.149047  0  3.973545  0  0  0.151115  0  4.000199  0  0  -0.010717  0.147511  0  3.95554  0
C  C18  1  0.46834753  0.39796994  0.65372619  1  0  -0.124555  0  3.750051  0  0  -0.133801  0  3.986591  0  0  -0.141298  0  4.010572  0  0  -0.101349  -0.128718  0  3.970596  0
C  C19  1  0.96831394  0.89795920  0.34627816  1  0  -0.124633  0  3.750189  0  0  -0.133903  0  3.986772  0  0  -0.141407  0  4.010765  0  0  -0.101281  -0.128815  0  3.970759  0
C  C20  1  0.48365976  0.49690122  0.72265659  1  0  -0.055605  0  3.754158  0  0  -0.082224  0  4.001106  0  0  -0.08032  0  4.02296  0  0  -0.081781  -0.08323  0  3.985979  0
C  C21  1  0.98368189  0.99689046  0.27734775  1  0  -0.05532  0  3.754037  0  0  -0.081951  0  4.001  0  0  -0.080037  0  4.022874  0  0  -0.081698  -0.082955  0  3.985864  0
C  C22  1  0.32593291  0.36805100  0.78010063  1  0  -0.080838  0  3.777885  0  0  -0.061274  0  4.0177  0  0  -0.070791  0  4.040507  0  0  -0.019456  -0.055096  0  4.002393  0
C  C23  1  0.82594936  0.86807189  0.21990011  1  0  -0.081018  0  3.777746  0  0  -0.061535  0  4.017565  0  0  -0.071087  0  4.040434  0  0  -0.019589  -0.055358  0  4.002257  0
C  C24  1  0.14863038  0.13766037  0.76720295  1  0  -0.035393  0  3.704879  0  0  -0.064157  0  3.959039  0  0  -0.061509  0  3.977563  0  0  -0.073881  -0.065735  0  3.946371  0
C  C25  1  0.64865211  0.63766446  0.23279098  1  0  -0.035256  0  3.70468  0  0  -0.06398  0  3.958824  0  0  -0.061319  0  3.977361  0  0  -0.073702  -0.065558  0  3.946159  0
C  C26  1  0.13244174  0.03813344  0.69831220  1  0  -0.117818  0  3.732304  0  0  -0.133137  0  3.974563  0  0  -0.139186  0  3.99863  0  0  -0.094376  -0.12906  0  3.958176  0
C  C27  1  0.63248119  0.53811956  0.30168281  1  0  -0.11769  0  3.731977  0  0  -0.132973  0  3.97424  0  0  -0.139026  0  3.998306  0  0  -0.094379  -0.128903  0  3.957847  0
C  C28  1  0.34512383  0.46681229  0.85456757  1  0  0.577782  0  3.812273  0  0  0.528066  0  4.104411  0  0  0.561998  0  4.095917  0  0  0.232398  0.504944  0  4.109845  0
C  C29  1  0.84516014  0.96679816  0.14542032  1  0  0.577499  0  3.813183  0  0  0.527992  0  4.104971  0  0  0.56191  0  4.096503  0  0  0.232435  0.504867  0  4.110402  0
C  C30  1  0.57541377  0.79089263  0.93039096  1  0  -0.072083  0  3.583278  0  0  -0.177297  0  3.855425  0  0  -0.168202  0  3.856464  0  0  -0.144292  -0.183387  0  3.854736  0
C  C31  1  0.07547395  0.29089695  0.06961045  1  0  -0.071968  0  3.5836  0  0  -0.177159  0  3.855723  0  0  -0.168071  0  3.85677  0  0  -0.144247  -0.183247  0  3.855033  0
S  S32  1  0.27583601  0.02879601  0.55427768  1  0  -0.401929  0  3.20413  0  0  -0.361522  0  3.775184  0  0  -0.35985  0  3.72846  0  0  -0.291561  -0.362811  0  3.80799  0
S  S33  1  0.77584482  0.52879377  0.44572462  1  0  -0.401924  0  3.204247  0  0  -0.36149  0  3.775288  0  0  -0.359822  0  3.728575  0  0  -0.291543  -0.362777  0  3.808086  0
O  O34  1  0.20887027  0.36196191  0.90643910  1  0  -0.525219  0  1.93996  0  0  -0.478652  0  2.158918  0  0  -0.499041  0  2.152578  0  0  -0.275024  -0.464627  0  2.162974  0
O  O35  1  0.70895758  0.86197427  0.09355574  1  0  -0.524961  0  1.941101  0  0  -0.478488  0  2.159977  0  0  -0.498871  0  2.153644  0  0  -0.274891  -0.464465  0  2.164027  0
O  O36  1  0.53193790  0.68659672  0.85892935  1  0  -0.2968  0  2.31202  0  0  -0.21945  0  2.558232  0  0  -0.241917  0  2.558257  0  0  -0.174885  -0.203888  0  2.557709  0
O  O37  1  0.03200361  0.18659053  0.14107306  1  0  -0.296725  0  2.311758  0  0  -0.219388  0  2.557865  0  0  -0.241836  0  2.55788  0  0  -0.175024  -0.203823  0  2.557337  0
