# generated using pymatgen
data_AlH9C27(BrO)6
_symmetry_space_group_name_H-M   'P 1'
_cell_length_a   4.06875438
_cell_length_b   27.89352414
_cell_length_c   27.91829586
_cell_angle_alpha   60.02076266
_cell_angle_beta   89.74006135
_cell_angle_gamma   89.46492400
_symmetry_Int_Tables_number   1
_chemical_formula_structural   AlH9C27(BrO)6
_chemical_formula_sum   'Al3 H27 C81 Br18 O18'
_cell_volume   2744.45604359
_cell_formula_units_Z   3
loop_
 _symmetry_equiv_pos_site_id
 _symmetry_equiv_pos_as_xyz
  1  'x, y, z'
loop_
 _atom_site_type_symbol
 _atom_site_label
 _atom_site_symmetry_multiplicity
 _atom_site_fract_x
 _atom_site_fract_y
 _atom_site_fract_z
 _atom_site_occupancy
 _atom_site_pbe_bader_charge
 _atom_site_pbe_bader_spin_density
 _atom_site_pbe_cm5_charge
 _atom_site_pbe_ddec_charge
 _atom_site_pbe_ddec_spin_density
 _atom_site_pbe_ddec_sum_bond_order
 _atom_site_pbe_magmom
Al  Al0  1  0.99959291  0.50000265  0.49997810  1  2.509079  0  0.432824  1.637907  0  2.527041  0
Al  Al1  1  0.94911629  0.83317766  0.83329974  1  2.506644  0  0.425201  1.634048  0  2.510277  0
Al  Al2  1  0.06209632  0.16639696  0.16633690  1  2.509192  0  0.425526  1.635297  0  2.508051  0
H  H3  1  0.51347549  0.07747218  0.92232109  1  0.060789  0  0.101818  0.103564  0  1.025734  0
H  H4  1  0.49628717  0.25519756  0.83339956  1  0.065091  0  0.102584  0.105509  0  1.019231  0
H  H5  1  0.52493669  0.16609008  0.74476016  1  0.056537  0  0.102426  0.105764  0  1.018497  0
H  H6  1  0.71443530  0.01283930  0.91465074  1  0.073304  0  0.103159  0.117628  0  1.008917  0
H  H7  1  0.25413856  0.09726039  0.75341073  1  0.084219  0  0.103208  0.117339  0  1.009127  0
H  H8  1  0.30784822  0.08548403  0.98605523  1  0.105661  0  0.103199  0.117164  0  1.009307  0
H  H9  1  0.76245205  0.24669805  0.90271799  1  0.083498  0  0.103266  0.117351  0  1.008879  0
H  H10  1  0.75014478  0.31669838  0.76228377  1  0.070319  0  0.101009  0.11432  0  1.015564  0
H  H11  1  0.26807023  0.23738535  0.68317954  1  0.070545  0  0.101124  0.114512  0  1.014929  0
H  H12  1  0.51250792  0.49976084  0.07760772  1  0.046589  0  0.101858  0.103409  0  1.024731  0
H  H13  1  0.52535474  0.58889230  0.16619639  1  0.059905  0  0.102746  0.106063  0  1.018372  0
H  H14  1  0.49631180  0.41122321  0.25520913  1  0.058061  0  0.102718  0.10585  0  1.018473  0
H  H15  1  0.29852491  0.42833185  0.08580404  1  0.062493  0  0.103265  0.117531  0  1.008717  0
H  H16  1  0.76147615  0.34951633  0.24683762  1  0.079111  0  0.10338  0.117603  0  1.008314  0
H  H17  1  0.72401465  0.57157274  0.01382570  1  0.062151  0  0.103348  0.117911  0  1.007965  0
H  H18  1  0.25295418  0.64973935  0.09674341  1  0.081388  0  0.103216  0.117167  0  1.008805  0
H  H19  1  0.26047437  0.57929924  0.23739237  1  0.093381  0  0.100827  0.114266  0  1.014653  0
H  H20  1  0.75930971  0.42099903  0.31656690  1  0.106285  0  0.101023  0.114044  0  1.014836  0
H  H21  1  0.48398958  0.92293033  0.49972103  1  0.04068  0  0.101782  0.103352  0  1.02463  0
H  H22  1  0.46585420  0.83414603  0.41084078  1  0.058235  0  0.102826  0.106342  0  1.017938  0
H  H23  1  0.49249063  0.74514107  0.58840421  1  0.061187  0  0.102411  0.105211  0  1.019783  0
H  H24  1  0.69212490  0.91463656  0.57123963  1  0.06667  0  0.103163  0.117071  0  1.009561  0
H  H25  1  0.23583264  0.75353688  0.65004968  1  0.078221  0  0.103509  0.117582  0  1.008227  0
H  H26  1  0.28075846  0.98783834  0.42686803  1  0.065266  0  0.103226  0.117457  0  1.007692  0
H  H27  1  0.74803623  0.90204576  0.35131419  1  0.083124  0  0.103062  0.116837  0  1.00975  0
H  H28  1  0.72629631  0.76274544  0.42058086  1  0.104879  0  0.100992  0.114491  0  1.015928  0
H  H29  1  0.23491403  0.68369864  0.57869015  1  0.073739  0  0.101356  0.114988  0  1.014533  0
C  C30  1  0.49415583  0.57380059  0.49993676  1  1.624714  0  0.271877  0.677786  0  4.047343  0
C  C31  1  0.50221364  0.42629760  0.57367478  1  1.627024  0  0.270564  0.675545  0  4.049223  0
C  C32  1  0.50228197  0.50003601  0.42622357  1  1.627932  0  0.270959  0.676084  0  4.046888  0
C  C33  1  0.44637443  0.90672476  0.83332667  1  1.633709  0  0.271752  0.677677  0  4.07148  0
C  C34  1  0.45221812  0.75963742  0.90685311  1  1.650876  0  0.271255  0.677812  0  4.07024  0
C  C35  1  0.45111856  0.83290859  0.75994292  1  1.64656  0  0.271244  0.67768  0  4.072014  0
C  C36  1  0.56360928  0.16685451  0.09263759  1  1.644358  0  0.271095  0.677621  0  4.072109  0
C  C37  1  0.55646129  0.23973108  0.16695452  1  1.624899  0  0.271977  0.67774  0  4.071506  0
C  C38  1  0.56296363  0.09269710  0.23973388  1  1.637922  0  0.27108  0.677506  0  4.072423  0
C  C39  1  0.51927403  0.16630521  0.88402920  1  0.007375  0  -0.005669  0.080777  0  4.014717  0
C  C40  1  0.51293078  0.11646237  0.88329493  1  -0.050988  0  -0.08506  -0.169317  0  3.916301  0
C  C41  1  0.50501407  0.11558317  0.83357275  1  -0.000557  0  -0.00497  0.081777  0  4.012479  0
C  C42  1  0.51151130  0.16612983  0.78371306  1  -0.056374  0  -0.085774  -0.172038  0  3.917088  0
C  C43  1  0.51112945  0.21673214  0.78300009  1  -0.000225  0  -0.005316  0.081162  0  4.011335  0
C  C44  1  0.51121835  0.21614163  0.83349561  1  -0.057837  0  -0.085611  -0.170824  0  3.917868  0
C  C45  1  0.57715599  0.96318226  0.87949798  1  -0.072087  0  -0.009946  0.107903  0  3.95828  0
C  C46  1  0.60186589  0.01302867  0.87927123  1  0.027294  0  -0.099416  -0.194371  0  3.972223  0
C  C47  1  0.48938339  0.06249920  0.83378446  1  -0.012546  0  -0.004143  0.099514  0  3.996103  0
C  C48  1  0.35586514  0.06030784  0.78866693  1  -0.003363  0  -0.099557  -0.19508  0  3.97473  0
C  C49  1  0.34598951  0.01040220  0.78874600  1  -0.119116  0  -0.009996  0.10625  0  3.964416  0
C  C50  1  0.45421040  0.96047228  0.83404562  1  0.107861  0  -0.019181  -0.127065  0  3.918272  0
C  C51  1  0.41754244  0.12087057  0.98614174  1  -0.0104  0  -0.099689  -0.193783  0  3.97176  0
C  C52  1  0.43744177  0.12076969  0.03594842  1  -0.129637  0  -0.009575  0.10822  0  3.957384  0
C  C53  1  0.55692697  0.16627317  0.03885689  1  0.068854  0  -0.018993  -0.127167  0  3.91781  0
C  C54  1  0.66588391  0.21153869  0.98921727  1  -0.070762  0  -0.010335  0.105586  0  3.962858  0
C  C55  1  0.66065471  0.21147058  0.93940788  1  -0.045011  0  -0.09947  -0.194241  0  3.973538  0
C  C56  1  0.53145749  0.16624187  0.93700958  1  0.082414  0  -0.004037  0.0989  0  3.996983  0
C  C57  1  0.63868314  0.31777135  0.72641153  1  0.066201  0  -0.101133  -0.198974  0  3.978644  0
C  C58  1  0.63475007  0.36769663  0.67661444  1  -0.107151  0  -0.004377  0.119262  0  3.922412  0
C  C59  1  0.50497109  0.37251546  0.62739461  1  0.03866  0  -0.018212  -0.138945  0  3.880458  0
C  C60  1  0.37785131  0.32320419  0.63222075  1  -0.110094  0  -0.003936  0.119502  0  3.923711  0
C  C61  1  0.37801329  0.27333659  0.68207233  1  0.061759  0  -0.101661  -0.199338  0  3.977488  0
C  C62  1  0.50950935  0.26968047  0.73007610  1  -0.006262  0  -0.0014  0.109099  0  3.994828  0
C  C63  1  0.50549871  0.55050510  0.11570885  1  0.001798  0  -0.004844  0.08191  0  4.011492  0
C  C64  1  0.51210843  0.49983659  0.11658059  1  -0.02006  0  -0.086142  -0.170188  0  3.916623  0
C  C65  1  0.51730849  0.44926695  0.16640239  1  -0.037921  0  -0.004887  0.081288  0  4.012375  0
C  C66  1  0.51112890  0.45009976  0.21618483  1  -0.03519  0  -0.085448  -0.17128  0  3.915796  0
C  C67  1  0.51174837  0.50006314  0.21675156  1  -0.032408  0  -0.005708  0.081393  0  4.010579  0
C  C68  1  0.51191953  0.54990666  0.16619971  1  -0.013677  0  -0.085751  -0.172071  0  3.918195  0
C  C69  1  0.42747061  0.34274584  0.12116394  1  -0.132361  0  -0.009733  0.108778  0  3.958361  0
C  C70  1  0.40930077  0.39259069  0.12118168  1  0.053062  0  -0.099873  -0.195369  0  3.972321  0
C  C71  1  0.52671827  0.39620028  0.16644872  1  0.039059  0  -0.003716  0.100418  0  3.994912  0
C  C72  1  0.65679049  0.34823801  0.21169210  1  0.011631  0  -0.099571  -0.194806  0  3.971954  0
C  C73  1  0.65980782  0.29825711  0.21185319  1  -0.091751  0  -0.010444  0.106807  0  3.962762  0
C  C74  1  0.54837799  0.29404994  0.16662748  1  0.070738  0  -0.019488  -0.129027  0  3.918264  0
C  C75  1  0.60939277  0.60709084  0.01362275  1  0.106202  0  -0.099723  -0.19497  0  3.972833  0
C  C76  1  0.58694598  0.65678801  0.96377614  1  -0.120006  0  -0.009642  0.108218  0  3.958561  0
C  C77  1  0.46124623  0.70527190  0.96068742  1  0.055738  0  -0.019235  -0.127828  0  3.916793  0
C  C78  1  0.34950494  0.70099286  0.01026658  1  -0.118173  0  -0.010044  0.10593  0  3.962251  0
C  C79  1  0.35760436  0.65114539  0.06012244  1  0.044496  0  -0.099555  -0.194137  0  3.973403  0
C  C80  1  0.49221930  0.60341628  0.06267220  1  -0.048315  0  -0.004251  0.098983  0  3.997033  0
C  C81  1  0.37411864  0.54451752  0.27330599  1  0.003602  0  -0.101592  -0.199394  0  3.976744  0
C  C82  1  0.37351274  0.54453973  0.32316442  1  -0.107918  0  -0.003885  0.12013  0  3.922431  0
C  C83  1  0.50553844  0.50014265  0.37241004  1  0.080041  0  -0.018959  -0.140455  0  3.880194  0
C  C84  1  0.64034904  0.45576145  0.36754956  1  -0.080731  0  -0.004305  0.119658  0  3.923317  0
C  C85  1  0.64445221  0.45582337  0.31766154  1  -0.010988  0  -0.101574  -0.199111  0  3.978005  0
C  C86  1  0.51047696  0.50017198  0.26963402  1  0.010428  0  -0.000975  0.109064  0  3.993344  0
C  C87  1  0.48898750  0.88464655  0.44916778  1  -0.036374  0  -0.004742  0.081951  0  4.011916  0
C  C88  1  0.48166613  0.88387614  0.49974028  1  -0.021121  0  -0.085332  -0.169192  0  3.915059  0
C  C89  1  0.47370326  0.83405207  0.55028386  1  -0.014409  0  -0.005126  0.081451  0  4.012625  0
C  C90  1  0.47852357  0.78419092  0.54951483  1  -0.030919  0  -0.08557  -0.17085  0  3.917429  0
C  C91  1  0.47804046  0.78354003  0.49964738  1  -0.02466  0  -0.005626  0.080752  0  4.012647  0
C  C92  1  0.47937846  0.83410844  0.44982005  1  -0.021516  0  -0.085877  -0.172268  0  3.917494  0
C  C93  1  0.57109045  0.87896044  0.65690434  1  -0.12681  0  -0.009622  0.108629  0  3.959435  0
C  C94  1  0.58419863  0.87917839  0.60696878  1  0.045281  0  -0.099871  -0.194552  0  3.972466  0
C  C95  1  0.46660990  0.83398099  0.60332503  1  0.0276  0  -0.003458  0.099468  0  3.994956  0
C  C96  1  0.34062879  0.78863922  0.65132820  1  0.010595  0  -0.100183  -0.194625  0  3.971232  0
C  C97  1  0.34251852  0.78822228  0.70139527  1  -0.092107  0  -0.009846  0.107077  0  3.960349  0
C  C98  1  0.45476794  0.83336185  0.70562369  1  0.065989  0  -0.019724  -0.129186  0  3.918953  0
C  C99  1  0.39623749  0.98728995  0.39190303  1  0.009363  0  -0.099299  -0.193843  0  3.972141  0
C  C100  1  0.42465054  0.03691412  0.34218387  1  -0.103568  0  -0.009701  0.108412  0  3.957386  0
C  C101  1  0.55159266  0.03912782  0.29429647  1  0.013046  0  -0.019108  -0.127153  0  3.915732  0
C  C102  1  0.66022122  0.98894206  0.29933555  1  -0.040025  0  -0.010244  0.10593  0  3.963511  0
C  C103  1  0.64615521  0.93924944  0.34925232  1  -0.000215  0  -0.099436  -0.194556  0  3.974898  0
C  C104  1  0.50851533  0.93755927  0.39625637  1  0.052836  0  -0.00459  0.098609  0  3.997125  0
C  C105  1  0.61501672  0.72683598  0.45535624  1  -0.072198  0  -0.101734  -0.199797  0  3.979176  0
C  C106  1  0.61763950  0.67691469  0.45539308  1  -0.058967  0  -0.003758  0.120123  0  3.924743  0
C  C107  1  0.48909568  0.62764067  0.49982618  1  0.029486  0  -0.018922  -0.141033  0  3.882278  0
C  C108  1  0.35531130  0.63254761  0.54412597  1  -0.06727  0  -0.004484  0.119145  0  3.924323  0
C  C109  1  0.34907698  0.68252996  0.54395855  1  0.036798  0  -0.101853  -0.199796  0  3.979365  0
C  C110  1  0.48006089  0.73056985  0.49962621  1  0.049416  0  -0.000951  0.109695  0  3.99532  0
Br  Br111  1  0.17847226  0.01112997  0.72498459  1  -0.036747  0  0.039612  -0.038122  0  1.573318  0
Br  Br112  1  0.71652895  0.89754441  0.94382709  1  -0.034712  0  0.038321  -0.041145  0  1.59263  0
Br  Br113  1  0.29594955  0.05657089  0.10118132  1  -0.033656  0  0.038671  -0.040812  0  1.580798  0
Br  Br114  1  0.82758391  0.27539988  0.98880962  1  -0.037754  0  0.03959  -0.038075  0  1.576047  0
Br  Br115  1  0.80334223  0.42877386  0.68114156  1  -0.028312  0  0.033058  -0.047539  0  1.572791  0
Br  Br116  1  0.20754721  0.31859685  0.57124103  1  -0.025456  0  0.032627  -0.04799  0  1.572641  0
Br  Br117  1  0.82182933  0.23441122  0.27579800  1  -0.038501  0  0.039405  -0.038503  0  1.591674  0
Br  Br118  1  0.28197632  0.34191642  0.05707807  1  -0.033346  0  0.03903  -0.040204  0  1.583647  0
Br  Br119  1  0.73423268  0.65771453  0.89870197  1  -0.035092  0  0.038856  -0.040222  0  1.589647  0
Br  Br120  1  0.18085534  0.76456801  0.01055867  1  -0.036065  0  0.039716  -0.037773  0  1.585066  0
Br  Br121  1  0.19486805  0.61001476  0.31867862  1  -0.030358  0  0.032937  -0.047768  0  1.572798  0
Br  Br122  1  0.81481561  0.39017069  0.42855429  1  -0.02489  0  0.03321  -0.047406  0  1.573888  0
Br  Br123  1  0.18701998  0.72401590  0.76527492  1  -0.034447  0  0.039131  -0.038931  0  1.582766  0
Br  Br124  1  0.71826036  0.94285729  0.65789794  1  -0.033182  0  0.039144  -0.040112  0  1.580441  0
Br  Br125  1  0.28511908  0.10290967  0.34037121  1  -0.032554  0  0.038645  -0.040969  0  1.60298  0
Br  Br126  1  0.83393366  0.98756671  0.23676040  1  -0.036181  0  0.039559  -0.03788  0  1.569221  0
Br  Br127  1  0.79329199  0.68137579  0.38996135  1  -0.03208  0  0.032994  -0.04761  0  1.573668  0
Br  Br128  1  0.18522154  0.57151125  0.60970757  1  -0.022535  0  0.033201  -0.047169  0  1.574035  0
O  O129  1  0.73920098  0.47589648  0.45943718  1  -1.253268  0  -0.235218  -0.594493  0  2.44423  0
O  O130  1  0.73279453  0.56477876  0.47592289  1  -1.250082  0  -0.23582  -0.59369  0  2.441105  0
O  O131  1  0.73694350  0.45951497  0.56458388  1  -1.254303  0  -0.235255  -0.593995  0  2.444207  0
O  O132  1  0.26313327  0.52406417  0.43525870  1  -1.250498  0  -0.235176  -0.593569  0  2.441055  0
O  O133  1  0.26557557  0.43528357  0.54061248  1  -1.251825  0  -0.234963  -0.593668  0  2.442781  0
O  O134  1  0.25912516  0.54054968  0.52405249  1  -1.251473  0  -0.235508  -0.595645  0  2.4457  0
O  O135  1  0.68794518  0.80839968  0.79288032  1  -1.251675  0  -0.232172  -0.59419  0  2.421694  0
O  O136  1  0.68175580  0.89802240  0.80856152  1  -1.245863  0  -0.233459  -0.59669  0  2.423837  0
O  O137  1  0.68543545  0.79290912  0.89819490  1  -1.249999  0  -0.233285  -0.596834  0  2.423734  0
O  O138  1  0.21166769  0.85716991  0.76843057  1  -1.247288  0  -0.231142  -0.592659  0  2.424299  0
O  O139  1  0.21374909  0.76798427  0.87443708  1  -1.24783  0  -0.230217  -0.590795  0  2.422028  0
O  O140  1  0.20782358  0.87450182  0.85732425  1  -1.247456  0  -0.230506  -0.590661  0  2.420613  0
O  O141  1  0.80170184  0.12479149  0.23156571  1  -1.237875  0  -0.230349  -0.590982  0  2.422677  0
O  O142  1  0.80364500  0.14272664  0.12490559  1  -1.244699  0  -0.230163  -0.590758  0  2.421611  0
O  O143  1  0.79650520  0.23143204  0.14278435  1  -1.241163  0  -0.231396  -0.59165  0  2.422191  0
O  O144  1  0.32989344  0.10148829  0.20617304  1  -1.249669  0  -0.23315  -0.597129  0  2.423588  0
O  O145  1  0.32230387  0.20653600  0.19137585  1  -1.250731  0  -0.233037  -0.595617  0  2.424115  0
O  O146  1  0.32723728  0.19148790  0.10139368  1  -1.248228  0  -0.232887  -0.596914  0  2.424683  0
