# generated using pymatgen
data_ZnH10C18N2O5F4
_symmetry_space_group_name_H-M   'P 1'
_cell_length_a   8.75292022
_cell_length_b   10.27518867
_cell_length_c   10.47735132
_cell_angle_alpha   77.98614766
_cell_angle_beta   79.55001205
_cell_angle_gamma   69.88145976
_symmetry_Int_Tables_number   1
_chemical_formula_structural   ZnH10C18N2O5F4
_chemical_formula_sum   'Zn2 H20 C36 N4 O10 F8'
_cell_volume   859.22919334
_cell_formula_units_Z   2
loop_
 _symmetry_equiv_pos_site_id
 _symmetry_equiv_pos_as_xyz
  1  'x, y, z'
loop_
 _atom_site_type_symbol
 _atom_site_label
 _atom_site_symmetry_multiplicity
 _atom_site_fract_x
 _atom_site_fract_y
 _atom_site_fract_z
 _atom_site_occupancy
 _atom_site_hle17_bader_spin_density
 _atom_site_hle17_ddec_charge
 _atom_site_hle17_ddec_spin_density
 _atom_site_hle17_ddec_sum_bond_order
 _atom_site_hle17_magmom
 _atom_site_hse06_10hf_bader_spin_density
 _atom_site_hse06_10hf_ddec_charge
 _atom_site_hse06_10hf_ddec_spin_density
 _atom_site_hse06_10hf_ddec_sum_bond_order
 _atom_site_hse06_10hf_magmom
 _atom_site_hse06_bader_spin_density
 _atom_site_hse06_ddec_charge
 _atom_site_hse06_ddec_spin_density
 _atom_site_hse06_ddec_sum_bond_order
 _atom_site_hse06_magmom
 _atom_site_pbe_bader_spin_density
 _atom_site_pbe_cm5_charge
 _atom_site_pbe_ddec_charge
 _atom_site_pbe_ddec_spin_density
 _atom_site_pbe_ddec_sum_bond_order
 _atom_site_pbe_magmom
Zn  Zn0  1  0.51568470  0.80007992  0.74197084  1  0  1.029115  0  1.81303  0  0  0.846929  0  2.268151  0  0  0.895368  0  2.213956  0  0  0.683591  0.813191  0  2.305462  0
Zn  Zn1  1  0.48431137  0.19992365  0.25802881  1  0  1.02909  0  1.813045  0  0  0.846917  0  2.268157  0  0  0.895359  0  2.213959  0  0  0.68358  0.813179  0  2.305467  0
H  H2  1  0.72590205  0.98735943  0.57798860  1  0  0.087331  0  0.943235  0  0  0.096698  0  1.004582  0  0  0.099118  0  1.002745  0  0  0.120032  0.094878  0  1.006059  0
H  H3  1  0.27409546  0.01263683  0.42200752  1  0  0.087296  0  0.943267  0  0  0.096687  0  1.004598  0  0  0.099108  0  1.002764  0  0  0.120029  0.094868  0  1.006075  0
H  H4  1  0.89890371  0.11339116  0.62777420  1  0  0.118768  0  0.947242  0  0  0.124083  0  1.011802  0  0  0.127831  0  1.009386  0  0  0.110029  0.121196  0  1.01402  0
H  H5  1  0.10109306  0.88660720  0.37222257  1  0  0.118768  0  0.947266  0  0  0.124083  0  1.011813  0  0  0.127831  0  1.009396  0  0  0.110027  0.121195  0  1.014032  0
H  H6  1  0.93280550  0.10000424  0.86525532  1  0  0.095483  0  0.939671  0  0  0.105484  0  0.999495  0  0  0.108391  0  0.997221  0  0  0.106534  0.103258  0  1.001261  0
H  H7  1  0.06719476  0.89999408  0.13473997  1  0  0.095476  0  0.93964  0  0  0.105502  0  0.999438  0  0  0.108408  0  0.997164  0  0  0.106558  0.103277  0  1.001204  0
H  H8  1  0.79432014  0.95847036  0.03967349  1  0  0.111023  0  0.951935  0  0  0.12184  0  1.012134  0  0  0.125035  0  1.010662  0  0  0.108499  0.119524  0  1.013406  0
H  H9  1  0.20567779  0.04152798  0.96032311  1  0  0.111038  0  0.951936  0  0  0.121818  0  1.012173  0  0  0.125024  0  1.01069  0  0  0.108503  0.119503  0  1.013444  0
H  H10  1  0.66980044  0.84128646  0.17279780  1  0  0.112298  0  0.966861  0  0  0.122149  0  1.029473  0  0  0.12524  0  1.028252  0  0  0.105917  0.120008  0  1.030341  0
H  H11  1  0.33019062  0.15872134  0.82720083  1  0  0.112309  0  0.966872  0  0  0.122162  0  1.029481  0  0  0.125251  0  1.028264  0  0  0.10591  0.120014  0  1.030356  0
H  H12  1  0.51902819  0.69170006  0.31941366  1  0  0.09672  0  0.95826  0  0  0.105384  0  1.021558  0  0  0.107649  0  1.020384  0  0  0.103998  0.103858  0  1.022204  0
H  H13  1  0.48096751  0.30830455  0.68058584  1  0  0.096699  0  0.958269  0  0  0.105363  0  1.021569  0  0  0.107626  0  1.020397  0  0  0.103994  0.103837  0  1.022214  0
H  H14  1  0.37186551  0.57198288  0.22089570  1  0  0.124366  0  0.958079  0  0  0.127652  0  1.027173  0  0  0.132157  0  1.023806  0  0  0.106651  0.124476  0  1.029594  0
H  H15  1  0.62813286  0.42801752  0.77910518  1  0  0.124392  0  0.958052  0  0  0.127675  0  1.027141  0  0  0.132179  0  1.023777  0  0  0.106659  0.1245  0  1.029563  0
H  H16  1  0.36921494  0.62407829  0.97472912  1  0  0.088059  0  0.947767  0  0  0.094587  0  1.011796  0  0  0.097374  0  1.009807  0  0  0.117036  0.092505  0  1.013463  0
H  H17  1  0.63078073  0.37592318  0.02527197  1  0  0.088055  0  0.947707  0  0  0.094588  0  1.011737  0  0  0.097375  0  1.009749  0  0  0.117022  0.092506  0  1.013401  0
H  H18  1  0.34693912  0.06335645  0.63291372  1  0  0.430019  0  0.870753  0  0  0.397975  0  0.936778  0  0  0.408946  0  0.920857  0  0  0.287556  0.390428  0  0.9476  0
H  H19  1  0.65305349  0.93665029  0.36708583  1  0  0.430097  0  0.870652  0  0  0.398042  0  0.936694  0  0  0.409017  0  0.920766  0  0  0.287576  0.390495  0  0.947515  0
H  H20  1  0.25002327  0.95037982  0.66381318  1  0  0.412984  0  0.898572  0  0  0.380959  0  0.964775  0  0  0.393003  0  0.947481  0  0  0.284655  0.37246  0  0.976954  0
H  H21  1  0.74997125  0.04962482  0.33618459  1  0  0.412979  0  0.898597  0  0  0.380949  0  0.964779  0  0  0.392994  0  0.947484  0  0  0.284658  0.372449  0  0.976957  0
C  C22  1  0.74591990  0.98214479  0.67873598  1  0  0.155985  0  3.664101  0  0  0.124888  0  3.914116  0  0  0.131597  0  3.931551  0  0  0.058946  0.120395  0  3.90267  0
C  C23  1  0.25407957  0.01785249  0.32126059  1  0  0.156061  0  3.664098  0  0  0.12494  0  3.914109  0  0  0.131643  0  3.931551  0  0  0.058942  0.120447  0  3.90266  0
C  C24  1  0.84203746  0.05295840  0.70772859  1  0  -0.082856  0  3.688708  0  0  -0.100995  0  3.948753  0  0  -0.106035  0  3.968043  0  0  -0.072868  -0.098203  0  3.936343  0
C  C25  1  0.15796201  0.94703888  0.29226893  1  0  -0.082924  0  3.688799  0  0  -0.101061  0  3.948846  0  0  -0.106098  0  3.968133  0  0  -0.072889  -0.098268  0  3.936437  0
C  C26  1  0.86038896  0.04409160  0.83899538  1  0  -0.001415  0  3.71204  0  0  -0.021541  0  3.965637  0  0  -0.018849  0  3.985001  0  0  -0.064204  -0.023063  0  3.952755  0
C  C27  1  0.13961014  0.95590673  0.16100103  1  0  -0.001398  0  3.712112  0  0  -0.021531  0  3.96568  0  0  -0.018835  0  3.985043  0  0  -0.064211  -0.023054  0  3.952796  0
C  C28  1  0.78369229  0.96461556  0.93643006  1  0  -0.133525  0  3.689147  0  0  -0.154439  0  3.93903  0  0  -0.161076  0  3.960434  0  0  -0.077314  -0.150234  0  3.92488  0
C  C29  1  0.21630602  0.03538173  0.06356668  1  0  -0.133535  0  3.689302  0  0  -0.154431  0  3.939199  0  0  -0.161074  0  3.960593  0  0  -0.077329  -0.150225  0  3.92505  0
C  C30  1  0.69001320  0.89518297  0.89973474  1  0  0.172838  0  3.771769  0  0  0.166279  0  4.018095  0  0  0.172492  0  4.039222  0  0  0.117564  0.162116  0  4.004065  0
C  C31  1  0.30998320  0.10481642  0.10026379  1  0  0.172852  0  3.771844  0  0  0.166301  0  4.018133  0  0  0.172515  0  4.039261  0  0  0.117563  0.162135  0  4.004103  0
C  C32  1  0.60366758  0.80801722  0.99548854  1  0  0.172761  0  3.761855  0  0  0.165398  0  4.004901  0  0  0.172249  0  4.025615  0  0  0.116824  0.160867  0  3.990946  0
C  C33  1  0.39632922  0.19198426  0.00450855  1  0  0.172765  0  3.761887  0  0  0.165407  0  4.004938  0  0  0.172258  0  4.025653  0  0  0.116858  0.160878  0  3.990984  0
C  C34  1  0.60582381  0.78887116  0.13136616  1  0  -0.142014  0  3.696041  0  0  -0.161159  0  3.944805  0  0  -0.169616  0  3.969207  0  0  -0.080236  -0.155456  0  3.928223  0
C  C35  1  0.39417571  0.21112923  0.86863264  1  0  -0.14209  0  3.696069  0  0  -0.161239  0  3.944844  0  0  -0.169696  0  3.969246  0  0  -0.080264  -0.155531  0  3.928267  0
C  C36  1  0.52095255  0.70486258  0.21352850  1  0  0.00157  0  3.717121  0  0  -0.017106  0  3.96946  0  0  -0.014839  0  3.991568  0  0  -0.064913  -0.018183  0  3.953978  0
C  C37  1  0.47904427  0.29513888  0.78647145  1  0  0.001618  0  3.71709  0  0  -0.017063  0  3.96945  0  0  -0.014792  0  3.991549  0  0  -0.064922  -0.018139  0  3.953967  0
C  C38  1  0.43676688  0.64038888  0.15953872  1  0  -0.10145  0  3.690156  0  0  -0.118887  0  3.949485  0  0  -0.124991  0  3.969164  0  0  -0.076733  -0.114901  0  3.936165  0
C  C39  1  0.56323149  0.35961152  0.84046121  1  0  -0.101477  0  3.690185  0  0  -0.118906  0  3.949509  0  0  -0.125011  0  3.969189  0  0  -0.076744  -0.114922  0  3.936191  0
C  C40  1  0.43648527  0.66692662  0.02387059  1  0  0.13805  0  3.689535  0  0  0.106411  0  3.940764  0  0  0.112945  0  3.958892  0  0  0.052922  0.102004  0  3.928961  0
C  C41  1  0.56351075  0.33307381  0.97612874  1  0  0.13804  0  3.689578  0  0  0.106409  0  3.940805  0  0  0.112942  0  3.958934  0  0  0.052952  0.102003  0  3.929003  0
C  C42  1  0.23215810  0.73085307  0.67501826  1  0  0.703007  0  3.891853  0  0  0.647025  0  4.19942  0  0  0.683098  0  4.188156  0  0  0.21565  0.622576  0  4.206313  0
C  C43  1  0.76784609  0.26914411  0.32498523  1  0  0.703053  0  3.891809  0  0  0.647103  0  4.199342  0  0  0.683176  0  4.188076  0  0  0.21566  0.622669  0  4.20624  0
C  C44  1  0.16933197  0.61250112  0.66694224  1  0  -0.231082  0  3.745915  0  0  -0.243261  0  4.026395  0  0  -0.250069  0  4.038585  0  0  -0.031089  -0.238849  0  4.018101  0
C  C45  1  0.83067802  0.38749285  0.33306292  1  0  -0.231148  0  3.74589  0  0  -0.243299  0  4.0264  0  0  -0.250105  0  4.03859  0  0  -0.031097  -0.238947  0  4.018177  0
C  C46  1  0.23160615  0.53444860  0.56440613  1  0  0.315833  0  3.738526  0  0  0.275776  0  4.043284  0  0  0.291356  0  4.048212  0  0  0.105605  0.265786  0  4.039054  0
C  C47  1  0.76839417  0.46555283  0.43559330  1  0  0.315921  0  3.738383  0  0  0.275819  0  4.043182  0  0  0.2914  0  4.048109  0  0  0.105579  0.265848  0  4.038962  0
C  C48  1  0.06124176  0.56803026  0.76648236  1  0  0.243963  0  3.776842  0  0  0.209322  0  4.077251  0  0  0.221946  0  4.083289  0  0  0.099737  0.20052  0  4.073457  0
C  C49  1  0.93877759  0.43196359  0.23352615  1  0  0.243983  0  3.776689  0  0  0.209279  0  4.077182  0  0  0.221902  0  4.083221  0  0  0.099761  0.200498  0  4.073401  0
C  C50  1  0.19941292  0.41142458  0.55993144  1  0  -0.258029  0  3.775481  0  0  -0.267871  0  4.05661  0  0  -0.277081  0  4.072699  0  0  -0.039155  -0.26181  0  4.045769  0
C  C51  1  0.80058042  0.58858008  0.44006555  1  0  -0.257994  0  3.775477  0  0  -0.267832  0  4.056662  0  0  -0.277042  0  4.072752  0  0  -0.039129  -0.261766  0  4.04581  0
C  C52  1  0.01747366  0.45033199  0.76428362  1  0  0.098131  0  3.82218  0  0  0.05918  0  4.138768  0  0  0.065296  0  4.144523  0  0  0.078056  0.054558  0  4.13553  0
C  C53  1  0.98253680  0.54966719  0.23572329  1  0  0.098227  0  3.822173  0  0  0.059331  0  4.138738  0  0  0.065448  0  4.144489  0  0  0.078114  0.05471  0  4.135496  0
C  C54  1  0.08817489  0.37353876  0.66186398  1  0  0.223191  0  3.799263  0  0  0.187876  0  4.103558  0  0  0.199036  0  4.112202  0  0  0.094947  0.180064  0  4.098267  0
C  C55  1  0.91182002  0.62646481  0.33813680  1  0  0.223063  0  3.799388  0  0  0.187739  0  4.103659  0  0  0.1989  0  4.112301  0  0  0.094885  0.179929  0  4.098367  0
C  C56  1  0.29709434  0.31524629  0.46250075  1  0  0.689215  0  3.889069  0  0  0.63663  0  4.191144  0  0  0.671913  0  4.181202  0  0  0.208345  0.61268  0  4.197197  0
C  C57  1  0.70289938  0.68475732  0.53749640  1  0  0.689031  0  3.889453  0  0  0.63643  0  4.191538  0  0  0.671712  0  4.181598  0  0  0.20825  0.612481  0  4.197589  0
N  N58  1  0.67237038  0.90540363  0.77212082  1  0  -0.365175  0  3.287468  0  0  -0.290192  0  3.550701  0  0  -0.309531  0  3.568107  0  0  -0.322686  -0.277628  0  3.539335  0
N  N59  1  0.32762834  0.09459574  0.22787640  1  0  -0.365132  0  3.28744  0  0  -0.290144  0  3.550682  0  0  -0.309484  0  3.56809  0  0  -0.322613  -0.27758  0  3.539315  0
N  N60  1  0.51789049  0.74818673  0.94449657  1  0  -0.353914  0  3.277553  0  0  -0.276042  0  3.541392  0  0  -0.294629  0  3.556354  0  0  -0.32553  -0.263273  0  3.53148  0
N  N61  1  0.48210669  0.25181370  0.05550163  1  0  -0.353907  0  3.277573  0  0  -0.276054  0  3.541433  0  0  -0.294643  0  3.556397  0  0  -0.325561  -0.263288  0  3.531524  0
O  O62  1  0.35078417  0.69213524  0.74381989  1  0  -0.625357  0  2.027279  0  0  -0.55997  0  2.286536  0  0  -0.589256  0  2.274382  0  0  -0.314129  -0.539852  0  2.294371  0
O  O63  1  0.64921816  0.30786716  0.25618763  1  0  -0.625297  0  2.027266  0  0  -0.559905  0  2.286488  0  0  -0.589192  0  2.274336  0  0  -0.314081  -0.539786  0  2.294314  0
O  O64  1  0.16625337  0.85133992  0.61492336  1  0  -0.595057  0  1.950578  0  0  -0.546101  0  2.168699  0  0  -0.571823  0  2.1604  0  0  -0.300527  -0.528287  0  2.17406  0
O  O65  1  0.83375424  0.14865412  0.38507546  1  0  -0.595133  0  1.950488  0  0  -0.546197  0  2.168596  0  0  -0.571921  0  2.160293  0  0  -0.300575  -0.528383  0  2.173952  0
O  O66  1  0.30344083  0.36574335  0.34077459  1  0  -0.603694  0  2.011364  0  0  -0.548092  0  2.271045  0  0  -0.57593  0  2.259694  0  0  -0.306732  -0.528494  0  2.278254  0
O  O67  1  0.69655484  0.63426128  0.65922205  1  0  -0.603619  0  2.011373  0  0  -0.547978  0  2.270994  0  0  -0.575811  0  2.259641  0  0  -0.306692  -0.528385  0  2.278209  0
O  O68  1  0.37564381  0.18968109  0.50664945  1  0  -0.629536  0  1.93503  0  0  -0.57386  0  2.162637  0  0  -0.599032  0  2.150433  0  0  -0.310218  -0.556191  0  2.170104  0
O  O69  1  0.62435150  0.81032457  0.49334990  1  0  -0.629461  0  1.935317  0  0  -0.573733  0  2.162848  0  0  -0.598924  0  2.150682  0  0  -0.310143  -0.556061  0  2.170307  0
O  O70  1  0.32415611  0.98633348  0.70100965  1  0  -0.841079  0  1.921375  0  0  -0.783064  0  2.13758  0  0  -0.805168  0  2.099863  0  0  -0.581941  -0.767572  0  2.163119  0
O  O71  1  0.67583765  0.01367326  0.29898781  1  0  -0.841127  0  1.92131  0  0  -0.783103  0  2.13762  0  0  -0.805201  0  2.099875  0  0  -0.581951  -0.767613  0  2.16316  0
F  F72  1  0.33914449  0.57670085  0.46790458  1  0  -0.18536  0  1.241793  0  0  -0.127046  0  1.410993  0  0  -0.137684  0  1.401826  0  0  -0.07786  -0.119646  0  1.416933  0
F  F73  1  0.66085387  0.42329956  0.53209440  1  0  -0.185422  0  1.241748  0  0  -0.127084  0  1.410951  0  0  -0.137722  0  1.401785  0  0  -0.077866  -0.119682  0  1.416887  0
F  F74  1  0.04572123  0.25831227  0.66266449  1  0  -0.169798  0  1.257318  0  0  -0.106126  0  1.416638  0  0  -0.11495  0  1.406714  0  0  -0.073492  -0.099779  0  1.423405  0
F  F75  1  0.95426668  0.74169454  0.33733100  1  0  -0.169724  0  1.257293  0  0  -0.106071  0  1.416632  0  0  -0.114894  0  1.406706  0  0  -0.073442  -0.099724  0  1.423397  0
F  F76  1  0.91074906  0.40963240  0.86098312  1  0  -0.136317  0  1.244872  0  0  -0.095598  0  1.417806  0  0  -0.102328  0  1.4072  0  0  -0.079966  -0.090588  0  1.425091  0
F  F77  1  0.08926953  0.59036038  0.13903049  1  0  -0.13635  0  1.244792  0  0  -0.095633  0  1.417716  0  0  -0.102364  0  1.407107  0  0  -0.079996  -0.090625  0  1.425001  0
F  F78  1  0.99675678  0.63894711  0.86918791  1  0  -0.16506  0  1.233069  0  0  -0.111211  0  1.389676  0  0  -0.119192  0  1.379799  0  0  -0.083513  -0.105375  0  1.396393  0
F  F79  1  0.00327682  0.36103297  0.13082497  1  0  -0.165067  0  1.232882  0  0  -0.111244  0  1.389559  0  0  -0.119224  0  1.379683  0  0  -0.083569  -0.105407  0  1.396273  0
