# generated using pymatgen
data_CdH8C14S2(N3O)2
_symmetry_space_group_name_H-M   'P 1'
_cell_length_a   7.44951633
_cell_length_b   9.19469584
_cell_length_c   12.87988035
_cell_angle_alpha   83.30161972
_cell_angle_beta   73.20421576
_cell_angle_gamma   66.11081053
_symmetry_Int_Tables_number   1
_chemical_formula_structural   CdH8C14S2(N3O)2
_chemical_formula_sum   'Cd2 H16 C28 S4 N12 O4'
_cell_volume   772.23046897
_cell_formula_units_Z   2
loop_
 _symmetry_equiv_pos_site_id
 _symmetry_equiv_pos_as_xyz
  1  'x, y, z'
loop_
 _atom_site_type_symbol
 _atom_site_label
 _atom_site_symmetry_multiplicity
 _atom_site_fract_x
 _atom_site_fract_y
 _atom_site_fract_z
 _atom_site_occupancy
 _atom_site_hle17_bader_spin_density
 _atom_site_hle17_ddec_charge
 _atom_site_hle17_ddec_spin_density
 _atom_site_hle17_ddec_sum_bond_order
 _atom_site_hle17_magmom
 _atom_site_hse06_10hf_bader_spin_density
 _atom_site_hse06_10hf_ddec_charge
 _atom_site_hse06_10hf_ddec_spin_density
 _atom_site_hse06_10hf_ddec_sum_bond_order
 _atom_site_hse06_10hf_magmom
 _atom_site_hse06_bader_spin_density
 _atom_site_hse06_ddec_charge
 _atom_site_hse06_ddec_spin_density
 _atom_site_hse06_ddec_sum_bond_order
 _atom_site_hse06_magmom
 _atom_site_pbe_bader_spin_density
 _atom_site_pbe_cm5_charge
 _atom_site_pbe_ddec_charge
 _atom_site_pbe_ddec_spin_density
 _atom_site_pbe_ddec_sum_bond_order
 _atom_site_pbe_magmom
Cd  Cd0  1  0.87391683  0.00005411  0.00002907  1  0  0.845541  0  2.014943  0  0  0.650604  0  2.479622  0  0  0.695185  0  2.448342  0  0  0.682345  0.619588  0  2.500573  0
Cd  Cd1  1  0.62405042  0.49989622  0.50001368  1  0  0.84492  0  2.015365  0  0  0.649769  0  2.480001  0  0  0.694366  0  2.448741  0  0  0.682028  0.618722  0  2.500969  0
H  H2  1  0.79344700  0.66395403  0.02601411  1  0  0.084317  0  0.933624  0  0  0.089357  0  1.002209  0  0  0.092453  0  0.998861  0  0  0.114422  0.087088  0  1.004719  0
H  H3  1  0.48285529  0.33600203  0.97383183  1  0  0.083214  0  0.935212  0  0  0.088609  0  1.003721  0  0  0.091616  0  1.000481  0  0  0.113985  0.086402  0  1.006141  0
H  H4  1  0.20708797  0.83576518  0.52618623  1  0  0.082991  0  0.935142  0  0  0.088285  0  1.004021  0  0  0.091301  0  1.000715  0  0  0.113959  0.086067  0  1.006483  0
H  H5  1  0.56916808  0.16343405  0.47391835  1  0  0.083245  0  0.934926  0  0  0.088206  0  1.004084  0  0  0.091346  0  1.00065  0  0  0.113723  0.085933  0  1.006576  0
H  H6  1  0.81419864  0.45752342  0.90562206  1  0  0.10624  0  0.970438  0  0  0.105178  0  1.050861  0  0  0.109553  0  1.047946  0  0  0.099534  0.102037  0  1.053048  0
H  H7  1  0.17685902  0.54228256  0.09418091  1  0  0.105488  0  0.971666  0  0  0.104689  0  1.051916  0  0  0.109056  0  1.049003  0  0  0.099297  0.101565  0  1.054087  0
H  H8  1  0.02198791  0.04236021  0.40586179  1  0  0.106602  0  0.969874  0  0  0.105657  0  1.050302  0  0  0.109972  0  1.047447  0  0  0.099222  0.102488  0  1.05251  0
H  H9  1  0.46945897  0.95739088  0.59441996  1  0  0.106959  0  0.970597  0  0  0.105983  0  1.050765  0  0  0.110371  0  1.047838  0  0  0.099379  0.102816  0  1.052995  0
H  H10  1  0.85340303  0.51587003  0.70748822  1  0  0.090575  0  0.98977  0  0  0.094753  0  1.063012  0  0  0.098261  0  1.060612  0  0  0.094184  0.092149  0  1.064867  0
H  H11  1  0.07723186  0.48446246  0.29243174  1  0  0.090472  0  0.98968  0  0  0.094638  0  1.06277  0  0  0.098164  0  1.060345  0  0  0.094311  0.092004  0  1.06469  0
H  H12  1  0.12031024  0.98430885  0.20758364  1  0  0.091639  0  0.990512  0  0  0.095619  0  1.063404  0  0  0.09913  0  1.060986  0  0  0.094336  0.093007  0  1.065298  0
H  H13  1  0.31148086  0.01587236  0.79261625  1  0  0.090211  0  0.989962  0  0  0.094524  0  1.062764  0  0  0.098024  0  1.060381  0  0  0.094194  0.09191  0  1.064637  0
H  H14  1  0.86377848  0.77905799  0.63626641  1  0  0.113127  0  0.963819  0  0  0.120608  0  1.030332  0  0  0.124335  0  1.028727  0  0  0.101263  0.117907  0  1.03163  0
H  H15  1  0.27983473  0.22146609  0.36369719  1  0  0.113804  0  0.963185  0  0  0.12151  0  1.029298  0  0  0.125178  0  1.027813  0  0  0.101881  0.118818  0  1.030588  0
H  H16  1  0.39384955  0.72110265  0.13626182  1  0  0.113854  0  0.96298  0  0  0.121384  0  1.029278  0  0  0.125032  0  1.027766  0  0  0.101446  0.118714  0  1.030557  0
H  H17  1  0.25074490  0.27924148  0.86363895  1  0  0.113777  0  0.962625  0  0  0.121702  0  1.028339  0  0  0.12532  0  1.026881  0  0  0.101939  0.119076  0  1.029545  0
C  C18  1  0.80737346  0.68508897  0.93945837  1  0  0.1439  0  3.693285  0  0  0.108528  0  3.958262  0  0  0.11665  0  3.972463  0  0  0.049619  0.10317  0  3.948691  0
C  C19  1  0.43160563  0.31493357  0.06041584  1  0  0.145098  0  3.693373  0  0  0.109229  0  3.958761  0  0  0.117396  0  3.972969  0  0  0.050173  0.103839  0  3.949185  0
C  C20  1  0.24243132  0.81469301  0.43959867  1  0  0.146727  0  3.690973  0  0  0.110425  0  3.956389  0  0  0.118635  0  3.970591  0  0  0.049036  0.105011  0  3.946821  0
C  C21  1  0.49667030  0.18478444  0.56047916  1  0  0.146336  0  3.692065  0  0  0.110728  0  3.957125  0  0  0.118836  0  3.971318  0  0  0.050336  0.105406  0  3.947518  0
C  C22  1  0.81864143  0.57098210  0.87244252  1  0  -0.100927  0  3.691469  0  0  -0.119618  0  3.955119  0  0  -0.124188  0  3.972591  0  0  -0.080731  -0.116765  0  3.943558  0
C  C23  1  0.26179252  0.42901430  0.12742069  1  0  -0.101153  0  3.691582  0  0  -0.12045  0  3.956171  0  0  -0.124999  0  3.973589  0  0  -0.081274  -0.117625  0  3.944673  0
C  C24  1  0.13987002  0.92892355  0.37261815  1  0  -0.10126  0  3.687217  0  0  -0.120218  0  3.950921  0  0  -0.124738  0  3.968395  0  0  -0.079998  -0.117337  0  3.939415  0
C  C25  1  0.44090803  0.07083352  0.62757314  1  0  -0.102046  0  3.689138  0  0  -0.12084  0  3.953122  0  0  -0.125408  0  3.970514  0  0  -0.080227  -0.117959  0  3.94151  0
C  C26  1  0.84104533  0.60368627  0.76208528  1  0  0.009962  0  3.685227  0  0  -0.007838  0  3.935501  0  0  -0.005259  0  3.952627  0  0  -0.067077  -0.009485  0  3.924097  0
C  C27  1  0.20705113  0.39655420  0.23783942  1  0  0.010394  0  3.686655  0  0  -0.00713  0  3.937122  0  0  -0.004513  0  3.954183  0  0  -0.06672  -0.008815  0  3.925772  0
C  C28  1  0.19545597  0.89639868  0.26218439  1  0  0.008132  0  3.68793  0  0  -0.009022  0  3.938196  0  0  -0.006379  0  3.955152  0  0  -0.067118  -0.010706  0  3.926844  0
C  C29  1  0.35341630  0.10367620  0.73793805  1  0  0.010037  0  3.686959  0  0  -0.007666  0  3.937341  0  0  -0.005053  0  3.954377  0  0  -0.067323  -0.009303  0  3.925995  0
C  C30  1  0.85009195  0.74882698  0.72181670  1  0  -0.107602  0  3.654753  0  0  -0.131372  0  3.904684  0  0  -0.135441  0  3.922947  0  0  -0.076428  -0.128741  0  3.892676  0
C  C31  1  0.32117457  0.25157882  0.27813479  1  0  -0.108192  0  3.657677  0  0  -0.132393  0  3.907376  0  0  -0.13645  0  3.925712  0  0  -0.077462  -0.129737  0  3.895272  0
C  C32  1  0.34957732  0.75123926  0.22186574  1  0  -0.108306  0  3.659462  0  0  -0.132471  0  3.909353  0  0  -0.136455  0  3.92771  0  0  -0.076923  -0.129869  0  3.897266  0
C  C33  1  0.32244797  0.24883078  0.77809512  1  0  -0.10839  0  3.658052  0  0  -0.132456  0  3.908206  0  0  -0.13645  0  3.926582  0  0  -0.077227  -0.129891  0  3.896088  0
C  C34  1  0.83834202  0.85582480  0.79440052  1  0  0.131207  0  3.814993  0  0  0.130122  0  4.059548  0  0  0.133267  0  4.080008  0  0  0.109258  0.127731  0  4.045938  0
C  C35  1  0.48871996  0.14444279  0.20553738  1  0  0.133426  0  3.81421  0  0  0.13269  0  4.057658  0  0  0.135757  0  4.078203  0  0  0.111089  0.13035  0  4.043962  0
C  C36  1  0.44444429  0.64408428  0.29441975  1  0  0.132928  0  3.817447  0  0  0.132033  0  4.061106  0  0  0.135075  0  4.081636  0  0  0.109982  0.129705  0  4.047448  0
C  C37  1  0.38288923  0.35581655  0.70541328  1  0  0.131028  0  3.816776  0  0  0.129851  0  4.062052  0  0  0.132884  0  4.082564  0  0  0.109539  0.127544  0  4.048366  0
C  C38  1  0.85173135  0.00851911  0.76150736  1  0  0.32688  0  3.73877  0  0  0.286566  0  4.016543  0  0  0.304856  0  4.024534  0  0  0.215469  0.274559  0  4.010858  0
C  C39  1  0.62174316  0.99170482  0.23843675  1  0  0.322341  0  3.746551  0  0  0.28298  0  4.022742  0  0  0.301346  0  4.030736  0  0  0.214293  0.270961  0  4.01704  0
C  C40  1  0.61045343  0.49135100  0.26152334  1  0  0.322383  0  3.743229  0  0  0.282569  0  4.020608  0  0  0.301021  0  4.028466  0  0  0.2133  0.27043  0  4.015027  0
C  C41  1  0.36296562  0.50863580  0.73830991  1  0  0.325289  0  3.74328  0  0  0.284363  0  4.0215  0  0  0.302878  0  4.029414  0  0  0.214091  0.272314  0  4.015819  0
C  C42  1  0.90074151  0.20537083  0.66298910  1  0  0.377756  0  3.763587  0  0  0.342513  0  4.078819  0  0  0.365217  0  4.085442  0  0  0.195537  0.327134  0  4.073947  0
C  C43  1  0.76900761  0.79488776  0.33703803  1  0  0.378691  0  3.762166  0  0  0.343088  0  4.07813  0  0  0.365805  0  4.084767  0  0  0.195371  0.327721  0  4.073219  0
C  C44  1  0.85639685  0.29426509  0.16313425  1  0  0.376464  0  3.764612  0  0  0.341208  0  4.080675  0  0  0.363918  0  4.087278  0  0  0.194505  0.325833  0  4.075776  0
C  C45  1  0.31354514  0.70535680  0.83702481  1  0  0.379103  0  3.762214  0  0  0.342645  0  4.079012  0  0  0.365457  0  4.085618  0  0  0.194909  0.327253  0  4.074121  0
S  S46  1  0.96662853  0.30474501  0.54943497  1  0  -0.428894  0  2.058128  0  0  -0.39807  0  2.398131  0  0  -0.420077  0  2.393301  0  0  -0.19343  -0.382019  0  2.400876  0
S  S47  1  0.82063669  0.69566307  0.45064595  1  0  -0.430029  0  2.058868  0  0  -0.399091  0  2.399007  0  0  -0.421209  0  2.394198  0  0  -0.193232  -0.382883  0  2.401651  0
S  S48  1  0.02198240  0.19465295  0.04967308  1  0  -0.429488  0  2.060609  0  0  -0.398694  0  2.400803  0  0  -0.42071  0  2.395987  0  0  -0.193328  -0.382658  0  2.403509  0
S  S49  1  0.26610723  0.80453134  0.95068213  1  0  -0.430054  0  2.058809  0  0  -0.399116  0  2.399522  0  0  -0.421216  0  2.394693  0  0  -0.193237  -0.382952  0  2.402212  0
N  N50  1  0.81736920  0.82409627  0.90177533  1  0  -0.342586  0  3.244506  0  0  -0.272845  0  3.501936  0  0  -0.289716  0  3.52022  0  0  -0.326905  -0.261333  0  3.489345  0
N  N51  1  0.54310159  0.17605223  0.09812574  1  0  -0.342422  0  3.243139  0  0  -0.272888  0  3.500581  0  0  -0.289717  0  3.518909  0  0  -0.327428  -0.261444  0  3.488052  0
N  N52  1  0.39151681  0.67574348  0.40183825  1  0  -0.345094  0  3.246198  0  0  -0.274641  0  3.503243  0  0  -0.291509  0  3.521532  0  0  -0.327055  -0.263155  0  3.490699  0
N  N53  1  0.46904644  0.32390385  0.59801691  1  0  -0.343061  0  3.243598  0  0  -0.273582  0  3.501546  0  0  -0.290408  0  3.519909  0  0  -0.327121  -0.26211  0  3.488986  0
N  N54  1  0.82962471  0.11669154  0.82751593  1  0  -0.289838  0  3.147227  0  0  -0.233894  0  3.435042  0  0  -0.248132  0  3.449049  0  0  -0.241875  -0.224251  0  3.425339  0
N  N55  1  0.77331947  0.88323304  0.17245486  1  0  -0.289487  0  3.149144  0  0  -0.233791  0  3.436722  0  0  -0.248097  0  3.450786  0  0  -0.242187  -0.224084  0  3.426955  0
N  N56  1  0.69617164  0.38323079  0.32760303  1  0  -0.287911  0  3.150472  0  0  -0.23178  0  3.437718  0  0  -0.246095  0  3.451758  0  0  -0.240527  -0.222085  0  3.427996  0
N  N57  1  0.40621297  0.61703359  0.67238303  1  0  -0.288879  0  3.147336  0  0  -0.232512  0  3.434959  0  0  -0.246811  0  3.44891  0  0  -0.24128  -0.222816  0  3.425267  0
N  N58  1  0.86708511  0.75778270  0.23388304  1  0  -0.271226  0  2.909882  0  0  -0.252086  0  3.19324  0  0  -0.264  0  3.207496  0  0  -0.226703  -0.243962  0  3.183528  0
N  N59  1  0.85939866  0.24215616  0.76612519  1  0  -0.272308  0  2.912198  0  0  -0.253332  0  3.195492  0  0  -0.265265  0  3.209734  0  0  -0.22749  -0.245205  0  3.18578  0
N  N60  1  0.37459579  0.74245310  0.73389384  1  0  -0.272168  0  2.909348  0  0  -0.252856  0  3.192729  0  0  -0.264772  0  3.206942  0  0  -0.226679  -0.244753  0  3.183029  0
N  N61  1  0.85141364  0.25763411  0.26630989  1  0  -0.271001  0  2.911158  0  0  -0.251722  0  3.193976  0  0  -0.263628  0  3.208217  0  0  -0.227082  -0.243621  0  3.184279  0
O  O62  1  0.89555575  0.05418416  0.65658294  1  0  -0.263664  0  2.268643  0  0  -0.185008  0  2.487085  0  0  -0.203073  0  2.488117  0  0  -0.106098  -0.17284  0  2.485983  0
O  O63  1  0.60651889  0.94622846  0.34338746  1  0  -0.26321  0  2.271038  0  0  -0.184827  0  2.489202  0  0  -0.20298  0  2.490321  0  0  -0.106002  -0.172765  0  2.488251  0
O  O64  1  0.70024548  0.44552911  0.15662222  1  0  -0.261453  0  2.267274  0  0  -0.183819  0  2.48638  0  0  -0.201962  0  2.487428  0  0  -0.105611  -0.171592  0  2.485291  0
O  O65  1  0.30219175  0.55410639  0.84329096  1  0  -0.264407  0  2.268995  0  0  -0.184582  0  2.487182  0  0  -0.20295  0  2.488383  0  0  -0.106174  -0.172492  0  2.486296  0
