# generated using pymatgen
data_Co3H20C14(NO9)2
_symmetry_space_group_name_H-M   'P 1'
_cell_length_a   7.19355368
_cell_length_b   8.36967437
_cell_length_c   9.40845264
_cell_angle_alpha   110.20073857
_cell_angle_beta   100.81211574
_cell_angle_gamma   94.56271345
_symmetry_Int_Tables_number   1
_chemical_formula_structural   Co3H20C14(NO9)2
_chemical_formula_sum   'Co3 H20 C14 N2 O18'
_cell_volume   515.74022531
_cell_formula_units_Z   1
loop_
 _symmetry_equiv_pos_site_id
 _symmetry_equiv_pos_as_xyz
  1  'x, y, z'
loop_
 _atom_site_type_symbol
 _atom_site_label
 _atom_site_symmetry_multiplicity
 _atom_site_fract_x
 _atom_site_fract_y
 _atom_site_fract_z
 _atom_site_occupancy
 _atom_site_hle17_ddec_charge
 _atom_site_hle17_ddec_spin_density
 _atom_site_hle17_ddec_sum_bond_order
 _atom_site_hle17_magmom
 _atom_site_hse06_10hf_ddec_charge
 _atom_site_hse06_10hf_ddec_spin_density
 _atom_site_hse06_10hf_ddec_sum_bond_order
 _atom_site_hse06_10hf_magmom
 _atom_site_hse06_ddec_charge
 _atom_site_hse06_ddec_spin_density
 _atom_site_hse06_ddec_sum_bond_order
 _atom_site_hse06_magmom
 _atom_site_pbe_cm5_charge
 _atom_site_pbe_ddec_charge
 _atom_site_pbe_ddec_spin_density
 _atom_site_pbe_ddec_sum_bond_order
 _atom_site_pbe_magmom
Co  Co0  1  0.99989203  0.99996810  0.00001766  1  1.204364  -2.886145  1.74249  -2.628  1.176533  -2.870016  2.124284  -2.689  1.242846  -2.906582  2.058218  -2.754  0.646318  1.120859  -2.830329  2.173904  -2.622
Co  Co1  1  0.61183399  0.85981804  0.37102726  1  1.086459  2.929807  1.842854  2.599  1.047395  2.878096  2.236256  2.658  1.121048  2.922364  2.167044  2.729  0.671435  0.984216  2.827185  2.294083  2.582
Co  Co2  1  0.39008018  0.14035896  0.63007806  1  1.086656  -2.863766  1.848427  -2.6  1.048758  -2.850238  2.24216  -2.66  1.121614  -2.890876  2.173053  -2.73  0.673382  0.986763  -2.804804  2.299303  -2.587
H  H3  1  0.12250264  0.40620331  0.40174545  1  0.146032  0.000522  0.944339  0.001  0.151006  0.0004  1.011045  0.001  0.155815  0.000302  1.007794  0.0  0.115493  0.147585  0.000491  1.013448  0.001
H  H4  1  0.87655024  0.59451150  0.59760076  1  0.145244  -9.3e-05  0.945229  0.0  0.150528  -0.000405  1.011696  0.0  0.155243  -0.000293  1.008583  0.0  0.115522  0.147127  -0.000509  1.014071  -0.001
H  H5  1  0.51324783  0.21435357  0.10527550  1  0.127562  0.000366  0.979522  0.001  0.136706  0.000214  1.042157  0.001  0.140999  0.000176  1.039475  0.0  0.112266  0.133439  0.000274  1.044478  0.001
H  H6  1  0.48674686  0.78550972  0.89524772  1  0.127886  -0.00011  0.979638  0.0  0.136916  -0.00036  1.042358  -0.001  0.141221  -0.000224  1.039661  0.0  0.112441  0.133624  -0.000526  1.044702  -0.001
H  H7  1  0.95720924  0.85920592  0.52255167  1  0.428826  0.000127  0.863822  0.0  0.400572  0.000411  0.928868  0.001  0.410587  0.000291  0.914313  0.001  0.300211  0.393279  0.000498  0.939385  0.001
H  H8  1  0.04431473  0.14118336  0.47909994  1  0.428084  -8.3e-05  0.864357  0.0  0.399875  -0.000365  0.929693  -0.001  0.409834  -0.000252  0.915212  -0.001  0.300053  0.392637  -0.000446  0.940129  -0.001
H  H9  1  0.82664934  0.90836868  0.64586555  1  0.42369  2.8e-05  0.887537  -0.001  0.392572  0.000321  0.951815  0.0  0.40425  0.000214  0.935229  0.0  0.291977  0.384259  0.000425  0.9635  0.0
H  H10  1  0.17386078  0.09197091  0.35532406  1  0.423895  0.000309  0.886899  0.001  0.392859  8.8e-05  0.950972  0.0  0.40453  0.00021  0.934385  0.0  0.29208  0.384519  -1.9e-05  0.962718  0.0
H  H11  1  0.38287836  0.76910951  0.08446235  1  0.424885  -0.00044  0.873629  -0.001  0.392429  -0.000266  0.946944  -0.001  0.403172  -0.000292  0.93167  -0.001  0.296633  0.384927  -0.000249  0.957491  0.0
H  H12  1  0.61691211  0.23103170  0.91632506  1  0.425408  0.000499  0.874266  0.001  0.393365  0.000315  0.946349  0.0  0.404108  0.000359  0.931081  0.001  0.296816  0.385889  0.000273  0.956848  0.0
H  H13  1  0.36756012  0.96735894  0.17801935  1  0.427543  0.000136  0.864714  0.0  0.39567  0.000358  0.939256  0.001  0.407159  0.000295  0.922842  0.0  0.295998  0.387435  0.000393  0.950387  0.001
H  H14  1  0.63269086  0.03258901  0.82278209  1  0.428062  7.5e-05  0.863878  0.0  0.39607  -0.000224  0.938937  -0.001  0.407517  -8.9e-05  0.922596  0.0  0.296202  0.387853  -0.000357  0.949904  -0.001
H  H15  1  0.17908092  0.86204731  0.75638130  1  0.423065  -0.000304  0.878422  0.0  0.393903  -0.00047  0.940394  -0.001  0.40511  -0.000306  0.924021  -0.001  0.294969  0.385667  -0.000615  0.952469  -0.001
H  H16  1  0.82140816  0.13778056  0.24394490  1  0.422733  -9.5e-05  0.878974  0.0  0.393461  -0.000162  0.941162  -0.001  0.404694  -7.7e-05  0.924742  -0.001  0.294749  0.385246  -0.000242  0.953196  -0.001
H  H17  1  0.32188643  0.02190106  0.87892463  1  0.421227  -0.000248  0.86367  0.0  0.395996  -0.000448  0.931508  -0.001  0.406351  -0.000253  0.916181  0.0  0.297517  0.388355  -0.000626  0.942796  -0.001
H  H18  1  0.67832733  0.97787700  0.12171909  1  0.421804  -0.00021  0.863498  0.0  0.396559  -0.000193  0.930996  -0.001  0.406897  -0.000123  0.915681  0.0  0.297836  0.388906  -0.00025  0.942317  -0.001
H  H19  1  0.07801321  0.25013958  0.88519346  1  0.436979  -0.000454  0.861717  -0.001  0.406343  -0.000533  0.924906  -0.001  0.41861  -0.000278  0.907201  -0.001  0.293643  0.397297  -0.000793  0.937846  -0.002
H  H20  1  0.92211372  0.74913580  0.11415914  1  0.436772  -0.00025  0.862001  -0.001  0.406234  -0.000352  0.925116  -0.001  0.418568  -0.000276  0.907291  -0.001  0.293374  0.397117  -0.000398  0.938179  -0.001
H  H21  1  0.93387984  0.31678527  0.99881050  1  0.440204  -0.000616  0.853392  -0.001  0.412017  -0.000733  0.91216  -0.002  0.4232  -0.000548  0.895806  -0.001  0.300632  0.403883  -0.000898  0.923948  -0.002
H  H22  1  0.06625359  0.68326017  0.00027984  1  0.440147  -0.000583  0.853751  -0.001  0.411944  -0.000714  0.912541  -0.002  0.423117  -0.000539  0.896212  -0.001  0.300551  0.403805  -0.000865  0.924337  -0.002
C  C23  1  0.33332289  0.58918530  0.38217706  1  0.122248  -0.008625  3.76935  -0.012  0.127377  -0.003311  4.019163  -0.005  0.132386  -0.002221  4.036582  -0.003  0.106531  0.122625  -0.004862  4.009033  -0.006
C  C24  1  0.66586549  0.41119137  0.61684554  1  0.122032  0.01585  3.770281  0.023  0.127705  0.004348  4.019821  0.007  0.132888  0.003653  4.036985  0.006  0.106961  0.122705  0.005551  4.010106  0.009
C  C25  1  0.23949024  0.42421846  0.34732718  1  -0.204964  0.00173  3.58885  0.003  -0.239648  -0.000509  3.843776  0.0  -0.247914  -0.000201  3.85927  0.0  -0.084078  -0.234074  -0.000898  3.834804  -0.001
C  C26  1  0.75956955  0.57625123  0.65192427  1  -0.203866  -0.016884  3.589457  -0.023  -0.239215  -0.005966  3.845299  -0.008  -0.247477  -0.004845  3.860652  -0.006  -0.083939  -0.233602  -0.007436  3.836578  -0.01
C  C27  1  0.30051116  0.28209204  0.24319569  1  0.405515  -0.006877  3.837181  -0.009  0.390941  -0.004437  4.105721  -0.006  0.411631  -0.00276  4.115557  -0.004  0.096123  0.375038  -0.006684  4.100053  -0.008
C  C28  1  0.69890606  0.71812282  0.75665755  1  0.406818  0.016479  3.833007  0.022  0.391615  0.003597  4.103149  0.005  0.412569  0.003101  4.112795  0.004  0.095534  0.375263  0.004559  4.097777  0.006
C  C29  1  0.45495005  0.31843271  0.18047097  1  -0.207777  0.002118  3.623402  0.003  -0.242568  -0.000322  3.878163  0.0  -0.251371  -0.000132  3.8941  0.0  -0.091043  -0.236918  -0.000427  3.869496  0.0
C  C30  1  0.54453985  0.68158171  0.81937466  1  -0.20839  -0.016848  3.624038  -0.023  -0.243241  -0.005948  3.878835  -0.008  -0.252067  -0.004799  3.894645  -0.006  -0.091415  -0.237586  -0.0073  3.870571  -0.01
C  C31  1  0.53566034  0.48749865  0.21734084  1  0.117895  -0.006835  3.78537  -0.009  0.120091  -0.002322  4.041051  -0.003  0.125995  -0.00165  4.058795  -0.002  0.103709  0.11469  -0.00325  4.030617  -0.004
C  C32  1  0.46359813  0.51249876  0.78195345  1  0.118129  0.014025  3.784992  0.02  0.121242  0.003416  4.039375  0.006  0.127271  0.00313  4.056839  0.005  0.103066  0.115475  0.004017  4.029594  0.006
C  C33  1  0.69713502  0.53811576  0.15329447  1  0.637737  -0.001821  3.867907  -0.002  0.583786  0.000133  4.1683  0.0  0.617826  0.000248  4.160713  0.001  0.223182  0.559827  -0.000203  4.172658  0.0
C  C34  1  0.30241548  0.46147632  0.84594406  1  0.636146  0.002073  3.869317  0.002  0.582501  2.2e-05  4.169055  0.0  0.616622  -0.000177  4.161412  -0.001  0.222697  0.558472  0.000484  4.173571  0.0
C  C35  1  0.29369587  0.74676784  0.50113680  1  0.644995  -0.00135  3.855003  -0.002  0.592372  -0.001402  4.154791  -0.002  0.629718  -0.000906  4.144451  -0.001  0.226663  0.564661  -0.002038  4.162043  -0.003
C  C36  1  0.70629032  0.25358696  0.49846320  1  0.643605  0.001182  3.854694  0.001  0.591159  0.001168  4.154217  0.002  0.628472  0.000763  4.143868  0.001  0.226263  0.563433  0.001738  4.161546  0.002
N  N37  1  0.47642212  0.62107450  0.31671344  1  -0.391727  0.049007  3.421708  0.081  -0.363117  0.032012  3.708398  0.05  -0.389575  0.025802  3.726274  0.039  -0.350501  -0.343084  0.036601  3.696595  0.057
N  N38  1  0.52286765  0.37908982  0.68236584  1  -0.392048  -0.061102  3.421827  -0.104  -0.364566  -0.040137  3.709248  -0.064  -0.390719  -0.032195  3.726641  -0.05  -0.35132  -0.344976  -0.04655  3.698048  -0.074
O  O39  1  0.74611963  0.42668067  0.04286341  1  -0.611135  0.001385  2.014658  0.002  -0.548497  0.001168  2.229908  0.002  -0.573346  0.000752  2.219966  0.001  -0.300133  -0.530587  0.00173  2.236518  0.003
O  O40  1  0.25288002  0.57251023  0.95622522  1  -0.61052  -0.001395  2.013677  -0.002  -0.548164  -0.001592  2.228831  -0.002  -0.573002  -0.000909  2.218891  -0.001  -0.300339  -0.530277  -0.002515  2.235442  -0.004
O  O41  1  0.77439679  0.69760013  0.21671941  1  -0.61358  0.033626  2.020899  0.055  -0.562333  0.026519  2.264447  0.041  -0.5969  0.020252  2.254026  0.031  -0.293682  -0.534926  0.033163  2.270173  0.052
O  O42  1  0.22598834  0.30168211  0.78249443  1  -0.613567  -0.034315  2.022414  -0.058  -0.56285  -0.027286  2.26639  -0.044  -0.597571  -0.020547  2.256079  -0.032  -0.293921  -0.535318  -0.034493  2.271873  -0.055
O  O43  1  0.41885440  0.88182511  0.53534819  1  -0.630118  0.005242  2.189322  0.016  -0.590076  0.002475  2.481127  0.012  -0.631531  0.00032  2.468478  0.008  -0.298222  -0.554722  0.005706  2.487824  0.019
O  O44  1  0.58161008  0.11820244  0.46466078  1  -0.630717  -0.003861  2.187102  -0.014  -0.590316  -0.002255  2.477957  -0.011  -0.632081  -5.8e-05  2.465811  -0.007  -0.298416  -0.554789  -0.005701  2.484692  -0.018
O  O45  1  0.15253571  0.74088944  0.56174216  1  -0.613522  0.002164  2.00507  0.004  -0.554922  0.001202  2.224031  0.002  -0.578706  0.000702  2.21187  0.001  -0.298282  -0.53835  0.001954  2.232879  0.004
O  O46  1  0.84767854  0.25945835  0.43818978  1  -0.611803  -0.002427  2.00395  -0.004  -0.55337  -0.00184  2.222989  -0.003  -0.577118  -0.001049  2.210865  -0.002  -0.297934  -0.536898  -0.002934  2.231807  -0.005
O  O47  1  0.21903252  0.12080788  0.20709075  1  -0.675002  -0.029147  2.156639  -0.048  -0.610014  -0.021368  2.392209  -0.031  -0.643195  -0.017392  2.383916  -0.024  -0.33116  -0.584709  -0.025493  2.397301  -0.037
O  O48  1  0.78087121  0.87949205  0.79350278  1  -0.675278  -0.025777  2.158315  -0.043  -0.610557  -0.019203  2.394656  -0.027  -0.643869  -0.015887  2.386233  -0.021  -0.330786  -0.58492  -0.022656  2.399808  -0.032
O  O49  1  0.84792187  0.91940653  0.54586080  1  -0.826427  0.036613  1.976503  0.06  -0.791889  0.029322  2.199948  0.044  -0.819721  0.023875  2.162055  0.035  -0.57817  -0.768691  0.034468  2.226144  0.052
O  O50  1  0.15279447  0.08022912  0.45505154  1  -0.826109  -0.035015  1.974766  -0.06  -0.792528  -0.028033  2.198226  -0.043  -0.819999  -0.022714  2.160347  -0.035  -0.578669  -0.769639  -0.033224  2.224293  -0.051
O  O51  1  0.45782426  0.88033565  0.16335850  1  -0.844674  0.026831  2.002632  0.044  -0.800244  0.024272  2.232202  0.037  -0.827778  0.020104  2.195632  0.03  -0.562225  -0.778096  0.027871  2.257166  0.042
O  O52  1  0.54236924  0.11963790  0.83709170  1  -0.845479  -0.027439  2.003157  -0.046  -0.800984  -0.025399  2.231529  -0.038  -0.828833  -0.020759  2.195122  -0.031  -0.562482  -0.778875  -0.029585  2.25665  -0.045
O  O53  1  0.21351112  0.93581898  0.86934011  1  -0.830988  -0.023078  1.930795  -0.04  -0.793592  -0.021229  2.139436  -0.032  -0.816748  -0.01776  2.103444  -0.027  -0.57573  -0.775746  -0.02443  2.16552  -0.037
O  O54  1  0.78652665  0.06398778  0.13097746  1  -0.831555  -0.023137  1.930609  -0.04  -0.794112  -0.021055  2.138573  -0.032  -0.817285  -0.017663  2.102618  -0.027  -0.576186  -0.776309  -0.02399  2.164606  -0.037
O  O55  1  0.99879494  0.21898363  0.95115308  1  -0.866675  -0.030829  1.961185  -0.05  -0.829806  -0.025608  2.172828  -0.038  -0.857414  -0.020715  2.135489  -0.03  -0.586179  -0.806965  -0.03086  2.198788  -0.046
O  O56  1  0.00115750  0.78079971  0.04830726  1  -0.866724  -0.030035  1.961953  -0.048  -0.82989  -0.025157  2.173246  -0.036  -0.857648  -0.020567  2.135917  -0.029  -0.586017  -0.806823  -0.02993  2.199117  -0.043
