# generated using pymatgen
data_ZnH11C10(NO2)3
_symmetry_space_group_name_H-M   'P 1'
_cell_length_a   10.06959881
_cell_length_b   9.97542890
_cell_length_c   13.31600000
_cell_angle_alpha   81.87883080
_cell_angle_beta   81.95528466
_cell_angle_gamma   66.49667663
_symmetry_Int_Tables_number   1
_chemical_formula_structural   ZnH11C10(NO2)3
_chemical_formula_sum   'Zn4 H44 C40 N12 O24'
_cell_volume   1209.14240065
_cell_formula_units_Z   4
loop_
 _symmetry_equiv_pos_site_id
 _symmetry_equiv_pos_as_xyz
  1  'x, y, z'
loop_
 _atom_site_type_symbol
 _atom_site_label
 _atom_site_symmetry_multiplicity
 _atom_site_fract_x
 _atom_site_fract_y
 _atom_site_fract_z
 _atom_site_occupancy
 _atom_site_hle17_bader_spin_density
 _atom_site_hle17_ddec_charge
 _atom_site_hle17_ddec_spin_density
 _atom_site_hle17_ddec_sum_bond_order
 _atom_site_hle17_magmom
 _atom_site_hse06_10hf_bader_spin_density
 _atom_site_hse06_10hf_ddec_charge
 _atom_site_hse06_10hf_ddec_spin_density
 _atom_site_hse06_10hf_ddec_sum_bond_order
 _atom_site_hse06_10hf_magmom
 _atom_site_hse06_bader_spin_density
 _atom_site_hse06_ddec_charge
 _atom_site_hse06_ddec_spin_density
 _atom_site_hse06_ddec_sum_bond_order
 _atom_site_hse06_magmom
 _atom_site_pbe_bader_charge
 _atom_site_pbe_bader_spin_density
 _atom_site_pbe_cm5_charge
 _atom_site_pbe_ddec_charge
 _atom_site_pbe_ddec_spin_density
 _atom_site_pbe_ddec_sum_bond_order
 _atom_site_pbe_magmom
Zn  Zn0  1  0.81976117  0.62988610  0.72861359  1  0  1.039575  0  1.756397  0  0  0.855208  0  2.229168  0  0  0.901569  0  2.174415  0  1.22612  0  0.683081  0.822483  0  2.267295  0
Zn  Zn1  1  0.37108293  0.17997891  0.76977577  1  0  1.040252  0  1.756166  0  0  0.855646  0  2.228774  0  0  0.902007  0  2.174037  0  1.223593  0  0.68397  0.822897  0  2.266898  0
Zn  Zn2  1  0.18023559  0.37011567  0.27138597  1  0  1.039582  0  1.75639  0  0  0.855205  0  2.229135  0  0  0.901572  0  2.174387  0  1.226112  0  0.683074  0.822485  0  2.267263  0
Zn  Zn3  1  0.62891684  0.82002286  0.23022647  1  0  1.040251  0  1.756228  0  0  0.855638  0  2.228844  0  0  0.901993  0  2.174097  0  1.223565  0  0.683987  0.822884  0  2.266966  0
H  H4  1  0.97477173  0.98178987  0.67529403  1  0  0.125793  0  0.964703  0  0  0.125643  0  1.0413  0  0  0.130028  0  1.036931  0  0.163708  0  0.114899  0.12248  0  1.044421  0
H  H5  1  0.01980211  0.02633511  0.82308602  1  0  0.125762  0  0.965091  0  0  0.125301  0  1.041931  0  0  0.129669  0  1.0377  0  0.149568  0  0.114682  0.122123  0  1.045039  0
H  H6  1  0.02523114  0.01820641  0.32471146  1  0  0.125825  0  0.964648  0  0  0.12569  0  1.04122  0  0  0.130083  0  1.036826  0  0.163714  0  0.114922  0.122523  0  1.044354  0
H  H7  1  0.98019556  0.97367215  0.17691811  1  0  0.125754  0  0.965111  0  0  0.125316  0  1.041939  0  0  0.129684  0  1.037716  0  0.149602  0  0.114677  0.122141  0  1.045043  0
H  H8  1  0.31327811  0.07346138  0.47863751  1  0  0.121297  0  0.951107  0  0  0.126162  0  1.019903  0  0  0.130562  0  1.015589  0  0.147126  0  0.116617  0.122802  0  1.023262  0
H  H9  1  0.92737624  0.68669588  0.02148702  1  0  0.122288  0  0.948537  0  0  0.127003  0  1.017417  0  0  0.131446  0  1.013084  0  0.146854  0  0.116827  0.123697  0  1.020601  0
H  H10  1  0.68672234  0.92653599  0.52136437  1  0  0.121276  0  0.951185  0  0  0.12615  0  1.019974  0  0  0.130546  0  1.015659  0  0.147071  0  0.11661  0.122791  0  1.02333  0
H  H11  1  0.07262093  0.31330479  0.97850810  1  0  0.122272  0  0.948587  0  0  0.127007  0  1.017435  0  0  0.131452  0  1.013104  0  0.146837  0  0.11682  0.123699  0  1.020628  0
H  H12  1  0.27136456  0.66071983  0.47981959  1  0  0.108989  0  0.967296  0  0  0.113502  0  1.039627  0  0  0.117927  0  1.035304  0  0.130867  0  0.11197  0.10999  0  1.043203  0
H  H13  1  0.33687805  0.72787743  0.02027243  1  0  0.11015  0  0.963974  0  0  0.113499  0  1.03738  0  0  0.118056  0  1.03292  0  0.136464  0  0.111855  0.10992  0  1.041018  0
H  H14  1  0.72863916  0.33927426  0.52018305  1  0  0.108985  0  0.967307  0  0  0.113511  0  1.039636  0  0  0.117937  0  1.035315  0  0.130922  0  0.111985  0.110005  0  1.043205  0
H  H15  1  0.66312097  0.27212104  0.97972573  1  0  0.110147  0  0.963976  0  0  0.113495  0  1.037372  0  0  0.118045  0  1.032933  0  0.136524  0  0.111847  0.109915  0  1.041011  0
H  H16  1  0.55509258  0.58438490  0.56752925  1  0  0.066661  0  0.926431  0  0  0.084544  0  0.987556  0  0  0.084893  0  0.987845  0  0.061557  0  0.102941  0.084019  0  0.987888  0
H  H17  1  0.41464526  0.44618487  0.93234748  1  0  0.066273  0  0.925013  0  0  0.085116  0  0.985186  0  0  0.085447  0  0.985508  0  0.063992  0  0.103336  0.084627  0  0.985485  0
H  H18  1  0.44490619  0.41561687  0.43246784  1  0  0.066654  0  0.926476  0  0  0.084582  0  0.987552  0  0  0.084935  0  0.987842  0  0.061511  0  0.102944  0.084052  0  0.987889  0
H  H19  1  0.58535509  0.55381799  0.06765008  1  0  0.066268  0  0.924993  0  0  0.085099  0  0.98516  0  0  0.085431  0  0.985476  0  0.06402  0  0.103333  0.08461  0  0.985457  0
H  H20  1  0.62851887  0.72151216  0.53624344  1  0  0.064648  0  0.935158  0  0  0.083823  0  0.994425  0  0  0.083724  0  0.995215  0  0.061528  0  0.103955  0.083796  0  0.993933  0
H  H21  1  0.28003807  0.37051865  0.96316057  1  0  0.064752  0  0.935412  0  0  0.084044  0  0.994614  0  0  0.083887  0  0.995517  0  0.048225  0  0.104529  0.084081  0  0.994013  0
H  H22  1  0.37148132  0.27848851  0.46375437  1  0  0.064669  0  0.935094  0  0  0.083833  0  0.99438  0  0  0.083733  0  0.995173  0  0.061564  0  0.103954  0.083806  0  0.993886  0
H  H23  1  0.71996244  0.62948641  0.03683824  1  0  0.064725  0  0.935435  0  0  0.084015  0  0.994618  0  0  0.083858  0  0.995522  0  0.048151  0  0.104516  0.084051  0  0.994022  0
H  H24  1  0.42027877  0.79989161  0.66950189  1  0  0.05452  0  0.944123  0  0  0.072235  0  1.007158  0  0  0.071198  0  1.010154  0  0.046042  0  0.095635  0.072812  0  1.005368  0
H  H25  1  0.20061529  0.58209551  0.83064845  1  0  0.054458  0  0.945021  0  0  0.072088  0  1.008468  0  0  0.070942  0  1.011627  0  0.035476  0  0.09585  0.072721  0  1.0066  0
H  H26  1  0.57972100  0.20011016  0.33049585  1  0  0.054538  0  0.944103  0  0  0.07225  0  1.00713  0  0  0.071213  0  1.010125  0  0.046093  0  0.095636  0.072828  0  1.005339  0
H  H27  1  0.79938665  0.41790845  0.16934958  1  0  0.054448  0  0.944991  0  0  0.072069  0  1.008455  0  0  0.070921  0  1.011615  0  0.035496  0  0.095831  0.072702  0  1.006587  0
H  H28  1  0.50535139  0.63515883  0.74855844  1  0  0.074527  0  0.932048  0  0  0.094733  0  0.98686  0  0  0.095225  0  0.987267  0  0.070282  0  0.108505  0.094394  0  0.986469  0
H  H29  1  0.36339265  0.49750342  0.75113068  1  0  0.07368  0  0.934324  0  0  0.093866  0  0.98928  0  0  0.094388  0  0.989634  0  0.079503  0  0.108214  0.093478  0  0.988971  0
H  H30  1  0.49464679  0.36484184  0.25143883  1  0  0.074524  0  0.932093  0  0  0.094715  0  0.986908  0  0  0.095207  0  0.987315  0  0.070273  0  0.108495  0.094376  0  0.986519  0
H  H31  1  0.63660728  0.50250055  0.24886756  1  0  0.073723  0  0.934291  0  0  0.093904  0  0.989247  0  0  0.094425  0  0.989602  0  0.079513  0  0.108227  0.093515  0  0.98894  0
H  H32  1  0.83059036  0.50869672  0.55825758  1  0  0.323064  0  0.895316  0  0  0.308893  0  0.956557  0  0  0.315258  0  0.951894  0  0.488983  0  0.296439  0.304296  0  0.960115  0
H  H33  1  0.49142483  0.16800601  0.94057380  1  0  0.323432  0  0.892256  0  0  0.309796  0  0.952592  0  0  0.316162  0  0.947878  0  0.488167  0  0.297376  0.305201  0  0.956167  0
H  H34  1  0.16940940  0.49130505  0.44174090  1  0  0.323109  0  0.895291  0  0  0.308948  0  0.956502  0  0  0.315314  0  0.951837  0  0.489008  0  0.296458  0.304351  0  0.96006  0
H  H35  1  0.50857610  0.83199796  0.05942733  1  0  0.323431  0  0.89224  0  0  0.30979  0  0.952585  0  0  0.316155  0  0.947871  0  0.488163  0  0.297362  0.305196  0  0.956157  0
H  H36  1  0.75575535  0.44158633  0.66038505  1  0  0.306011  0  0.890414  0  0  0.29627  0  0.945298  0  0  0.301742  0  0.941839  0  0.445194  0  0.300308  0.2925  0  0.947488  0
H  H37  1  0.55737678  0.24478453  0.83894826  1  0  0.306197  0  0.890724  0  0  0.29646  0  0.945842  0  0  0.301967  0  0.94232  0  0.457115  0  0.30018  0.292638  0  0.948141  0
H  H38  1  0.24424241  0.55841544  0.33961290  1  0  0.30606  0  0.890387  0  0  0.296285  0  0.945305  0  0  0.301759  0  0.941846  0  0.445172  0  0.300345  0.292516  0  0.947493  0
H  H39  1  0.44262399  0.75521724  0.16105087  1  0  0.306212  0  0.890698  0  0  0.296473  0  0.945811  0  0  0.301979  0  0.942291  0  0.457229  0  0.300174  0.292652  0  0.948109  0
H  H40  1  0.56694682  0.80513579  0.80985901  1  0  0.309787  0  0.918409  0  0  0.297003  0  0.978208  0  0  0.303333  0  0.973602  0  0.478943  0  0.291625  0.292106  0  0.982251  0
H  H41  1  0.19501229  0.43465228  0.68990518  1  0  0.310639  0  0.918139  0  0  0.297617  0  0.978121  0  0  0.303923  0  0.973573  0  0.478563  0  0.29231  0.292774  0  0.982061  0
H  H42  1  0.43304993  0.19486597  0.19013905  1  0  0.309845  0  0.918342  0  0  0.297031  0  0.978176  0  0  0.303361  0  0.97357  0  0.478925  0  0.291633  0.292136  0  0.982216  0
H  H43  1  0.80498748  0.56534949  0.31009481  1  0  0.310616  0  0.918159  0  0  0.297604  0  0.978126  0  0  0.30391  0  0.973577  0  0.478549  0  0.292302  0.292761  0  0.982067  0
H  H44  1  0.59942565  0.88176609  0.69782788  1  0  0.300964  0  0.923992  0  0  0.290945  0  0.979549  0  0  0.297181  0  0.975357  0  0.459695  0  0.287022  0.286368  0  0.982841  0
H  H45  1  0.12044575  0.40040039  0.80194083  1  0  0.301424  0  0.919876  0  0  0.291845  0  0.974724  0  0  0.298076  0  0.970501  0  0.458302  0  0.288027  0.287267  0  0.97803  0
H  H46  1  0.40057454  0.11823458  0.30217067  1  0  0.300976  0  0.923973  0  0  0.290955  0  0.979541  0  0  0.297192  0  0.975347  0  0.459692  0  0.287023  0.286378  0  0.982834  0
H  H47  1  0.87955275  0.59960467  0.19806044  1  0  0.301425  0  0.919861  0  0  0.291852  0  0.974706  0  0  0.298082  0  0.970485  0  0.458335  0  0.288054  0.287274  0  0.978013  0
C  C48  1  0.04294655  0.70458496  0.62084555  1  0  0.631103  0  3.942798  0  0  0.583806  0  4.231686  0  0  0.617056  0  4.226113  0  1.595581  0  0.201178  0.561346  0  4.234546  0
C  C49  1  0.29565445  0.95582809  0.87752494  1  0  0.631338  0  3.939724  0  0  0.583569  0  4.229344  0  0  0.616879  0  4.22372  0  1.570593  0  0.200211  0.561023  0  4.232251  0
C  C50  1  0.95705532  0.29541132  0.37915555  1  0  0.63104  0  3.942865  0  0  0.583737  0  4.231761  0  0  0.616989  0  4.226183  0  1.595575  0  0.201207  0.561274  0  4.234623  0
C  C51  1  0.70434574  0.04417258  0.12247587  1  0  0.631359  0  3.939827  0  0  0.583571  0  4.229467  0  0  0.616881  0  4.223846  0  1.570583  0  0.200214  0.561024  0  4.232373  0
C  C52  1  0.11781514  0.80823114  0.58346399  1  0  -0.065294  0  3.754992  0  0  -0.03867  0  3.989717  0  0  -0.049731  0  4.01414  0  -0.003401  0  -0.0172  -0.032034  0  3.974055  0
C  C53  1  0.19157492  0.88202742  0.91551522  1  0  -0.063705  0  3.752156  0  0  -0.036846  0  3.986079  0  0  -0.047931  0  4.010552  0  0.025881  0  -0.016343  -0.030164  0  3.970381  0
C  C54  1  0.88218757  0.19176295  0.41653875  1  0  -0.065231  0  3.754808  0  0  -0.038613  0  3.989599  0  0  -0.04967  0  4.014001  0  -0.003749  0  -0.017195  -0.031973  0  3.973941  0
C  C55  1  0.80842426  0.11797325  0.08448420  1  0  -0.063661  0  3.752081  0  0  -0.0368  0  3.986013  0  0  -0.047887  0  4.010488  0  0.025851  0  -0.016346  -0.030117  0  3.970313  0
C  C56  1  0.06898606  0.94624560  0.61966030  1  0  -0.078507  0  3.675179  0  0  -0.11784  0  3.934316  0  0  -0.113875  0  3.952374  0  0.029732  0  -0.06468  -0.120286  0  3.922695  0
C  C57  1  0.05475026  0.93159571  0.87916358  1  0  -0.081397  0  3.672283  0  0  -0.119646  0  3.932347  0  0  -0.115721  0  3.950339  0  0.025056  0  -0.065786  -0.1221  0  3.92081  0
C  C58  1  0.93101623  0.05374958  0.38034462  1  0  -0.078644  0  3.675369  0  0  -0.118  0  3.934583  0  0  -0.114022  0  3.952622  0  0.02957  0  -0.06481  -0.120453  0  3.922963  0
C  C59  1  0.94524481  0.06841045  0.12083719  1  0  -0.081466  0  3.672235  0  0  -0.119744  0  3.9323  0  0  -0.115823  0  3.950292  0  0.024685  0  -0.065802  -0.122181  0  3.920757  0
C  C60  1  0.14207470  0.03789186  0.58115510  1  0  0.064319  0  3.720161  0  0  0.050109  0  3.978041  0  0  0.044768  0  4.000332  0  0.1462  0  0.075593  0.053168  0  3.962907  0
C  C61  1  0.96326119  0.85869102  0.91815761  1  0  0.066617  0  3.714569  0  0  0.049893  0  3.975589  0  0  0.044545  0  3.997953  0  0.166056  0  0.076536  0.052961  0  3.96038  0
C  C62  1  0.85792818  0.96210442  0.41884889  1  0  0.064397  0  3.720185  0  0  0.050167  0  3.978109  0  0  0.044825  0  4.000391  0  0.146424  0  0.075689  0.053228  0  3.962974  0
C  C63  1  0.03673732  0.14131404  0.08184516  1  0  0.066704  0  3.714577  0  0  0.049918  0  3.975585  0  0  0.044567  0  3.997952  0  0.167046  0  0.076581  0.052954  0  3.960416  0
C  C64  1  0.25904279  0.99883786  0.50628836  1  0  -0.070125  0  3.656271  0  0  -0.111496  0  3.915082  0  0  -0.105863  0  3.92939  0  -0.014316  0  -0.062147  -0.114462  0  3.904962  0
C  C65  1  0.00161240  0.74100216  0.99350918  1  0  -0.071276  0  3.653603  0  0  -0.111642  0  3.912956  0  0  -0.106099  0  3.927265  0  -0.010458  0  -0.062422  -0.114474  0  3.902759  0
C  C66  1  0.74095607  0.00115842  0.49371380  1  0  -0.070151  0  3.656325  0  0  -0.111522  0  3.915134  0  0  -0.105878  0  3.929435  0  -0.014569  0  -0.062168  -0.114489  0  3.905014  0
C  C67  1  0.99838678  0.25899851  0.00648873  1  0  -0.071177  0  3.653517  0  0  -0.111568  0  3.912858  0  0  -0.106028  0  3.927171  0  -0.010729  0  -0.062358  -0.114391  0  3.902668  0
C  C68  1  0.30422331  0.86238369  0.46837178  1  0  -0.052795  0  3.73452  0  0  -0.024622  0  3.968485  0  0  -0.035032  0  3.991448  0  0.027313  0  -0.008857  -0.01839  0  3.953178  0
C  C69  1  0.13670414  0.69546364  0.03166041  1  0  -0.053161  0  3.734998  0  0  -0.025506  0  3.968956  0  0  -0.035826  0  3.991826  0  0.036175  0  -0.0099  -0.019361  0  3.953731  0
C  C70  1  0.69577840  0.13761039  0.53163182  1  0  -0.052903  0  3.734726  0  0  -0.024681  0  3.968658  0  0  -0.035097  0  3.99162  0  0.02715  0  -0.008943  -0.018448  0  3.953354  0
C  C71  1  0.86329488  0.30453484  0.96833850  1  0  -0.053201  0  3.735089  0  0  -0.025511  0  3.96902  0  0  -0.035829  0  3.991888  0  0.036214  0  -0.009899  -0.019365  0  3.953793  0
C  C72  1  0.23463269  0.76755907  0.50861162  1  0  -0.035546  0  3.663242  0  0  -0.079488  0  3.914549  0  0  -0.074262  0  3.931173  0  -0.087694  0  -0.060369  -0.082036  0  3.903766  0
C  C73  1  0.23116771  0.76495016  0.99115663  1  0  -0.036897  0  3.664137  0  0  -0.080253  0  3.916587  0  0  -0.075129  0  3.933121  0  -0.097049  0  -0.060704  -0.082738  0  3.905867  0
C  C74  1  0.76536802  0.23243501  0.49139133  1  0  -0.03545  0  3.663051  0  0  -0.079445  0  3.914402  0  0  -0.074219  0  3.931024  0  -0.087119  0  -0.060345  -0.081996  0  3.903608  0
C  C75  1  0.76883190  0.23504942  0.00884135  1  0  -0.03691  0  3.664144  0  0  -0.080267  0  3.916566  0  0  -0.075142  0  3.933092  0  -0.097149  0  -0.060727  -0.082753  0  3.905847  0
C  C76  1  0.42435890  0.81278356  0.38429334  1  0  0.631643  0  3.933  0  0  0.581371  0  4.226329  0  0  0.614559  0  4.221255  0  1.585207  0  0.202282  0.558903  0  4.228814  0
C  C77  1  0.18534009  0.57504617  0.11639640  1  0  0.631743  0  3.939118  0  0  0.582403  0  4.230897  0  0  0.6156  0  4.225815  0  1.582472  0  0.20293  0.559912  0  4.233425  0
C  C78  1  0.57564507  0.18720723  0.61570962  1  0  0.631579  0  3.933041  0  0  0.581289  0  4.226382  0  0  0.61448  0  4.221308  0  1.585416  0  0.202282  0.55882  0  4.228865  0
C  C79  1  0.81466563  0.42494791  0.88360002  1  0  0.631806  0  3.939083  0  0  0.582423  0  4.230894  0  0  0.61562  0  4.225815  0  1.582423  0  0.20295  0.559932  0  4.233422  0
C  C80  1  0.61380037  0.64054795  0.59710150  1  0  0.051318  0  3.619938  0  0  -0.005686  0  3.884183  0  0  -0.002301  0  3.897593  0  0.25632  0  -0.074946  -0.007686  0  3.874805  0
C  C81  1  0.35964360  0.38663002  0.90238074  1  0  0.053706  0  3.619232  0  0  -0.004166  0  3.885376  0  0  -0.000836  0  3.89891  0  0.271741  0  -0.074203  -0.006191  0  3.875944  0
C  C82  1  0.38619839  0.35945382  0.40289634  1  0  0.051306  0  3.619908  0  0  -0.005718  0  3.884147  0  0  -0.00234  0  3.897566  0  0.256407  0  -0.074944  -0.007712  0  3.874758  0
C  C83  1  0.64035776  0.61337285  0.09761746  1  0  0.053727  0  3.61911  0  0  -0.004107  0  3.885207  0  0  -0.000774  0  3.898738  0  0.271848  0  -0.074194  -0.006131  0  3.875777  0
C  C84  1  0.52553788  0.71656335  0.69082399  1  0  0.04455  0  3.63566  0  0  -0.011577  0  3.898167  0  0  -0.008508  0  3.912014  0  0.271597  0  -0.079311  -0.013913  0  3.888844  0
C  C85  1  0.28335336  0.47626316  0.80893806  1  0  0.0446  0  3.636875  0  0  -0.01175  0  3.900429  0  0  -0.008654  0  3.914245  0  0.269141  0  -0.079402  -0.014096  0  3.891173  0
C  C86  1  0.47446189  0.28343842  0.30917375  1  0  0.044528  0  3.635673  0  0  -0.011561  0  3.89814  0  0  -0.008492  0  3.911987  0  0.27136  0  -0.079296  -0.013897  0  3.888815  0
C  C87  1  0.71664699  0.52373971  0.19106175  1  0  0.044561  0  3.636777  0  0  -0.011792  0  3.900317  0  0  -0.008698  0  3.914134  0  0.268021  0  -0.079394  -0.014141  0  3.891064  0
N  N88  1  0.09179005  0.18246704  0.61949438  1  0  0.476132  0  3.940816  0  0  0.533696  0  4.195024  0  0  0.555446  0  4.202807  0  0.382388  0  0.058713  0.519205  0  4.189784  0
N  N89  1  0.81954609  0.91008753  0.88011956  1  0  0.478207  0  3.939031  0  0  0.536252  0  4.194064  0  0  0.557971  0  4.201872  0  0.377804  0  0.060283  0.521831  0  4.188685  0
N  N90  1  0.90821240  0.81753034  0.38050804  1  0  0.476205  0  3.940741  0  0  0.533725  0  4.195043  0  0  0.555481  0  4.202813  0  0.382151  0  0.058695  0.519235  0  4.189799  0
N  N91  1  0.18045125  0.08991534  0.11988057  1  0  0.478104  0  3.939428  0  0  0.536362  0  4.194209  0  0  0.55808  0  4.202019  0  0.377409  0  0.060301  0.521954  0  4.188825  0
N  N92  1  0.76066582  0.53670522  0.62292776  1  0  -0.651533  0  3.113706  0  0  -0.593302  0  3.381447  0  0  -0.612167  0  3.375323  0  -1.152571  0  -0.627024  -0.579705  0  3.385094  0
N  N93  1  0.46334772  0.23898585  0.87605153  1  0  -0.651507  0  3.111478  0  0  -0.593477  0  3.380024  0  0  -0.612372  0  3.373914  0  -1.164059  0  -0.625908  -0.579845  0  3.383653  0
N  N94  1  0.23933294  0.46329655  0.37707083  1  0  -0.651554  0  3.113671  0  0  -0.593303  0  3.381493  0  0  -0.612171  0  3.375368  0  -1.152601  0  -0.62703  -0.579709  0  3.385139  0
N  N95  1  0.53665262  0.76101702  0.12394903  1  0  -0.651526  0  3.11138  0  0  -0.59348  0  3.379878  0  0  -0.612374  0  3.373765  0  -1.164208  0  -0.625895  -0.579845  0  3.383502  0
N  N96  1  0.60909687  0.78175877  0.73655209  1  0  -0.652703  0  3.122752  0  0  -0.591834  0  3.383292  0  0  -0.611957  0  3.37891  0  -1.180638  0  -0.634501  -0.577744  0  3.386773  0
N  N97  1  0.21903725  0.39184565  0.76310036  1  0  -0.6526  0  3.121876  0  0  -0.591188  0  3.382257  0  0  -0.611304  0  3.377893  0  -1.177992  0  -0.634706  -0.577085  0  3.38569  0
N  N98  1  0.39090173  0.21824080  0.26344675  1  0  -0.65276  0  3.122662  0  0  -0.59189  0  3.38323  0  0  -0.612016  0  3.378852  0  -1.180448  0  -0.634528  -0.577799  0  3.38671  0
N  N99  1  0.78096252  0.60815612  0.23690038  1  0  -0.652564  0  3.12184  0  0  -0.591153  0  3.382204  0  0  -0.611265  0  3.377834  0  -1.176966  0  -0.63472  -0.577047  0  3.385636  0
O  O100  1  0.93994967  0.74782751  0.69320938  1  0  -0.644284  0  2.053883  0  0  -0.573135  0  2.331074  0  0  -0.602732  0  2.318857  0  -1.174599  0  -0.33379  -0.551975  0  2.338406  0
O  O101  1  0.25427956  0.05855675  0.80404937  1  0  -0.646202  0  2.055758  0  0  -0.574104  0  2.332488  0  0  -0.603681  0  2.320218  0  -1.167164  0  -0.333614  -0.552999  0  2.339989  0
O  O102  1  0.06005120  0.25216877  0.30679182  1  0  -0.644385  0  2.054025  0  0  -0.573146  0  2.331117  0  0  -0.602741  0  2.318891  0  -1.174608  0  -0.333804  -0.551984  0  2.338448  0
O  O103  1  0.74571836  0.94144722  0.19595509  1  0  -0.646234  0  2.055907  0  0  -0.574117  0  2.33263  0  0  -0.603691  0  2.320358  0  -1.167185  0  -0.333612  -0.55301  0  2.340126  0
O  O104  1  0.08230789  0.58608246  0.58148956  1  0  -0.608034  0  1.948629  0  0  -0.56245  0  2.171784  0  0  -0.583762  0  2.162358  0  -1.179065  0  -0.314737  -0.547866  0  2.179327  0
O  O105  1  0.41275208  0.91591477  0.91745674  1  0  -0.60828  0  1.941644  0  0  -0.562803  0  2.164402  0  0  -0.584106  0  2.154831  0  -1.186862  0  -0.314869  -0.548157  0  2.171982  0
O  O106  1  0.91769297  0.41391382  0.41851239  1  0  -0.60791  0  1.948583  0  0  -0.562358  0  2.171768  0  0  -0.583673  0  2.162345  0  -1.178967  0  -0.3147  -0.547774  0  2.179314  0
O  O107  1  0.58724794  0.08408371  0.08254356  1  0  -0.608298  0  1.941655  0  0  -0.562802  0  2.164405  0  0  -0.584103  0  2.154834  0  -1.186827  0  -0.314863  -0.548158  0  2.171987  0
O  O108  1  0.45843098  0.68946950  0.35386977  1  0  -0.597127  0  1.897918  0  0  -0.54899  0  2.112889  0  0  -0.57168  0  2.105773  0  -1.176509  0  -0.314816  -0.532866  0  2.116923  0
O  O109  1  0.30757889  0.54081295  0.14683967  1  0  -0.59772  0  1.900123  0  0  -0.549652  0  2.114667  0  0  -0.572426  0  2.107543  0  -1.17374  0  -0.315208  -0.533486  0  2.118703  0
O  O110  1  0.54156604  0.31052897  0.64613387  1  0  -0.597026  0  1.897718  0  0  -0.54889  0  2.112704  0  0  -0.571585  0  2.105595  0  -1.176477  0  -0.314742  -0.532765  0  2.116733  0
O  O111  1  0.69242492  0.45917565  0.85315152  1  0  -0.597799  0  1.900005  0  0  -0.549733  0  2.114578  0  0  -0.572507  0  2.107461  0  -1.173677  0  -0.315258  -0.533561  0  2.118611  0
O  O112  1  0.48629959  0.90409998  0.34768326  1  0  -0.657853  0  2.035651  0  0  -0.583198  0  2.303638  0  0  -0.611415  0  2.288031  0  -1.173969  0  -0.328348  -0.563156  0  2.313947  0
O  O113  1  0.09466005  0.51314264  0.15363510  1  0  -0.658532  0  2.035386  0  0  -0.584857  0  2.30287  0  0  -0.61305  0  2.287318  0  -1.171446  0  -0.329868  -0.564832  0  2.313132  0
O  O114  1  0.51370270  0.09589520  0.65232091  1  0  -0.657859  0  2.035669  0  0  -0.583194  0  2.303655  0  0  -0.611415  0  2.288052  0  -1.174121  0  -0.328383  -0.563151  0  2.31395  0
O  O115  1  0.90533997  0.48685584  0.84636370  1  0  -0.658523  0  2.035448  0  0  -0.584804  0  2.302911  0  0  -0.612996  0  2.287362  0  -1.171449  0  -0.329832  -0.564778  0  2.313171  0
O  O116  1  0.16492537  0.25798283  0.59081317  1  0  -0.340638  0  1.798726  0  0  -0.327266  0  1.998521  0  0  -0.33986  0  1.994712  0  -0.467772  0  -0.111762  -0.318962  0  2.002382  0
O  O117  1  0.74415797  0.83693689  0.90932132  1  0  -0.343684  0  1.792376  0  0  -0.33071  0  1.990901  0  0  -0.343267  0  1.987071  0  -0.466272  0  -0.114976  -0.322619  0  1.994951  0
O  O118  1  0.83507951  0.74201345  0.40918761  1  0  -0.34066  0  1.798694  0  0  -0.327278  0  1.998505  0  0  -0.339876  0  1.994708  0  -0.467563  0  -0.111781  -0.318973  0  2.002365  0
O  O119  1  0.25584021  0.16306378  0.09067895  1  0  -0.343706  0  1.792485  0  0  -0.330814  0  1.990924  0  0  -0.343363  0  1.987088  0  -0.466254  0  -0.115081  -0.322728  0  1.994974  0
O  O120  1  0.97881605  0.22153708  0.67836089  1  0  -0.340048  0  1.76313  0  0  -0.328153  0  1.955945  0  0  -0.341016  0  1.952416  0  -0.463063  0  -0.119009  -0.319272  0  1.958366  0
O  O121  1  0.78089897  0.02419286  0.82113814  1  0  -0.340988  0  1.762701  0  0  -0.328089  0  1.953793  0  0  -0.340916  0  1.950289  0  -0.476445  0  -0.118494  -0.319381  0  1.95633  0
O  O122  1  0.02118388  0.77846689  0.32163885  1  0  -0.340074  0  1.763061  0  0  -0.328126  0  1.95585  0  0  -0.341018  0  1.952351  0  -0.463158  0  -0.118985  -0.319245  0  1.958269  0
O  O123  1  0.21909963  0.97580672  0.17885996  1  0  -0.340946  0  1.762765  0  0  -0.328134  0  1.953803  0  0  -0.340969  0  1.950306  0  -0.476396  0  -0.118471  -0.319433  0  1.956345  0
