# generated using pymatgen
data_SrH11C4NO7
_symmetry_space_group_name_H-M   'P 1'
_cell_length_a   7.24574423
_cell_length_b   9.97496373
_cell_length_c   11.60517317
_cell_angle_alpha   89.99979998
_cell_angle_beta   89.99985158
_cell_angle_gamma   89.99991858
_symmetry_Int_Tables_number   1
_chemical_formula_structural   SrH11C4NO7
_chemical_formula_sum   'Sr4 H44 C16 N4 O28'
_cell_volume   838.77591258
_cell_formula_units_Z   4
loop_
 _symmetry_equiv_pos_site_id
 _symmetry_equiv_pos_as_xyz
  1  'x, y, z'
loop_
 _atom_site_type_symbol
 _atom_site_label
 _atom_site_symmetry_multiplicity
 _atom_site_fract_x
 _atom_site_fract_y
 _atom_site_fract_z
 _atom_site_occupancy
 _atom_site_hle17_bader_spin_density
 _atom_site_hle17_ddec_charge
 _atom_site_hle17_ddec_spin_density
 _atom_site_hle17_ddec_sum_bond_order
 _atom_site_hle17_magmom
 _atom_site_hse06_10hf_bader_spin_density
 _atom_site_hse06_10hf_ddec_charge
 _atom_site_hse06_10hf_ddec_spin_density
 _atom_site_hse06_10hf_ddec_sum_bond_order
 _atom_site_hse06_10hf_magmom
 _atom_site_hse06_bader_spin_density
 _atom_site_hse06_ddec_charge
 _atom_site_hse06_ddec_spin_density
 _atom_site_hse06_ddec_sum_bond_order
 _atom_site_hse06_magmom
 _atom_site_pbe_bader_spin_density
 _atom_site_pbe_cm5_charge
 _atom_site_pbe_ddec_charge
 _atom_site_pbe_ddec_spin_density
 _atom_site_pbe_ddec_sum_bond_order
 _atom_site_pbe_magmom
Sr  Sr0  1  0.24983478  0.12454566  0.01395201  1  0  1.608028  0  1.074998  0  0  1.457097  0  1.447043  0  0  1.496291  0  1.401815  0  0  0.910626  1.428535  0  1.478963  0
Sr  Sr1  1  0.74982395  0.37544759  0.98604702  1  0  1.608075  0  1.074947  0  0  1.45723  0  1.446838  0  0  1.496418  0  1.401615  0  0  0.910634  1.428671  0  1.478761  0
Sr  Sr2  1  0.75017391  0.62454926  0.48604808  1  0  1.608065  0  1.074932  0  0  1.457154  0  1.446959  0  0  1.496347  0  1.40173  0  0  0.910643  1.428596  0  1.478882  0
Sr  Sr3  1  0.25016562  0.87545364  0.51395290  1  0  1.608047  0  1.074981  0  0  1.457112  0  1.447039  0  0  1.496304  0  1.401811  0  0  0.910631  1.428554  0  1.47896  0
H  H4  1  0.02817527  0.65235628  0.97065233  1  0  0.057868  0  0.949064  0  0  0.071902  0  1.009966  0  0  0.073011  0  1.010069  0  0  0.1189  0.071023  0  1.010105  0
H  H5  1  0.52817813  0.84764786  0.02934814  1  0  0.057915  0  0.949095  0  0  0.071912  0  1.009996  0  0  0.07302  0  1.0101  0  0  0.118889  0.071033  0  1.010133  0
H  H6  1  0.97182025  0.15235186  0.52934826  1  0  0.057906  0  0.949099  0  0  0.07189  0  1.010028  0  0  0.072991  0  1.010138  0  0  0.118902  0.071011  0  1.010167  0
H  H7  1  0.47182876  0.34764518  0.47065213  1  0  0.057876  0  0.949071  0  0  0.071859  0  1.009993  0  0  0.072964  0  1.010102  0  0  0.118887  0.070981  0  1.010129  0
H  H8  1  0.21076005  0.68369301  0.78521759  1  0  0.289385  0  0.911019  0  0  0.279331  0  0.970496  0  0  0.28549  0  0.965524  0  0  0.299005  0.274863  0  0.974252  0
H  H9  1  0.71076495  0.81630492  0.21478173  1  0  0.289395  0  0.911029  0  0  0.279348  0  0.97048  0  0  0.285506  0  0.96551  0  0  0.299027  0.274879  0  0.974236  0
H  H10  1  0.78923542  0.18369605  0.71477946  1  0  0.289404  0  0.910974  0  0  0.279325  0  0.970486  0  0  0.28548  0  0.96552  0  0  0.299014  0.274856  0  0.974243  0
H  H11  1  0.28924061  0.31630618  0.28521778  1  0  0.289464  0  0.910932  0  0  0.279367  0  0.970465  0  0  0.285524  0  0.965497  0  0  0.299014  0.274898  0  0.974221  0
H  H12  1  0.35966951  0.57798316  0.84218360  1  0  0.303728  0  0.897783  0  0  0.293425  0  0.956071  0  0  0.299421  0  0.951351  0  0  0.295495  0.289096  0  0.959536  0
H  H13  1  0.85967030  0.92201662  0.15781547  1  0  0.303725  0  0.897767  0  0  0.293415  0  0.95606  0  0  0.299411  0  0.951338  0  0  0.295507  0.289085  0  0.959521  0
H  H14  1  0.64032754  0.07798358  0.65781549  1  0  0.303747  0  0.897733  0  0  0.293448  0  0.956014  0  0  0.299444  0  0.951289  0  0  0.295517  0.289119  0  0.959479  0
H  H15  1  0.14032815  0.42201580  0.34218286  1  0  0.303709  0  0.897781  0  0  0.293407  0  0.956072  0  0  0.299403  0  0.95135  0  0  0.29548  0.289078  0  0.959535  0
H  H16  1  0.41711861  0.60903946  0.06231320  1  0  0.090205  0  0.995757  0  0  0.101577  0  1.063392  0  0  0.103461  0  1.063121  0  0  0.10186  0.100115  0  1.063827  0
H  H17  1  0.91712175  0.89094722  0.93768320  1  0  0.090128  0  0.995787  0  0  0.101552  0  1.063408  0  0  0.103432  0  1.063135  0  0  0.101845  0.100097  0  1.063848  0
H  H18  1  0.58288045  0.10904783  0.43768262  1  0  0.090205  0  0.995731  0  0  0.101651  0  1.063339  0  0  0.103517  0  1.063059  0  0  0.101883  0.100193  0  1.063778  0
H  H19  1  0.08287745  0.39096064  0.56231409  1  0  0.090152  0  0.995757  0  0  0.101582  0  1.06338  0  0  0.103456  0  1.063101  0  0  0.101868  0.100127  0  1.06382  0
H  H20  1  0.20678395  0.61357678  0.13907051  1  0  0.111773  0  0.961838  0  0  0.125099  0  1.026455  0  0  0.12805  0  1.02431  0  0  0.11057  0.122711  0  1.028498  0
H  H21  1  0.70678879  0.88643018  0.86093570  1  0  0.111672  0  0.961869  0  0  0.125018  0  1.026537  0  0  0.127968  0  1.02438  0  0  0.110565  0.122637  0  1.028588  0
H  H22  1  0.79321373  0.11357420  0.36092874  1  0  0.111755  0  0.961859  0  0  0.125109  0  1.026498  0  0  0.128045  0  1.024345  0  0  0.110574  0.122726  0  1.028544  0
H  H23  1  0.29321594  0.38642401  0.63907108  1  0  0.111714  0  0.961806  0  0  0.125058  0  1.026452  0  0  0.128001  0  1.024303  0  0  0.110552  0.122678  0  1.0285  0
H  H24  1  0.10353458  0.12057928  0.27155966  1  0  0.42076  0  0.884657  0  0  0.390865  0  0.947511  0  0  0.401295  0  0.932071  0  0  0.296041  0.383492  0  0.958438  0
H  H25  1  0.60353447  0.37942114  0.72843960  1  0  0.420914  0  0.884436  0  0  0.390964  0  0.947401  0  0  0.401393  0  0.93196  0  0  0.296073  0.38359  0  0.958331  0
H  H26  1  0.89646446  0.62057977  0.22843871  1  0  0.420896  0  0.884476  0  0  0.390944  0  0.947444  0  0  0.401374  0  0.932002  0  0  0.296054  0.38357  0  0.958374  0
H  H27  1  0.39646200  0.87941997  0.77156117  1  0  0.420886  0  0.884487  0  0  0.390924  0  0.947473  0  0  0.401356  0  0.932027  0  0  0.29605  0.38355  0  0.958402  0
H  H28  1  0.93911068  0.18065441  0.19583922  1  0  0.413849  0  0.895619  0  0  0.38415  0  0.958876  0  0  0.394914  0  0.943016  0  0  0.293839  0.376516  0  0.970115  0
H  H29  1  0.43910819  0.31934366  0.80415692  1  0  0.413869  0  0.895632  0  0  0.384184  0  0.958857  0  0  0.394948  0  0.943  0  0  0.293833  0.376552  0  0.970095  0
H  H30  1  0.06088824  0.68065646  0.30415725  1  0  0.413899  0  0.895585  0  0  0.384215  0  0.958811  0  0  0.39498  0  0.942949  0  0  0.293853  0.376583  0  0.970047  0
H  H31  1  0.56088563  0.81934563  0.69584058  1  0  0.413832  0  0.895648  0  0  0.384137  0  0.95889  0  0  0.394901  0  0.943039  0  0  0.293841  0.376505  0  0.970127  0
H  H32  1  0.41453511  0.07683861  0.26930876  1  0  0.416744  0  0.883944  0  0  0.387405  0  0.946752  0  0  0.39718  0  0.932355  0  0  0.303287  0.380503  0  0.95693  0
H  H33  1  0.91453767  0.42315948  0.73069001  1  0  0.416754  0  0.883931  0  0  0.387424  0  0.946726  0  0  0.397199  0  0.932329  0  0  0.303308  0.380522  0  0.956903  0
H  H34  1  0.58546401  0.57684343  0.23069061  1  0  0.416758  0  0.883922  0  0  0.387425  0  0.946725  0  0  0.397199  0  0.93233  0  0  0.303299  0.380524  0  0.956901  0
H  H35  1  0.08546423  0.92316165  0.76930977  1  0  0.416761  0  0.883915  0  0  0.387427  0  0.946717  0  0  0.397202  0  0.932321  0  0  0.303293  0.380525  0  0.956895  0
H  H36  1  0.57167449  0.01127756  0.18576064  1  0  0.389124  0  0.924521  0  0  0.349316  0  1.009499  0  0  0.36056  0  0.993839  0  0  0.28194  0.341464  0  1.020399  0
H  H37  1  0.07167577  0.48871989  0.81424040  1  0  0.389125  0  0.924524  0  0  0.349329  0  1.009484  0  0  0.360571  0  0.993826  0  0  0.281961  0.341476  0  1.020386  0
H  H38  1  0.42832338  0.51128120  0.31423978  1  0  0.389117  0  0.924542  0  0  0.349317  0  1.009503  0  0  0.360562  0  0.993841  0  0  0.281952  0.341464  0  1.020405  0
H  H39  1  0.92832324  0.98872252  0.68576091  1  0  0.389129  0  0.924494  0  0  0.349338  0  1.009466  0  0  0.360579  0  0.993808  0  0  0.281948  0.341486  0  1.020365  0
H  H40  1  0.25771926  0.18199204  0.72243424  1  0  0.435392  0  0.859813  0  0  0.405479  0  0.921021  0  0  0.416196  0  0.905293  0  0  0.303574  0.397927  0  0.932137  0
H  H41  1  0.75771976  0.31800822  0.27756392  1  0  0.435419  0  0.859779  0  0  0.405486  0  0.920988  0  0  0.416194  0  0.905278  0  0  0.303604  0.397935  0  0.932103  0
H  H42  1  0.74228172  0.68199350  0.77756454  1  0  0.435413  0  0.859787  0  0  0.405492  0  0.921009  0  0  0.416212  0  0.905275  0  0  0.303578  0.397941  0  0.932125  0
H  H43  1  0.24228166  0.81800841  0.22243559  1  0  0.435401  0  0.8598  0  0  0.405493  0  0.921001  0  0  0.416209  0  0.905274  0  0  0.30358  0.397942  0  0.932116  0
H  H44  1  0.13519743  0.28272214  0.79776524  1  0  0.421649  0  0.883622  0  0  0.391121  0  0.947289  0  0  0.402  0  0.931488  0  0  0.297266  0.383414  0  0.958461  0
H  H45  1  0.63519292  0.21727724  0.20223569  1  0  0.421728  0  0.883497  0  0  0.391172  0  0.947215  0  0  0.402046  0  0.931421  0  0  0.297304  0.383454  0  0.958395  0
H  H46  1  0.86480474  0.78272478  0.70223409  1  0  0.421713  0  0.883526  0  0  0.391162  0  0.947235  0  0  0.402043  0  0.93143  0  0  0.297272  0.383454  0  0.958408  0
H  H47  1  0.36480317  0.71727800  0.29776584  1  0  0.421656  0  0.883611  0  0  0.391133  0  0.94727  0  0  0.402012  0  0.931468  0  0  0.297269  0.383425  0  0.958442  0
C  C48  1  0.21379717  0.81401690  0.97739721  1  0  0.621107  0  3.879786  0  0  0.567537  0  4.193987  0  0  0.598923  0  4.187605  0  0  0.208389  0.546291  0  4.197762  0
C  C49  1  0.71379208  0.68598203  0.02260211  1  0  0.621122  0  3.879551  0  0  0.567552  0  4.19373  0  0  0.598938  0  4.187351  0  0  0.208413  0.546311  0  4.197501  0
C  C50  1  0.78621184  0.31401972  0.52260118  1  0  0.621112  0  3.879268  0  0  0.567527  0  4.19346  0  0  0.598913  0  4.187084  0  0  0.208437  0.546286  0  4.197232  0
C  C51  1  0.28620131  0.18598252  0.47740038  1  0  0.621169  0  3.879665  0  0  0.567601  0  4.193805  0  0  0.59899  0  4.187416  0  0  0.208404  0.546358  0  4.197578  0
C  C52  1  0.17859462  0.66318132  0.96043692  1  0  0.097645  0  3.633045  0  0  0.075779  0  3.881859  0  0  0.075944  0  3.894467  0  0  0.004985  0.075769  0  3.873151  0
C  C53  1  0.67859745  0.83681664  0.03956417  1  0  0.097501  0  3.633203  0  0  0.075692  0  3.882006  0  0  0.07585  0  3.894608  0  0  0.004987  0.075692  0  3.873306  0
C  C54  1  0.82140503  0.16318303  0.53956191  1  0  0.097551  0  3.633008  0  0  0.075773  0  3.881843  0  0  0.075922  0  3.894428  0  0  0.00499  0.075769  0  3.873143  0
C  C55  1  0.32140256  0.33681917  0.46043700  1  0  0.097532  0  3.633255  0  0  0.075806  0  3.881911  0  0  0.07596  0  3.894511  0  0  0.005034  0.075807  0  3.87321  0
C  C56  1  0.27063542  0.58408808  0.05728715  1  0  -0.312581  0  3.668864  0  0  -0.354682  0  3.912958  0  0  -0.360093  0  3.919166  0  0  -0.164205  -0.350844  0  3.908952  0
C  C57  1  0.77064539  0.91590778  0.94271724  1  0  -0.312288  0  3.668707  0  0  -0.354467  0  3.912775  0  0  -0.35985  0  3.918954  0  0  -0.164171  -0.350673  0  3.908824  0
C  C58  1  0.72936231  0.08409527  0.44271306  1  0  -0.312491  0  3.668763  0  0  -0.354759  0  3.912956  0  0  -0.360079  0  3.919058  0  0  -0.164235  -0.350948  0  3.90898  0
C  C59  1  0.22936204  0.41590903  0.55728514  1  0  -0.312402  0  3.668788  0  0  -0.354597  0  3.912883  0  0  -0.35996  0  3.919042  0  0  -0.164194  -0.350801  0  3.908928  0
C  C60  1  0.25276303  0.43312516  0.04775113  1  0  0.739198  0  3.845382  0  0  0.69587  0  4.135648  0  0  0.729439  0  4.127584  0  0  0.218778  0.673238  0  4.14016  0
C  C61  1  0.75278053  0.06687311  0.95225307  1  0  0.739029  0  3.845165  0  0  0.695694  0  4.135492  0  0  0.729262  0  4.127417  0  0  0.218749  0.673072  0  4.140006  0
C  C62  1  0.74722851  0.93312690  0.45224803  1  0  0.738962  0  3.845341  0  0  0.695675  0  4.135618  0  0  0.729222  0  4.127552  0  0  0.218728  0.673058  0  4.14012  0
C  C63  1  0.24722896  0.56687400  0.54775036  1  0  0.739009  0  3.845401  0  0  0.695654  0  4.135762  0  0  0.729211  0  4.127699  0  0  0.218711  0.673038  0  4.140267  0
N  N64  1  0.22518501  0.61011367  0.84593975  1  0  -0.630009  0  2.990224  0  0  -0.589946  0  3.210544  0  0  -0.604557  0  3.207116  0  0  -0.60292  -0.579635  0  3.212977  0
N  N65  1  0.72518726  0.88988425  0.15406041  1  0  -0.63004  0  2.990278  0  0  -0.58995  0  3.210555  0  0  -0.604562  0  3.207127  0  0  -0.602967  -0.579639  0  3.212984  0
N  N66  1  0.77481197  0.11011496  0.65405925  1  0  -0.630067  0  2.99007  0  0  -0.589984  0  3.210412  0  0  -0.604592  0  3.206988  0  0  -0.602991  -0.579674  0  3.212844  0
N  N67  1  0.27481401  0.38988729  0.34593802  1  0  -0.630038  0  2.990205  0  0  -0.589971  0  3.210519  0  0  -0.604583  0  3.207093  0  0  -0.602917  -0.57966  0  3.212947  0
O  O68  1  0.24615696  0.88819077  0.88956124  1  0  -0.702864  0  2.042126  0  0  -0.633968  0  2.275252  0  0  -0.659  0  2.263639  0  0  -0.335783  -0.61663  0  2.282972  0
O  O69  1  0.74615579  0.61180913  0.11043888  1  0  -0.702907  0  2.042016  0  0  -0.634047  0  2.27517  0  0  -0.659072  0  2.263539  0  0  -0.335819  -0.616709  0  2.28289  0
O  O70  1  0.75384915  0.38819226  0.61043692  1  0  -0.702868  0  2.041994  0  0  -0.633988  0  2.275155  0  0  -0.659005  0  2.263502  0  0  -0.335776  -0.61665  0  2.282875  0
O  O71  1  0.25383912  0.11180700  0.38956383  1  0  -0.702894  0  2.042098  0  0  -0.634017  0  2.275165  0  0  -0.65905  0  2.263549  0  0  -0.335811  -0.616677  0  2.282884  0
O  O72  1  0.20120677  0.86315876  0.07799824  1  0  -0.665343  0  1.988565  0  0  -0.606151  0  2.225103  0  0  -0.631413  0  2.216135  0  0  -0.336284  -0.588847  0  2.231297  0
O  O73  1  0.70119942  0.63683617  0.92200195  1  0  -0.665274  0  1.988344  0  0  -0.606094  0  2.224906  0  0  -0.631356  0  2.215937  0  0  -0.336263  -0.588791  0  2.231099  0
O  O74  1  0.79881527  0.36316195  0.42199854  1  0  -0.665298  0  1.988197  0  0  -0.606092  0  2.224735  0  0  -0.63135  0  2.21577  0  0  -0.33633  -0.588792  0  2.230932  0
O  O75  1  0.29879061  0.13684228  0.57800041  1  0  -0.665345  0  1.98855  0  0  -0.606147  0  2.225061  0  0  -0.631408  0  2.216087  0  0  -0.33629  -0.588845  0  2.231259  0
O  O76  1  0.40081413  0.36363911  0.04917720  1  0  -0.749815  0  1.952585  0  0  -0.683216  0  2.196504  0  0  -0.710168  0  2.186893  0  0  -0.394066  -0.664155  0  2.202488  0
O  O77  1  0.90082737  0.13636401  0.95082331  1  0  -0.749771  0  1.952482  0  0  -0.683216  0  2.19653  0  0  -0.710173  0  2.186921  0  0  -0.394111  -0.664153  0  2.202506  0
O  O78  1  0.59918305  0.86363500  0.45082389  1  0  -0.749725  0  1.952471  0  0  -0.683165  0  2.196485  0  0  -0.710119  0  2.186885  0  0  -0.39411  -0.664105  0  2.20246  0
O  O79  1  0.09917646  0.63636205  0.54917819  1  0  -0.749742  0  1.952481  0  0  -0.683154  0  2.196511  0  0  -0.71011  0  2.186906  0  0  -0.394084  -0.664092  0  2.202487  0
O  O80  1  0.09348062  0.38060075  0.04192721  1  0  -0.728985  0  1.947479  0  0  -0.661831  0  2.186154  0  0  -0.68873  0  2.176896  0  0  -0.381772  -0.643254  0  2.192076  0
O  O81  1  0.59349525  0.11939567  0.95807638  1  0  -0.728892  0  1.947287  0  0  -0.661761  0  2.186028  0  0  -0.688668  0  2.176777  0  0  -0.381723  -0.643183  0  2.191942  0
O  O82  1  0.90651101  0.88060330  0.45807814  1  0  -0.728873  0  1.947538  0  0  -0.661749  0  2.186285  0  0  -0.688654  0  2.177043  0  0  -0.381703  -0.643173  0  2.192198  0
O  O83  1  0.40651138  0.61939643  0.54192430  1  0  -0.728873  0  1.947472  0  0  -0.661726  0  2.18621  0  0  -0.688628  0  2.176962  0  0  -0.381692  -0.643148  0  2.192123  0
O  O84  1  0.04387213  0.11622256  0.19516448  1  0  -0.887575  0  1.822976  0  0  -0.834984  0  2.003809  0  0  -0.854532  0  1.972321  0  0  -0.633432  -0.820903  0  2.025802  0
O  O85  1  0.54386894  0.38377592  0.80483489  1  0  -0.887762  0  1.822843  0  0  -0.83516  0  2.003673  0  0  -0.854704  0  1.97218  0  0  -0.633459  -0.821075  0  2.02567  0
O  O86  1  0.95612692  0.61622569  0.30483391  1  0  -0.887774  0  1.822828  0  0  -0.835153  0  2.003667  0  0  -0.8547  0  1.972179  0  0  -0.633461  -0.82107  0  2.025662  0
O  O87  1  0.45612752  0.88377801  0.69516587  1  0  -0.887689  0  1.822852  0  0  -0.835054  0  2.003701  0  0  -0.854609  0  1.972204  0  0  -0.633448  -0.820969  0  2.025695  0
O  O88  1  0.47928361  0.08880870  0.19551229  1  0  -0.868344  0  1.908228  0  0  -0.804882  0  2.102199  0  0  -0.826498  0  2.071853  0  0  -0.594194  -0.789316  0  2.12311  0
O  O89  1  0.97928588  0.41118732  0.80448809  1  0  -0.868358  0  1.908244  0  0  -0.804921  0  2.102178  0  0  -0.826539  0  2.071832  0  0  -0.594224  -0.789355  0  2.123096  0
O  O90  1  0.52071411  0.58881328  0.30448877  1  0  -0.86835  0  1.908246  0  0  -0.804907  0  2.102197  0  0  -0.826526  0  2.07185  0  0  -0.594215  -0.789342  0  2.123114  0
O  O91  1  0.02071466  0.91119186  0.69551172  1  0  -0.86837  0  1.908184  0  0  -0.804906  0  2.102141  0  0  -0.826524  0  2.071794  0  0  -0.594203  -0.789343  0  2.123057  0
O  O92  1  0.24130391  0.21815744  0.80144982  1  0  -0.870964  0  1.837667  0  0  -0.806289  0  2.008629  0  0  -0.827179  0  1.976435  0  0  -0.601898  -0.791374  0  2.031169  0
O  O93  1  0.74129929  0.28184084  0.19855095  1  0  -0.87106  0  1.837585  0  0  -0.806337  0  2.008634  0  0  -0.82722  0  1.976442  0  0  -0.601954  -0.79141  0  2.031209  0
O  O94  1  0.75869839  0.71815919  0.69854971  1  0  -0.87104  0  1.837592  0  0  -0.806337  0  2.008562  0  0  -0.82723  0  1.976361  0  0  -0.601902  -0.791423  0  2.031103  0
O  O95  1  0.25869668  0.78184169  0.30144953  1  0  -0.870994  0  1.83766  0  0  -0.80632  0  2.00862  0  0  -0.827209  0  1.976424  0  0  -0.601906  -0.791407  0  2.031159  0
