# generated using pymatgen
data_Zn4H57C63N3O19
_symmetry_space_group_name_H-M   'P 1'
_cell_length_a   17.89447065
_cell_length_b   18.04904985
_cell_length_c   18.13707492
_cell_angle_alpha   64.85220756
_cell_angle_beta   64.72232521
_cell_angle_gamma   64.71231373
_symmetry_Int_Tables_number   1
_chemical_formula_structural   Zn4H57C63N3O19
_chemical_formula_sum   'Zn8 H114 C126 N6 O38'
_cell_volume   4573.78349575
_cell_formula_units_Z   2
loop_
 _symmetry_equiv_pos_site_id
 _symmetry_equiv_pos_as_xyz
  1  'x, y, z'
loop_
 _atom_site_type_symbol
 _atom_site_label
 _atom_site_symmetry_multiplicity
 _atom_site_fract_x
 _atom_site_fract_y
 _atom_site_fract_z
 _atom_site_occupancy
 _atom_site_pbe_bader_charge
 _atom_site_pbe_bader_spin_density
 _atom_site_pbe_cm5_charge
 _atom_site_pbe_ddec_charge
 _atom_site_pbe_ddec_spin_density
 _atom_site_pbe_ddec_sum_bond_order
 _atom_site_pbe_magmom
Zn  Zn0  1  0.94007976  0.97942454  0.95781096  1  1.303414  0  0.667289  0.957824  0  2.387727  0
Zn  Zn1  1  0.11061239  0.00757008  0.94453216  1  1.310734  0  0.666199  0.955731  0  2.403599  0
Zn  Zn2  1  0.97053915  0.96367681  0.12615904  1  1.309075  0  0.666167  0.954073  0  2.407573  0
Zn  Zn3  1  0.92568041  0.14642456  0.98946867  1  1.311852  0  0.666771  0.953876  0  2.411288  0
Zn  Zn4  1  0.53624663  0.57324033  0.55495831  1  1.318777  0  0.671135  0.960826  0  2.307363  0
Zn  Zn5  1  0.36289639  0.57248279  0.54344337  1  1.30794  0  0.676212  0.961325  0  2.364578  0
Zn  Zn6  1  0.52405698  0.40189330  0.55232914  1  1.315678  0  0.675835  0.96208  0  2.367584  0
Zn  Zn7  1  0.53450099  0.56190106  0.38317133  1  1.308664  0  0.677141  0.967502  0  2.353216  0
H  H8  1  0.11662639  0.90816875  0.72066109  1  0.049464  0  0.102221  0.118633  0  0.983547  0
H  H9  1  0.20901916  0.92960540  0.71333344  1  0.025764  0  0.103981  0.121084  0  0.9762  0
H  H10  1  0.23311518  0.78965455  0.83651835  1  0.02931  0  0.095904  0.09602  0  0.976197  0
H  H11  1  0.15441452  0.76628888  0.82187377  1  0.021965  0  0.101639  0.10343  0  0.966902  0
H  H12  1  0.24459292  0.78463259  0.66508085  1  0.077512  0  0.11675  0.064128  0  1.004081  0
H  H13  1  0.34198285  0.64516591  0.79148163  1  0.049407  0  0.100184  0.114753  0  1.012254  0
H  H14  1  0.25086814  0.64129970  0.77763395  1  0.086689  0  0.114191  0.142331  0  0.954562  0
H  H15  1  0.37244207  0.80265244  0.71443646  1  0.459824  0  0.31854  0.283049  0  0.953587  0
H  H16  1  0.41063736  0.97175220  0.45855597  1  0.052173  0  0.107447  0.077862  0  0.972416  0
H  H17  1  0.48885496  0.87136875  0.45084391  1  0.0712  0  0.10481  0.073233  0  0.996676  0
H  H18  1  0.56232006  0.97588441  0.39980886  1  0.048451  0  0.113258  0.098321  0  0.934786  0
H  H19  1  0.63533625  0.77447589  0.48204884  1  0.051671  0  0.095448  0.096959  0  1.054984  0
H  H20  1  0.75854929  0.69760854  0.54360141  1  0.072198  0  0.096163  0.094898  0  1.043359  0
H  H21  1  0.79409671  0.76813115  0.60936068  1  0.085813  0  0.095448  0.090042  0  1.032974  0
H  H22  1  0.70362321  0.91597400  0.61981623  1  0.032959  0  0.095103  0.086831  0  1.056572  0
H  H23  1  0.59090436  0.06842701  0.61542073  1  0.078195  0  0.097947  0.100923  0  1.027166  0
H  H24  1  0.47278055  0.20606179  0.59237065  1  0.077945  0  0.096943  0.103042  0  1.028933  0
H  H25  1  0.37447506  0.22944164  0.51561827  1  0.032664  0  0.093393  0.088567  0  1.018249  0
H  H26  1  0.39457820  0.11789674  0.45722084  1  0.037779  0  0.097628  0.098354  0  1.004968  0
H  H27  1  0.86243074  0.74507447  0.13073780  1  0.068696  0  0.100708  0.116332  0  0.991474  0
H  H28  1  0.89222457  0.73230217  0.21906061  1  0.074461  0  0.104479  0.121933  0  0.974495  0
H  H29  1  0.75332419  0.85699578  0.25168878  1  0.034475  0  0.09552  0.096103  0  0.978078  0
H  H30  1  0.72148396  0.84543558  0.17782847  1  0.063232  0  0.10066  0.10217  0  0.967467  0
H  H31  1  0.74377196  0.68636817  0.26421881  1  0.087677  0  0.116334  0.063664  0  1.006828  0
H  H32  1  0.60738506  0.81113859  0.36519568  1  0.027704  0  0.099724  0.114944  0  1.015313  0
H  H33  1  0.59874195  0.79965329  0.27638667  1  0.06127  0  0.114798  0.142332  0  0.955135  0
H  H34  1  0.76676667  0.73238203  0.39021592  1  0.454967  0  0.318924  0.284584  0  0.950496  0
H  H35  1  0.94494967  0.47605754  0.41802144  1  0.075168  0  0.107669  0.078078  0  0.970442  0
H  H36  1  0.84208800  0.46730230  0.49009281  1  0.068286  0  0.105484  0.074511  0  0.989771  0
H  H37  1  0.93710833  0.41070096  0.57271411  1  0.065028  0  0.112951  0.097058  0  0.936503  0
H  H38  1  0.73434936  0.50937701  0.63036460  1  0.069579  0  0.096594  0.103255  0  1.053145  0
H  H39  1  0.65375324  0.57277353  0.75095125  1  0.102823  0  0.096419  0.096142  0  1.0423  0
H  H40  1  0.72710940  0.62483053  0.79884147  1  0.072847  0  0.095596  0.09172  0  1.029782  0
H  H41  1  0.88237288  0.61974327  0.72316150  1  0.037109  0  0.095112  0.087507  0  1.053734  0
H  H42  1  0.04128505  0.60491969  0.62168518  1  0.077604  0  0.09919  0.102662  0  1.021619  0
H  H43  1  0.18435427  0.57494056  0.51180063  1  0.094659  0  0.09654  0.103974  0  1.033147  0
H  H44  1  0.20945200  0.50238024  0.41020343  1  0.048381  0  0.095205  0.091121  0  1.007136  0
H  H45  1  0.09264041  0.45723391  0.41708086  1  0.039617  0  0.097634  0.097372  0  1.006595  0
H  H46  1  0.70370796  0.15741811  0.88170804  1  0.056813  0  0.101808  0.117823  0  0.988291  0
H  H47  1  0.69598529  0.24825730  0.90463769  1  0.058865  0  0.104884  0.123498  0  0.97384  0
H  H48  1  0.82316107  0.27147785  0.76719867  1  0.033167  0  0.09635  0.097849  0  0.974852  0
H  H49  1  0.80897518  0.19410801  0.74219073  1  0.036908  0  0.100073  0.101578  0  0.969424  0
H  H50  1  0.64935953  0.28418385  0.76180460  1  0.097597  0  0.117021  0.063917  0  1.005136  0
H  H51  1  0.77822542  0.37860262  0.62030420  1  0.037593  0  0.100769  0.116981  0  1.010121  0
H  H52  1  0.76177662  0.28858272  0.61838148  1  0.084105  0  0.114274  0.142713  0  0.954578  0
H  H53  1  0.69938326  0.41788786  0.76789189  1  0.456297  0  0.315051  0.280015  0  0.961922  0
H  H54  1  0.44310415  0.45005223  0.94358121  1  0.080702  0  0.10845  0.080082  0  0.978352  0
H  H55  1  0.43329861  0.53145327  0.84629041  1  0.058494  0  0.103944  0.073066  0  0.995391  0
H  H56  1  0.38433693  0.59637345  0.95686008  1  0.072962  0  0.113551  0.098586  0  0.933097  0
H  H57  1  0.46272998  0.67704738  0.75581825  1  0.049573  0  0.096404  0.096856  0  1.051281  0
H  H58  1  0.52163177  0.80169785  0.68360633  1  0.076063  0  0.096453  0.095332  0  1.041522  0
H  H59  1  0.58635606  0.83538643  0.75705321  1  0.046039  0  0.095822  0.090603  0  1.030255  0
H  H60  1  0.60060210  0.74061031  0.90160114  1  0.046485  0  0.095828  0.089126  0  1.054409  0
H  H61  1  0.60424087  0.62125875  0.04789978  1  0.059583  0  0.098292  0.102298  0  1.026446  0
H  H62  1  0.59056369  0.49633413  0.17810664  1  0.05958  0  0.095924  0.098047  0  1.030902  0
H  H63  1  0.51989114  0.39501896  0.19491868  1  0.029444  0  0.092922  0.086239  0  1.02223  0
H  H64  1  0.45525457  0.42144183  0.08583446  1  0.054917  0  0.099033  0.100876  0  1.002554  0
H  H65  1  0.27728836  0.90097544  0.11099355  1  0.052835  0  0.099522  0.116757  0  1.005446  0
H  H66  1  0.18547797  0.91725500  0.20128572  1  0.068348  0  0.109172  0.127983  0  0.965927  0
H  H67  1  0.17827465  0.76803321  0.22487947  1  0.058477  0  0.09565  0.098734  0  0.982406  0
H  H68  1  0.28455931  0.75023440  0.15264416  1  0.047742  0  0.095809  0.09471  0  0.973456  0
H  H69  1  0.33069595  0.78431595  0.24746431  1  0.086787  0  0.119871  0.07263  0  0.964513  0
H  H70  1  0.24718559  0.63880563  0.34279609  1  0.03726  0  0.102829  0.120592  0  0.997992  0
H  H71  1  0.34574450  0.63354762  0.25595366  1  0.050315  0  0.107808  0.131953  0  0.971724  0
H  H72  1  0.15719306  0.78175890  0.37240660  1  0.446923  0  0.330052  0.295117  0  0.907918  0
H  H73  1  0.17312341  0.98938058  0.41616292  1  0.046221  0  0.103961  0.073239  0  0.97547  0
H  H74  1  0.21494676  0.89293908  0.49077361  1  0.098671  0  0.105868  0.091928  0  1.004281  0
H  H75  1  0.08452274  0.97785050  0.57024459  1  0.044573  0  0.110901  0.095827  0  0.946448  0
H  H76  1  0.15587924  0.78014824  0.63582677  1  0.083735  0  0.097931  0.100946  0  1.036951  0
H  H77  1  0.07923701  0.67041052  0.73457006  1  0.053006  0  0.096298  0.093697  0  1.016529  0
H  H78  1  0.92770004  0.69846655  0.74554699  1  0.038357  0  0.089711  0.073797  0  1.069912  0
H  H79  1  0.85150401  0.83259842  0.65378631  1  0.018517  0  0.096755  0.09708  0  1.023829  0
H  H80  1  0.80376614  0.98101674  0.54106793  1  0.066582  0  0.094474  0.089592  0  1.045819  0
H  H81  1  0.78089344  0.13003836  0.44503377  1  0.014231  0  0.097243  0.093084  0  1.01322  0
H  H82  1  0.89540147  0.20174693  0.38353577  1  0.121612  0  0.097078  0.106672  0  1.037398  0
H  H83  1  0.03536145  0.12302612  0.41749565  1  0.061016  0  0.09847  0.098493  0  1.002527  0
H  H84  1  0.09426492  0.31048052  0.88912560  1  0.088721  0  0.099017  0.116985  0  1.005966  0
H  H85  1  0.18833836  0.22054250  0.89833313  1  0.066745  0  0.108837  0.126846  0  0.96808  0
H  H86  1  0.20315621  0.21920871  0.75026736  1  0.041267  0  0.095336  0.097806  0  0.981892  0
H  H87  1  0.12765327  0.32344182  0.73899582  1  0.011216  0  0.096563  0.09664  0  0.972114  0
H  H88  1  0.22750731  0.36924534  0.76699085  1  0.094598  0  0.120202  0.071981  0  0.970184  0
H  H89  1  0.31633911  0.29126142  0.61885952  1  0.065029  0  0.101769  0.119519  0  1.006812  0
H  H90  1  0.22832966  0.38869054  0.61903525  1  0.064198  0  0.104811  0.128304  0  0.991726  0
H  H91  1  0.35257336  0.19701398  0.76148039  1  0.454187  0  0.328756  0.294084  0  0.911415  0
H  H92  1  0.40071800  0.21474284  0.96467757  1  0.070639  0  0.103722  0.073085  0  0.974467  0
H  H93  1  0.47720616  0.25476193  0.86888801  1  0.128565  0  0.105987  0.09256  0  1.011511  0
H  H94  1  0.55671473  0.12720314  0.95381579  1  0.053235  0  0.111075  0.096534  0  0.943164  0
H  H95  1  0.62243848  0.19483957  0.75624474  1  0.043591  0  0.098076  0.101943  0  1.036337  0
H  H96  1  0.72601226  0.11529343  0.65018126  1  0.074973  0  0.096675  0.093892  0  1.01555  0
H  H97  1  0.74172923  0.96301077  0.68304786  1  0.018635  0  0.09019  0.076851  0  1.068166  0
H  H98  1  0.64801837  0.88876636  0.81755659  1  0.042213  0  0.096804  0.096968  0  1.018811  0
H  H99  1  0.53002946  0.84475126  0.96473740  1  0.014571  0  0.09474  0.08923  0  1.044085  0
H  H100  1  0.43205324  0.82492014  0.11305880  1  0.064052  0  0.097367  0.093233  0  1.009255  0
H  H101  1  0.36753351  0.94132374  0.18075186  1  0.119044  0  0.097996  0.108486  0  1.031059  0
H  H102  1  0.40064750  0.08082141  0.09894148  1  0.033848  0  0.097928  0.097705  0  1.002635  0
H  H103  1  0.87289638  0.13228107  0.28779727  1  0.055761  0  0.099678  0.11715  0  1.005263  0
H  H104  1  0.88424329  0.22339944  0.19644552  1  0.053343  0  0.109085  0.127982  0  0.964319  0
H  H105  1  0.73106139  0.24434838  0.19902632  1  0.040587  0  0.095444  0.097512  0  0.983391  0
H  H106  1  0.71894460  0.16991813  0.30279253  1  0.050674  0  0.096331  0.095016  0  0.973677  0
H  H107  1  0.75534201  0.26559479  0.34599704  1  0.084657  0  0.120499  0.073141  0  0.967711  0
H  H108  1  0.60144743  0.35635485  0.27366690  1  0.037749  0  0.102086  0.119484  0  1.011564  0
H  H109  1  0.60300006  0.26949151  0.37026885  1  0.061639  0  0.107554  0.131772  0  0.975518  0
H  H110  1  0.74638082  0.39090767  0.17627521  1  0.481449  0  0.326538  0.291147  0  0.919596  0
H  H111  1  0.96095954  0.43293117  0.18419707  1  0.093358  0  0.103917  0.073499  0  0.974315  0
H  H112  1  0.86574637  0.50855392  0.22794168  1  0.110461  0  0.106436  0.092977  0  1.006603  0
H  H113  1  0.94972957  0.58784713  0.09885641  1  0.047046  0  0.112085  0.098038  0  0.94146  0
H  H114  1  0.75160288  0.65545137  0.17370776  1  0.056285  0  0.098275  0.101236  0  1.038225  0
H  H115  1  0.63932832  0.76022983  0.10098256  1  0.083734  0  0.097434  0.094062  0  1.012709  0
H  H116  1  0.66370028  0.77599371  0.95138572  1  0.032596  0  0.090124  0.07499  0  1.07362  0
H  H117  1  0.79532626  0.68236078  0.87298072  1  0.021103  0  0.097306  0.098169  0  1.01161  0
H  H118  1  0.94239129  0.56665794  0.82284777  1  0.032363  0  0.093839  0.086458  0  1.048583  0
H  H119  1  0.09296813  0.46981150  0.79544381  1  0.020302  0  0.097284  0.093044  0  1.013003  0
H  H120  1  0.16953572  0.40527302  0.90530051  1  0.124737  0  0.096981  0.10705  0  1.040538  0
H  H121  1  0.09390217  0.43554449  0.04549575  1  0.029271  0  0.098806  0.098532  0  1.002187  0
C  C122  1  0.10701119  0.93519643  0.82929274  1  1.563409  0  0.229705  0.670378  0  4.109956  0
C  C123  1  0.15899599  0.89739372  0.75589535  1  0.018514  0  -0.161927  -0.290171  0  3.916326  0
C  C124  1  0.20304610  0.80097623  0.78929357  1  0.011821  0  -0.154032  -0.18256  0  3.906608  0
C  C125  1  0.27236491  0.76555327  0.71633492  1  0.368427  0  0.019287  0.186221  0  3.858713  0
C  C126  1  0.30642692  0.66673145  0.74592649  1  -0.05021  0  -0.157203  -0.361803  0  3.875874  0
C  C127  1  0.36370810  0.63317792  0.66984436  1  1.564011  0  0.233853  0.678504  0  4.090941  0
C  C128  1  0.36430831  0.84799210  0.59307354  1  1.957735  0  0.312686  0.650631  0  4.23743  0
C  C129  1  0.46299148  0.92027630  0.48364448  1  0.420329  0  -0.058205  0.025217  0  3.88219  0
C  C130  1  0.53340280  0.95469619  0.47005024  1  0.032239  0  -0.074874  -0.089605  0  3.947229  0
C  C131  1  0.60584681  0.89175528  0.50872965  1  -0.084322  0  -0.010299  0.045076  0  3.929855  0
C  C132  1  0.65284618  0.80752932  0.50767490  1  -0.058126  0  -0.101988  -0.153781  0  4.014258  0
C  C133  1  0.72114081  0.76365944  0.54371809  1  0.003479  0  -0.095908  -0.08244  0  4.007033  0
C  C134  1  0.74068736  0.80351053  0.58177627  1  -0.08849  0  -0.094975  -0.082173  0  4.025825  0
C  C135  1  0.69088166  0.88637982  0.58682013  1  -0.014173  0  -0.093884  -0.130766  0  4.005959  0
C  C136  1  0.62314721  0.93066785  0.55030432  1  -0.025231  0  -0.011459  0.022853  0  4.007353  0
C  C137  1  0.56024342  0.01618827  0.54727991  1  -0.003677  0  -0.01216  0.021641  0  4.007212  0
C  C138  1  0.54884997  0.07888911  0.58036382  1  -0.046318  0  -0.092479  -0.119097  0  3.973982  0
C  C139  1  0.48183483  0.15578929  0.56825455  1  -0.031965  0  -0.100464  -0.095545  0  4.03024  0
C  C140  1  0.42672676  0.16930845  0.52440427  1  -0.058673  0  -0.10433  -0.102271  0  4.061218  0
C  C141  1  0.43799629  0.10662109  0.49119278  1  -0.000495  0  -0.10109  -0.146779  0  4.039475  0
C  C142  1  0.50497432  0.03042729  0.50246417  1  -0.115503  0  -0.011383  0.043493  0  3.929812  0
C  C143  1  0.89470969  0.85085161  0.12178907  1  1.546048  0  0.227892  0.668446  0  4.109408  0
C  C144  1  0.85613825  0.77766276  0.17310767  1  -0.050837  0  -0.161786  -0.29016  0  3.918127  0
C  C145  1  0.76059329  0.81100766  0.22228472  1  -0.032748  0  -0.154865  -0.182677  0  3.907956  0
C  C146  1  0.72666095  0.73728757  0.29169311  1  0.371163  0  0.018882  0.187195  0  3.85473  0
C  C147  1  0.62724293  0.76654543  0.32925682  1  0.007258  0  -0.15719  -0.362728  0  3.877967  0
C  C148  1  0.59476844  0.68946791  0.38555225  1  1.550633  0  0.232552  0.67689  0  4.09178  0
C  C149  1  0.81617273  0.61257323  0.37550090  1  1.979244  0  0.311843  0.647661  0  4.237139  0
C  C150  1  0.89080297  0.49950300  0.46976641  1  0.408405  0  -0.057969  0.025529  0  3.877865  0
C  C151  1  0.92123262  0.48131705  0.54394917  1  -0.007435  0  -0.074509  -0.087814  0  3.943158  0
C  C152  1  0.85613166  0.52216056  0.61378750  1  -0.012973  0  -0.010898  0.043541  0  3.932853  0
C  C153  1  0.76840444  0.52926846  0.65288413  1  -0.131751  0  -0.102999  -0.159954  0  4.016068  0
C  C154  1  0.72253957  0.56629588  0.71987106  1  -0.038989  0  -0.095793  -0.084529  0  4.0006  0
C  C155  1  0.76407813  0.59649701  0.74651005  1  -0.028807  0  -0.09303  -0.078829  0  4.017008  0
C  C156  1  0.85098433  0.59302921  0.70477022  1  -0.029782  0  -0.092797  -0.12696  0  4.000467  0
C  C157  1  0.89701465  0.55640196  0.63778268  1  -0.046229  0  -0.011894  0.022197  0  4.00955  0
C  C158  1  0.98639684  0.54685612  0.58162352  1  -0.039832  0  -0.012806  0.020326  0  4.010492  0
C  C159  1  0.05211264  0.57207576  0.57786293  1  -0.030666  0  -0.09356  -0.12396  0  3.977728  0
C  C160  1  0.13235916  0.55565211  0.51578088  1  -0.071506  0  -0.099571  -0.094352  0  4.031951  0
C  C161  1  0.14650418  0.51470218  0.45834774  1  -0.073232  0  -0.104821  -0.102896  0  4.059924  0
C  C162  1  0.08084951  0.48911186  0.46214347  1  0.001784  0  -0.099781  -0.145519  0  4.042102  0
C  C163  1  0.00100885  0.50535545  0.52375412  1  -0.07393  0  -0.010704  0.044898  0  3.926052  0
C  C164  1  0.81217368  0.14590291  0.91232642  1  1.567102  0  0.22792  0.668577  0  4.113201  0
C  C165  1  0.73958159  0.19854761  0.87263286  1  -0.016543  0  -0.162338  -0.292485  0  3.916344  0
C  C166  1  0.77546963  0.24216326  0.77707717  1  -0.012615  0  -0.15505  -0.183404  0  3.907019  0
C  C167  1  0.70196045  0.31127301  0.74159889  1  0.373838  0  0.01884  0.185987  0  3.860317  0
C  C168  1  0.73114865  0.34394517  0.64325823  1  -0.033189  0  -0.156939  -0.364762  0  3.877953  0
C  C169  1  0.65287298  0.40118723  0.61201659  1  1.514771  0  0.233612  0.677547  0  4.091749  0
C  C170  1  0.57897302  0.40158897  0.82606751  1  1.975157  0  0.313941  0.650315  0  4.237938  0
C  C171  1  0.46791456  0.50299215  0.89420273  1  0.407521  0  -0.059859  0.020298  0  3.884766  0
C  C172  1  0.45556045  0.56935118  0.93219101  1  -0.009849  0  -0.075407  -0.089946  0  3.948121  0
C  C173  1  0.49183383  0.64367037  0.87219765  1  -0.045577  0  -0.00876  0.04836  0  3.922153  0
C  C174  1  0.48852141  0.69339329  0.78969872  1  -0.036978  0  -0.101602  -0.154652  0  4.016014  0
C  C175  1  0.52285938  0.76259285  0.74858193  1  -0.051758  0  -0.096323  -0.085516  0  3.999796  0
C  C176  1  0.56061862  0.78093282  0.78986006  1  -0.057455  0  -0.09296  -0.079168  0  4.019116  0
C  C177  1  0.56771534  0.72872990  0.87101715  1  0.005635  0  -0.094237  -0.131752  0  4.00433  0
C  C178  1  0.53385611  0.65947812  0.91208172  1  -0.049653  0  -0.012204  0.020341  0  4.005394  0
C  C179  1  0.53504003  0.59299097  0.99432080  1  -0.084537  0  -0.011831  0.021771  0  4.007251  0
C  C180  1  0.57102525  0.57851242  0.05598134  1  0.015497  0  -0.092084  -0.118848  0  3.974152  0
C  C181  1  0.56445895  0.50734371  0.12855216  1  -0.065029  0  -0.0998  -0.095092  0  4.03483  0
C  C182  1  0.52356528  0.45105338  0.13865506  1  -0.063982  0  -0.103901  -0.099551  0  4.058504  0
C  C183  1  0.48693905  0.46574798  0.07724935  1  -0.026912  0  -0.10013  -0.146141  0  4.03291  0
C  C184  1  0.49224624  0.53707667  0.00564312  1  -0.00116  0  -0.009495  0.046594  0  3.928585  0
C  C185  1  0.15633640  0.91380072  0.10249553  1  1.540954  0  0.227822  0.669395  0  4.103903  0
C  C186  1  0.21824840  0.88275562  0.15284794  1  -0.00382  0  -0.162763  -0.291305  0  3.915827  0
C  C187  1  0.23812310  0.78628415  0.19845177  1  -0.046797  0  -0.158653  -0.187611  0  3.922539  0
C  C188  1  0.27499352  0.76028963  0.27122524  1  0.373872  0  0.021572  0.191975  0  3.854743  0
C  C189  1  0.30442329  0.66179685  0.30852320  1  0.001257  0  -0.158983  -0.363358  0  3.889281  0
C  C190  1  0.35633777  0.63412058  0.36811507  1  1.569004  0  0.227688  0.671646  0  4.108577  0
C  C191  1  0.22394369  0.85571550  0.35993888  1  1.974437  0  0.313434  0.656144  0  4.247479  0
C  C192  1  0.16029192  0.92979156  0.46406960  1  0.427271  0  -0.060118  0.018162  0  3.858675  0
C  C193  1  0.07444163  0.94893742  0.53362978  1  0.009851  0  -0.073952  -0.089808  0  3.931814  0
C  C194  1  0.04470552  0.87054548  0.59360837  1  -0.053534  0  -0.00637  0.051568  0  3.917168  0
C  C195  1  0.08865921  0.79323668  0.64135534  1  -0.078071  0  -0.09532  -0.132546  0  3.994867  0
C  C196  1  0.04610561  0.73102199  0.69579165  1  0.017107  0  -0.098239  -0.088538  0  4.027153  0
C  C197  1  0.96073561  0.74636698  0.70093155  1  -0.04311  0  -0.100808  -0.097419  0  4.066557  0
C  C198  1  0.91742450  0.82224792  0.65038819  1  -0.046733  0  -0.094879  -0.127855  0  3.996664  0
C  C199  1  0.95980353  0.88445027  0.59627350  1  -0.011679  0  -0.01117  0.024034  0  4.005757  0
C  C200  1  0.93093553  0.96929348  0.53792734  1  -0.028042  0  -0.012126  0.02251  0  4.005314  0
C  C201  1  0.85372728  0.01213168  0.51626442  1  -0.065292  0  -0.094232  -0.125698  0  3.997615  0
C  C202  1  0.84165662  0.09579308  0.46100943  1  0.002903  0  -0.09871  -0.095548  0  4.04806  0
C  C203  1  0.90620581  0.13604265  0.42613946  1  -0.026983  0  -0.097337  -0.092266  0  4.016833  0
C  C204  1  0.98475103  0.09188930  0.44575831  1  -0.102696  0  -0.097641  -0.14166  0  4.022737  0
C  C205  1  0.99689630  0.00888930  0.50148235  1  -0.063848  0  -0.008883  0.046638  0  3.925924  0
C  C206  1  0.08599456  0.19138810  0.89930438  1  1.551196  0  0.22768  0.670732  0  4.101653  0
C  C207  1  0.13622462  0.25351695  0.86787797  1  -0.054127  0  -0.163662  -0.292103  0  3.914687  0
C  C208  1  0.17712884  0.27704499  0.77088267  1  0.016431  0  -0.15757  -0.186216  0  3.916126  0
C  C209  1  0.25064938  0.31494468  0.74192708  1  0.369528  0  0.020866  0.191074  0  3.854943  0
C  C210  1  0.28372742  0.34673708  0.64366862  1  -0.062939  0  -0.16071  -0.364081  0  3.885185  0
C  C211  1  0.34539023  0.39724923  0.61444623  1  1.563228  0  0.229072  0.67495  0  4.103327  0
C  C212  1  0.34539280  0.26449961  0.83146680  1  1.986765  0  0.311706  0.651768  0  4.247886  0
C  C213  1  0.44971058  0.20099254  0.90579608  1  0.373004  0  -0.059028  0.020706  0  3.854222  0
C  C214  1  0.51971323  0.11604577  0.92584445  1  0.026906  0  -0.073303  -0.087475  0  3.93043  0
C  C215  1  0.58129284  0.08468241  0.84891911  1  -0.020189  0  -0.00668  0.050264  0  3.919845  0
C  C216  1  0.62951053  0.12743996  0.77117988  1  -0.07941  0  -0.094389  -0.13285  0  3.997323  0
C  C217  1  0.68677691  0.08318548  0.71113929  1  -0.016741  0  -0.097312  -0.08723  0  4.026514  0
C  C218  1  0.69428885  0.99727905  0.72908881  1  -0.047845  0  -0.100588  -0.099721  0  4.063995  0
C  C219  1  0.64267451  0.95525625  0.80510286  1  -0.009546  0  -0.094882  -0.128426  0  3.995219  0
C  C220  1  0.58554906  0.99940723  0.86511016  1  -0.042541  0  -0.009851  0.026417  0  4.001292  0
C  C221  1  0.52564100  0.97230857  0.94971203  1  -0.101543  0  -0.013482  0.01927  0  4.008975  0
C  C222  1  0.50415529  0.89565797  0.99423304  1  0.064791  0  -0.094122  -0.124133  0  3.99998  0
C  C223  1  0.44764693  0.88531756  0.07736463  1  -0.058217  0  -0.098007  -0.095144  0  4.049462  0
C  C224  1  0.41107814  0.95114185  0.11544863  1  -0.138384  0  -0.097039  -0.0922  0  4.017885  0
C  C225  1  0.43020559  0.02919070  0.06956865  1  0.020686  0  -0.096866  -0.140829  0  4.021644  0
C  C226  1  0.48725811  0.03957001  0.98706605  1  -0.042927  0  -0.008912  0.04637  0  3.926007  0
C  C227  1  0.87913402  0.12235518  0.17159420  1  1.56772  0  0.226729  0.667211  0  4.102532  0
C  C228  1  0.85093529  0.17357118  0.23143116  1  -0.000159  0  -0.162831  -0.290377  0  3.913975  0
C  C229  1  0.75308797  0.21732058  0.25595678  1  -0.040647  0  -0.158522  -0.186768  0  3.920573  0
C  C230  1  0.72782698  0.28959109  0.29333382  1  0.374545  0  0.02083  0.190624  0  3.853573  0
C  C231  1  0.62842422  0.32385849  0.32750664  1  -0.020918  0  -0.159727  -0.363664  0  3.887884  0
C  C232  1  0.60047171  0.38507999  0.37741624  1  1.561015  0  0.228254  0.675674  0  4.103623  0
C  C233  1  0.82310103  0.38008464  0.23928061  1  1.984505  0  0.313599  0.655835  0  4.243649  0
C  C234  1  0.90043658  0.48219501  0.17355799  1  0.36445  0  -0.059118  0.019102  0  3.853538  0
C  C235  1  0.91878507  0.55243826  0.08928865  1  0.024511  0  -0.073834  -0.089029  0  3.932793  0
C  C236  1  0.83887370  0.61464225  0.06219817  1  -0.015188  0  -0.006396  0.050923  0  3.920883  0
C  C237  1  0.76254831  0.66293840  0.10740522  1  -0.030635  0  -0.093983  -0.133707  0  4.000565  0
C  C238  1  0.69914579  0.72073469  0.06703965  1  -0.061805  0  -0.096772  -0.084868  0  4.021804  0
C  C239  1  0.71231773  0.72841152  0.98261828  1  -0.065523  0  -0.100946  -0.099505  0  4.067774  0
C  C240  1  0.78679075  0.67689773  0.93819582  1  -0.044296  0  -0.09437  -0.128929  0  3.99771  0
C  C241  1  0.85027718  0.61959180  0.97840127  1  -0.007571  0  -0.010946  0.025558  0  4.005307  0
C  C242  1  0.93481918  0.56029944  0.94786757  1  -0.001148  0  -0.012031  0.020944  0  4.012597  0
C  C243  1  0.97571588  0.54013814  0.87082463  1  -0.070672  0  -0.094466  -0.123945  0  4.005673  0
C  C244  1  0.06014330  0.48448365  0.85619104  1  -0.001412  0  -0.098113  -0.095605  0  4.047539  0
C  C245  1  0.10307112  0.44771416  0.91822794  1  -0.106579  0  -0.097958  -0.09312  0  4.014386  0
C  C246  1  0.06071692  0.46538600  0.99683755  1  -0.015088  0  -0.097121  -0.140124  0  4.021595  0
C  C247  1  0.97688412  0.52141366  0.01150237  1  -0.029391  0  -0.008929  0.045908  0  3.93109  0
N  N248  1  0.34181322  0.80432767  0.67749693  1  -1.209691  0  -0.436043  -0.459  0  3.541118  0
N  N249  1  0.76973354  0.69703079  0.35734887  1  -1.241502  0  -0.434798  -0.45758  0  3.533735  0
N  N250  1  0.66350397  0.38116114  0.77879267  1  -1.224726  0  -0.436413  -0.456468  0  3.539314  0
N  N251  1  0.21176611  0.79983925  0.33711645  1  -1.216007  0  -0.433342  -0.456317  0  3.542514  0
N  N252  1  0.32026895  0.25266304  0.77720585  1  -1.215162  0  -0.433618  -0.457641  0  3.544241  0
N  N253  1  0.76455274  0.35755522  0.23027045  1  -1.246414  0  -0.434568  -0.459278  0  3.544451  0
O  O254  1  0.98684208  0.02404338  0.00433590  1  -1.226108  0  -0.577674  -1.035983  0  2.573801  0
O  O255  1  0.15104885  0.94325645  0.86384843  1  -1.178355  0  -0.325619  -0.564279  0  2.306088  0
O  O256  1  0.02486621  0.95342031  0.85201274  1  -1.183634  0  -0.320916  -0.553801  0  2.289762  0
O  O257  1  0.32380951  0.63584880  0.62454328  1  -1.175261  0  -0.315031  -0.550107  0  2.311409  0
O  O258  1  0.44566863  0.60790638  0.65586761  1  -1.167016  0  -0.312992  -0.550594  0  2.278954  0
O  O259  1  0.33247174  0.85691492  0.54059340  1  -1.171533  0  -0.31175  -0.544529  0  2.113826  0
O  O260  1  0.42840933  0.88148906  0.57389273  1  -1.065591  0  -0.182169  -0.277094  0  2.475909  0
O  O261  1  0.90354465  0.88508909  0.16525983  1  -1.176245  0  -0.324582  -0.562747  0  2.311853  0
O  O262  1  0.91304971  0.87362877  0.04081812  1  -1.16218  0  -0.319826  -0.552265  0  2.288598  0
O  O263  1  0.59647959  0.64464009  0.34598512  1  -1.17254  0  -0.314798  -0.550537  0  2.310405  0
O  O264  1  0.57143044  0.67430894  0.46637777  1  -1.174023  0  -0.312902  -0.549182  0  2.281935  0
O  O265  1  0.82538450  0.56184109  0.34144922  1  -1.167136  0  -0.310123  -0.543706  0  2.121447  0
O  O266  1  0.85201796  0.59083538  0.43798154  1  -1.063779  0  -0.183374  -0.277388  0  2.46008  0
O  O267  1  0.84708764  0.18850595  0.92204818  1  -1.176086  0  -0.323997  -0.560264  0  2.309492  0
O  O268  1  0.83398765  0.06455780  0.93068001  1  -1.185208  0  -0.319901  -0.5535  0  2.290951  0
O  O269  1  0.60512774  0.36237850  0.61680402  1  -1.17101  0  -0.313695  -0.547769  0  2.308567  0
O  O270  1  0.63923338  0.48230217  0.58691292  1  -1.15357  0  -0.311223  -0.550727  0  2.29379  0
O  O271  1  0.52698495  0.36465867  0.84333857  1  -1.175695  0  -0.312319  -0.546625  0  2.125009  0
O  O272  1  0.55900670  0.46995973  0.85298567  1  -1.059789  0  -0.180047  -0.273354  0  2.478785  0
O  O273  1  0.08528374  0.89502482  0.14296301  1  -1.185707  0  -0.329236  -0.571621  0  2.31379  0
O  O274  1  0.17915128  0.95669075  0.02397192  1  -1.175709  0  -0.320218  -0.551363  0  2.287012  0
O  O275  1  0.43711100  0.62443685  0.33367934  1  -1.178847  0  -0.319627  -0.55743  0  2.308369  0
O  O276  1  0.31488028  0.62459022  0.44743520  1  -1.177047  0  -0.314805  -0.553373  0  2.319503  0
O  O277  1  0.28782727  0.88125097  0.32775563  1  -1.176397  0  -0.321295  -0.5522  0  2.082072  0
O  O278  1  0.15282821  0.88008747  0.42413061  1  -1.064325  0  -0.182784  -0.282579  0  2.500338  0
O  O279  1  0.12743603  0.12155585  0.87932027  1  -1.186031  0  -0.32843  -0.571977  0  2.31327  0
O  O280  1  0.00657243  0.21307811  0.94316295  1  -1.177706  0  -0.321014  -0.551324  0  2.28825  0
O  O281  1  0.31134742  0.47697600  0.60709271  1  -1.187993  0  -0.318353  -0.55703  0  2.313976  0
O  O282  1  0.42606597  0.35573272  0.60163179  1  -1.168456  0  -0.314499  -0.554822  0  2.321784  0
O  O283  1  0.31517616  0.32877873  0.85518255  1  -1.169205  0  -0.318423  -0.547254  0  2.089493  0
O  O284  1  0.40925460  0.19323239  0.85647580  1  -1.076161  0  -0.185008  -0.284522  0  2.491064  0
O  O285  1  0.85702768  0.16235249  0.10318935  1  -1.189687  0  -0.329484  -0.571662  0  2.30852  0
O  O286  1  0.92299284  0.04348142  0.19340239  1  -1.176765  0  -0.319959  -0.549737  0  2.287143  0
O  O287  1  0.59228750  0.35149920  0.45683245  1  -1.175575  0  -0.321342  -0.559484  0  2.308026  0
O  O288  1  0.58868795  0.46479065  0.33599243  1  -1.170416  0  -0.315191  -0.554375  0  2.308709  0
O  O289  1  0.85072955  0.34808931  0.30103192  1  -1.179576  0  -0.319132  -0.549006  0  2.086058  0
O  O290  1  0.84738927  0.44377231  0.16819618  1  -1.076028  0  -0.185209  -0.284109  0  2.489013  0
O  O291  1  0.48967348  0.52757330  0.50843700  1  -1.230421  0  -0.572433  -1.032324  0  2.540744  0
