# generated using pymatgen
data_CdH7C6N7O2
_symmetry_space_group_name_H-M   'P 1'
_cell_length_a   6.31067356
_cell_length_b   8.26221855
_cell_length_c   10.50882158
_cell_angle_alpha   71.11860351
_cell_angle_beta   81.59811370
_cell_angle_gamma   86.25953562
_symmetry_Int_Tables_number   1
_chemical_formula_structural   CdH7C6N7O2
_chemical_formula_sum   'Cd2 H14 C12 N14 O4'
_cell_volume   512.78917366
_cell_formula_units_Z   2
loop_
 _symmetry_equiv_pos_site_id
 _symmetry_equiv_pos_as_xyz
  1  'x, y, z'
loop_
 _atom_site_type_symbol
 _atom_site_label
 _atom_site_symmetry_multiplicity
 _atom_site_fract_x
 _atom_site_fract_y
 _atom_site_fract_z
 _atom_site_occupancy
 _atom_site_hle17_bader_spin_density
 _atom_site_hle17_ddec_charge
 _atom_site_hle17_ddec_spin_density
 _atom_site_hle17_ddec_sum_bond_order
 _atom_site_hle17_magmom
 _atom_site_hse06_10hf_bader_spin_density
 _atom_site_hse06_10hf_ddec_charge
 _atom_site_hse06_10hf_ddec_spin_density
 _atom_site_hse06_10hf_ddec_sum_bond_order
 _atom_site_hse06_10hf_magmom
 _atom_site_hse06_bader_spin_density
 _atom_site_hse06_ddec_charge
 _atom_site_hse06_ddec_spin_density
 _atom_site_hse06_ddec_sum_bond_order
 _atom_site_hse06_magmom
 _atom_site_pbe_bader_spin_density
 _atom_site_pbe_cm5_charge
 _atom_site_pbe_ddec_charge
 _atom_site_pbe_ddec_spin_density
 _atom_site_pbe_ddec_sum_bond_order
 _atom_site_pbe_magmom
Cd  Cd0  1  0.26678630  0.46049014  0.41731692  1  0  1.105722  0  1.832161  0  0  0.93047  0  2.300783  0  0  0.976698  0  2.258314  0  0  0.792394  0.897638  0  2.32971  0
Cd  Cd1  1  0.73321790  0.53950861  0.58268299  1  0  1.105707  0  1.832166  0  0  0.930448  0  2.300798  0  0  0.976684  0  2.258314  0  0  0.792392  0.897617  0  2.329728  0
H  H2  1  0.19232856  0.13258828  0.39510972  1  0  0.411894  0  0.898293  0  0  0.376054  0  0.972251  0  0  0.385761  0  0.958258  0  0  0.286914  0.369284  0  0.981926  0
H  H3  1  0.80767722  0.86741301  0.60488942  1  0  0.411861  0  0.898343  0  0  0.37602  0  0.972305  0  0  0.385726  0  0.958312  0  0  0.286908  0.369253  0  0.981976  0
H  H4  1  0.06688211  0.26695816  0.28185208  1  0  0.418302  0  0.885456  0  0  0.38429  0  0.954443  0  0  0.395521  0  0.938309  0  0  0.289394  0.376321  0  0.965882  0
H  H5  1  0.93311730  0.73304189  0.71814986  1  0  0.418296  0  0.885462  0  0  0.384288  0  0.954443  0  0  0.395519  0  0.938309  0  0  0.289385  0.376317  0  0.965885  0
H  H6  1  0.15861783  0.55609931  0.10070610  1  0  0.10041  0  0.932401  0  0  0.105666  0  1.000848  0  0  0.109144  0  0.997087  0  0  0.122988  0.10301  0  1.003824  0
H  H7  1  0.84137194  0.44390083  0.89929481  1  0  0.100401  0  0.932432  0  0  0.105662  0  1.000867  0  0  0.10914  0  0.997104  0  0  0.12301  0.103007  0  1.003843  0
H  H8  1  0.62908073  0.91037444  0.83157735  1  0  0.105982  0  0.948869  0  0  0.112901  0  1.015252  0  0  0.115612  0  1.012869  0  0  0.110921  0.110887  0  1.016921  0
H  H9  1  0.37091388  0.08962438  0.16842439  1  0  0.105999  0  0.948846  0  0  0.11292  0  1.015219  0  0  0.115631  0  1.012836  0  0  0.110926  0.110907  0  1.016892  0
H  H10  1  0.82702257  0.86989810  0.02990854  1  0  0.111479  0  0.960119  0  0  0.113843  0  1.030923  0  0  0.116735  0  1.030755  0  0  0.107131  0.111797  0  1.031202  0
H  H11  1  0.17297360  0.13009820  0.97008892  1  0  0.11155  0  0.960042  0  0  0.113928  0  1.030824  0  0  0.11682  0  1.030656  0  0  0.107173  0.11188  0  1.031107  0
H  H12  1  0.67561349  0.67084303  0.25707013  1  0  0.07313  0  0.98624  0  0  0.075957  0  1.062141  0  0  0.077982  0  1.06047  0  0  0.111358  0.074296  0  1.063758  0
H  H13  1  0.32438589  0.32915070  0.74292672  1  0  0.073092  0  0.986223  0  0  0.07592  0  1.062144  0  0  0.077954  0  1.060461  0  0  0.111321  0.074255  0  1.063764  0
H  H14  1  0.32392073  0.85416625  0.74023433  1  0  0.04226  0  0.940843  0  0  0.04442  0  1.017529  0  0  0.04624  0  1.013413  0  0  0.106241  0.042449  0  1.021253  0
H  H15  1  0.67608182  0.14583510  0.25976320  1  0  0.042377  0  0.940783  0  0  0.044414  0  1.017587  0  0  0.046232  0  1.013471  0  0  0.106256  0.042446  0  1.021309  0
C  C16  1  0.30601808  0.62717936  0.08245233  1  0  0.137926  0  3.632939  0  0  0.095553  0  3.88509  0  0  0.10473  0  3.902823  0  0  0.0651  0.089668  0  3.873224  0
C  C17  1  0.69398129  0.37282071  0.91754676  1  0  0.137991  0  3.632937  0  0  0.095609  0  3.885094  0  0  0.104787  0  3.902826  0  0  0.065102  0.089725  0  3.873229  0
C  C18  1  0.37976976  0.73432975  0.95162948  1  0  -0.073953  0  3.773756  0  0  -0.047873  0  4.010587  0  0  -0.060817  0  4.037466  0  0  -0.016389  -0.039631  0  3.992636  0
C  C19  1  0.62022957  0.26567543  0.04836929  1  0  -0.074026  0  3.773746  0  0  -0.047931  0  4.010541  0  0  -0.060874  0  4.037417  0  0  -0.016428  -0.039689  0  3.992592  0
C  C20  1  0.56823012  0.82527099  0.93174706  1  0  0.002942  0  3.660691  0  0  -0.025436  0  3.904831  0  0  -0.020365  0  3.924061  0  0  -0.048195  -0.028272  0  3.891624  0
C  C21  1  0.43176928  0.17472780  0.06825329  1  0  0.00293  0  3.660625  0  0  -0.025455  0  3.904762  0  0  -0.020385  0  3.923994  0  0  -0.048205  -0.028294  0  3.891561  0
C  C22  1  0.67924626  0.80256607  0.04143773  1  0  -0.11042  0  3.704263  0  0  -0.119878  0  3.955211  0  0  -0.129254  0  3.978607  0  0  -0.077907  -0.113982  0  3.939602  0
C  C23  1  0.32074998  0.19743145  0.95856513  1  0  -0.110467  0  3.7042  0  0  -0.119923  0  3.955142  0  0  -0.129298  0  3.978542  0  0  -0.077894  -0.114025  0  3.939532  0
C  C24  1  0.59533157  0.69335802  0.16772384  1  0  0.149609  0  3.667006  0  0  0.116237  0  3.918659  0  0  0.124423  0  3.937462  0  0  0.053144  0.110843  0  3.906415  0
C  C25  1  0.40467263  0.30663820  0.83227385  1  0  0.14959  0  3.666992  0  0  0.116208  0  3.918636  0  0  0.124385  0  3.937442  0  0  0.053127  0.110819  0  3.906393  0
C  C26  1  0.26408220  0.75362087  0.83570532  1  0  0.353415  0  3.658649  0  0  0.302944  0  3.934454  0  0  0.324297  0  3.936444  0  0  0.109154  0.288789  0  3.933057  0
C  C27  1  0.73591085  0.24637539  0.16429816  1  0  0.35334  0  3.658562  0  0  0.302948  0  3.934337  0  0  0.324304  0  3.936322  0  0  0.109145  0.288794  0  3.932941  0
N  N28  1  0.02908351  0.34972938  0.61874518  1  0  -0.640752  0  2.773535  0  0  -0.5923  0  3.083177  0  0  -0.619618  0  3.089523  0  0  -0.333905  -0.573289  0  3.078458  0
N  N29  1  0.97091742  0.65026944  0.38125026  1  0  -0.640524  0  2.774048  0  0  -0.592071  0  3.083653  0  0  -0.619378  0  3.089993  0  0  -0.333753  -0.573061  0  3.078932  0
N  N30  1  0.00753516  0.20735724  0.69863445  1  0  0.408736  0  4.239614  0  0  0.439321  0  4.522087  0  0  0.455368  0  4.552475  0  0  0.082068  0.428547  0  4.50125  0
N  N31  1  0.99246916  0.79263255  0.30136863  1  0  0.408471  0  4.240042  0  0  0.439076  0  4.522495  0  0  0.455122  0  4.552884  0  0  0.081914  0.428303  0  4.501656  0
N  N32  1  0.98596985  0.07181691  0.77900000  1  0  -0.383291  0  2.405988  0  0  -0.380026  0  2.638312  0  0  -0.387167  0  2.649008  0  0  -0.18456  -0.374879  0  2.631237  0
N  N33  1  0.01403595  0.92818438  0.22100009  1  0  -0.383252  0  2.405777  0  0  -0.380003  0  2.638073  0  0  -0.387156  0  2.648779  0  0  -0.184583  -0.374845  0  2.630991  0
N  N34  1  0.42634437  0.67074500  0.49374296  1  0  -0.614247  0  2.742065  0  0  -0.568584  0  3.048466  0  0  -0.594024  0  3.055139  0  0  -0.317458  -0.550807  0  3.043803  0
N  N35  1  0.57365665  0.32925376  0.50625820  1  0  -0.61409  0  2.742215  0  0  -0.568425  0  3.048604  0  0  -0.59386  0  3.055283  0  0  -0.317384  -0.550652  0  3.043937  0
N  N36  1  0.34031224  0.80203463  0.50082047  1  0  0.423465  0  4.231476  0  0  0.452999  0  4.510255  0  0  0.469531  0  4.540405  0  0  0.089696  0.441796  0  4.489732  0
N  N37  1  0.65969032  0.19797178  0.49918055  1  0  0.423283  0  4.231232  0  0  0.452837  0  4.509994  0  0  0.469367  0  4.540152  0  0  0.089627  0.441636  0  4.489465  0
N  N38  1  0.25373002  0.92799176  0.50977145  1  0  -0.404648  0  2.492912  0  0  -0.395766  0  2.731931  0  0  -0.405518  0  2.739785  0  0  -0.189105  -0.389134  0  2.727184  0
N  N39  1  0.74628061  0.07200946  0.49023011  1  0  -0.404615  0  2.492449  0  0  -0.395735  0  2.731446  0  0  -0.405491  0  2.739306  0  0  -0.189137  -0.389106  0  2.726699  0
N  N40  1  0.41102191  0.60857865  0.18843769  1  0  -0.341331  0  3.241703  0  0  -0.264755  0  3.509307  0  0  -0.286131  0  3.529674  0  0  -0.325551  -0.250072  0  3.495431  0
N  N41  1  0.58897742  0.39142527  0.81156044  1  0  -0.34132  0  3.241683  0  0  -0.264744  0  3.509291  0  0  -0.286123  0  3.529669  0  0  -0.325531  -0.250063  0  3.495413  0
O  O42  1  0.19551977  0.25011817  0.32937696  1  0  -0.843838  0  1.932278  0  0  -0.782913  0  2.141025  0  0  -0.805403  0  2.109242  0  0  -0.589961  -0.766465  0  2.162438  0
O  O43  1  0.80448118  0.74988191  0.67062103  1  0  -0.843785  0  1.932271  0  0  -0.782852  0  2.141006  0  0  -0.805348  0  2.10923  0  0  -0.589942  -0.766403  0  2.162417  0
O  O44  1  0.11111783  0.66519659  0.84020243  1  0  -0.432788  0  2.01798  0  0  -0.373137  0  2.236148  0  0  -0.393754  0  2.233132  0  0  -0.243442  -0.358812  0  2.238014  0
O  O45  1  0.88887675  0.33480351  0.15979804  1  0  -0.432812  0  2.017885  0  0  -0.373127  0  2.235985  0  0  -0.393747  0  2.232968  0  0  -0.243457  -0.358805  0  2.23785  0
