# generated using pymatgen
data_LaH24C35S2N4O9
_symmetry_space_group_name_H-M   'P 1'
_cell_length_a   11.21559797
_cell_length_b   11.70577917
_cell_length_c   13.99992812
_cell_angle_alpha   108.47764290
_cell_angle_beta   91.56756596
_cell_angle_gamma   113.38476255
_symmetry_Int_Tables_number   1
_chemical_formula_structural   LaH24C35S2N4O9
_chemical_formula_sum   'La2 H48 C70 S4 N8 O18'
_cell_volume   1575.11295635
_cell_formula_units_Z   2
loop_
 _symmetry_equiv_pos_site_id
 _symmetry_equiv_pos_as_xyz
  1  'x, y, z'
loop_
 _atom_site_type_symbol
 _atom_site_label
 _atom_site_symmetry_multiplicity
 _atom_site_fract_x
 _atom_site_fract_y
 _atom_site_fract_z
 _atom_site_occupancy
 _atom_site_hle17_bader_spin_density
 _atom_site_hle17_ddec_charge
 _atom_site_hle17_ddec_spin_density
 _atom_site_hle17_ddec_sum_bond_order
 _atom_site_hle17_magmom
 _atom_site_hse06_10hf_bader_spin_density
 _atom_site_hse06_10hf_ddec_charge
 _atom_site_hse06_10hf_ddec_spin_density
 _atom_site_hse06_10hf_ddec_sum_bond_order
 _atom_site_hse06_10hf_magmom
 _atom_site_hse06_bader_spin_density
 _atom_site_hse06_ddec_charge
 _atom_site_hse06_ddec_spin_density
 _atom_site_hse06_ddec_sum_bond_order
 _atom_site_hse06_magmom
 _atom_site_pbe_bader_spin_density
 _atom_site_pbe_cm5_charge
 _atom_site_pbe_ddec_charge
 _atom_site_pbe_ddec_spin_density
 _atom_site_pbe_ddec_sum_bond_order
 _atom_site_pbe_magmom
La  La0  1  0.84571722  0.64170148  0.15146893  1  0  1.967713  0  1.856741  0  0  1.8023  0  2.389463  0  0  1.897787  0  2.30451  0  0  1.392942  1.73122  0  2.448524  0
La  La1  1  0.15428031  0.35830111  0.84853261  1  0  1.967638  0  1.856877  0  0  1.802219  0  2.389593  0  0  1.897714  0  2.304631  0  0  1.392953  1.73116  0  2.448626  0
H  H2  1  0.52626442  0.62228928  0.11559091  1  0  0.082306  0  0.95949  0  0  0.08875  0  1.026579  0  0  0.091937  0  1.022972  0  0  0.121971  0.086339  0  1.029296  0
H  H3  1  0.47373578  0.37771330  0.88440997  1  0  0.082279  0  0.959497  0  0  0.088721  0  1.026591  0  0  0.091909  0  1.022982  0  0  0.121944  0.086303  0  1.029311  0
H  H4  1  0.38689044  0.73376480  0.08795988  1  0  0.124676  0  0.95742  0  0  0.133787  0  1.01577  0  0  0.137367  0  1.014184  0  0  0.115138  0.131064  0  1.01725  0
H  H5  1  0.61310847  0.26623478  0.91203733  1  0  0.124715  0  0.957387  0  0  0.133808  0  1.015755  0  0  0.13739  0  1.014172  0  0  0.115266  0.131197  0  1.017283  0
H  H6  1  0.49860246  0.96690964  0.08499588  1  0  0.101962  0  0.926353  0  0  0.11765  0  0.978474  0  0  0.120223  0  0.977037  0  0  0.113009  0.115734  0  0.979448  0
H  H7  1  0.50139594  0.03309293  0.91500211  1  0  0.102002  0  0.926265  0  0  0.117662  0  0.978425  0  0  0.120255  0  0.976961  0  0  0.112993  0.115736  0  0.97938  0
H  H8  1  0.70543779  0.15907657  0.09336980  1  0  0.115235  0  0.941345  0  0  0.126483  0  1.000457  0  0  0.129769  0  0.998942  0  0  0.110811  0.124114  0  1.001652  0
H  H9  1  0.29456324  0.84092800  0.90663020  1  0  0.115282  0  0.941347  0  0  0.126508  0  1.000503  0  0  0.129798  0  0.998982  0  0  0.110812  0.124169  0  1.001716  0
H  H10  1  0.94828521  0.25679885  0.10194818  1  0  0.121462  0  0.957408  0  0  0.130904  0  1.017584  0  0  0.135038  0  1.014484  0  0  0.112315  0.127765  0  1.020107  0
H  H11  1  0.05171809  0.74320472  0.89805446  1  0  0.121472  0  0.957452  0  0  0.130924  0  1.017609  0  0  0.135058  0  1.014509  0  0  0.112322  0.127804  0  1.020124  0
H  H12  1  0.16097696  0.23691642  0.11568661  1  0  0.121632  0  0.937472  0  0  0.132949  0  0.99407  0  0  0.136511  0  0.990883  0  0  0.118082  0.130331  0  0.996424  0
H  H13  1  0.83902193  0.76308518  0.88431685  1  0  0.121644  0  0.937451  0  0  0.132932  0  0.994079  0  0  0.136494  0  0.990896  0  0  0.11808  0.130305  0  0.996437  0
H  H14  1  0.28097868  0.10449122  0.13541887  1  0  0.115628  0  0.953069  0  0  0.12327  0  1.014569  0  0  0.126743  0  1.013636  0  0  0.107531  0.120747  0  1.015542  0
H  H15  1  0.71902109  0.89551037  0.86458317  1  0  0.115708  0  0.953006  0  0  0.123315  0  1.014536  0  0  0.126791  0  1.013602  0  0  0.107497  0.120727  0  1.015491  0
H  H16  1  0.15289022  0.88433729  0.15701561  1  0  0.082178  0  0.95002  0  0  0.088972  0  1.015767  0  0  0.091876  0  1.012436  0  0  0.120386  0.086878  0  1.018089  0
H  H17  1  0.84711048  0.11566230  0.84298379  1  0  0.08221  0  0.950055  0  0  0.08902  0  1.015773  0  0  0.091921  0  1.012443  0  0  0.120357  0.086868  0  1.018081  0
H  H18  1  0.83107877  0.94410017  0.30587213  1  0  0.063173  0  0.979872  0  0  0.070064  0  1.047322  0  0  0.071962  0  1.046215  0  0  0.112868  0.068648  0  1.048118  0
H  H19  1  0.16892235  0.05590041  0.69412610  1  0  0.063125  0  0.979893  0  0  0.070003  0  1.047356  0  0  0.071885  0  1.046264  0  0  0.112848  0.068587  0  1.048149  0
H  H20  1  0.83522518  0.08809609  0.48131039  1  0  0.104122  0  0.950324  0  0  0.117641  0  1.003227  0  0  0.120275  0  1.003166  0  0  0.106162  0.115774  0  1.003442  0
H  H21  1  0.16477284  0.91190349  0.51868680  1  0  0.104141  0  0.950307  0  0  0.11768  0  1.003185  0  0  0.120314  0  1.003125  0  0  0.106137  0.115782  0  1.003395  0
H  H22  1  0.84328678  0.00902897  0.62671842  1  0  0.105821  0  0.94454  0  0  0.114611  0  1.009261  0  0  0.117236  0  1.007733  0  0  0.10982  0.112714  0  1.010343  0
H  H23  1  0.15671209  0.99097260  0.37327932  1  0  0.105842  0  0.944602  0  0  0.114628  0  1.009316  0  0  0.117253  0  1.007788  0  0  0.109865  0.112754  0  1.010415  0
H  H24  1  0.84948252  0.83259463  0.68589960  1  0  0.086105  0  1.005269  0  0  0.096972  0  1.068461  0  0  0.098306  0  1.07066  0  0  0.095086  0.095975  0  1.06699  0
H  H25  1  0.15052073  0.16741093  0.31410071  1  0  0.086111  0  1.005264  0  0  0.096975  0  1.068461  0  0  0.098306  0  1.070658  0  0  0.095143  0.096016  0  1.067008  0
H  H26  1  0.85498098  0.61206997  0.64847409  1  0  0.119759  0  0.934617  0  0  0.131957  0  0.990075  0  0  0.134931  0  0.989038  0  0  0.110561  0.129705  0  0.991076  0
H  H27  1  0.14502096  0.38793460  0.35152735  1  0  0.119774  0  0.934568  0  0  0.131966  0  0.990032  0  0  0.134941  0  0.988995  0  0  0.110569  0.129728  0  0.991014  0
H  H28  1  0.85561723  0.41155278  0.52457772  1  0  0.109678  0  0.977779  0  0  0.120491  0  1.037926  0  0  0.123535  0  1.035558  0  0  0.107156  0.118223  0  1.039639  0
H  H29  1  0.14438161  0.58845081  0.47542554  1  0  0.109669  0  0.977812  0  0  0.120501  0  1.037943  0  0  0.123538  0  1.035577  0  0  0.107166  0.118212  0  1.039647  0
H  H30  1  0.83902527  0.27300272  0.33893846  1  0  0.095026  0  0.947798  0  0  0.106605  0  1.004066  0  0  0.109431  0  1.004595  0  0  0.102919  0.104513  0  1.003931  0
H  H31  1  0.16097404  0.72699986  0.66106313  1  0  0.095044  0  0.947781  0  0  0.106619  0  1.004062  0  0  0.109444  0  1.004593  0  0  0.10303  0.10463  0  1.003952  0
H  H32  1  0.83212668  0.37142054  0.20560765  1  0  0.079278  0  0.977273  0  0  0.083694  0  1.049209  0  0  0.08633  0  1.046317  0  0  0.120449  0.081695  0  1.051473  0
H  H33  1  0.16787657  0.62858502  0.79439409  1  0  0.079324  0  0.977115  0  0  0.083654  0  1.049145  0  0  0.086313  0  1.046228  0  0  0.120492  0.0817  0  1.05144  0
H  H34  1  0.50092129  0.62653491  0.29604554  1  0  0.101848  0  0.938283  0  0  0.112811  0  0.998721  0  0  0.115841  0  0.99714  0  0  0.108284  0.110564  0  0.999931  0
H  H35  1  0.49908379  0.37346866  0.70395786  1  0  0.101866  0  0.938254  0  0  0.112818  0  0.998709  0  0  0.11585  0  0.997127  0  0  0.108263  0.110565  0  0.999924  0
H  H36  1  0.50766450  0.28394305  0.34529989  1  0  0.098405  0  0.967822  0  0  0.1071  0  1.034914  0  0  0.110139  0  1.033197  0  0  0.101314  0.104826  0  1.036349  0
H  H37  1  0.49232611  0.71604959  0.65469889  1  0  0.098472  0  0.967724  0  0  0.107144  0  1.034839  0  0  0.110183  0  1.033122  0  0  0.101299  0.104848  0  1.036272  0
H  H38  1  0.49977758  0.27101327  0.52033354  1  0  0.085951  0  0.988076  0  0  0.097393  0  1.051275  0  0  0.099096  0  1.05207  0  0  0.095834  0.096153  0  1.050864  0
H  H39  1  0.50021745  0.72898136  0.47966800  1  0  0.085832  0  0.988114  0  0  0.097271  0  1.051341  0  0  0.098973  0  1.05214  0  0  0.095781  0.096029  0  1.050938  0
H  H40  1  0.29260780  0.75612717  0.47657356  1  0  0.100803  0  0.981033  0  0  0.109383  0  1.04837  0  0  0.112635  0  1.046234  0  0  0.106505  0.107014  0  1.049968  0
H  H41  1  0.70739340  0.24386941  0.52342148  1  0  0.100744  0  0.981087  0  0  0.109333  0  1.048413  0  0  0.112584  0  1.046279  0  0  0.106472  0.106968  0  1.049988  0
H  H42  1  0.36431648  0.92149152  0.23846190  1  0  0.101455  0  0.947747  0  0  0.113803  0  1.006126  0  0  0.116656  0  1.004783  0  0  0.10959  0.111794  0  1.006971  0
H  H43  1  0.63568608  0.07850406  0.76153362  1  0  0.101473  0  0.947759  0  0  0.113817  0  1.006138  0  0  0.116666  0  1.004801  0  0  0.109581  0.111815  0  1.006968  0
H  H44  1  0.56151573  0.11748083  0.35204160  1  0  0.099587  0  0.947066  0  0  0.113122  0  1.00344  0  0  0.116194  0  1.002117  0  0  0.105374  0.110717  0  1.00479  0
H  H45  1  0.43848992  0.88251574  0.64795424  1  0  0.099579  0  0.947088  0  0  0.113117  0  1.003458  0  0  0.116198  0  1.002122  0  0  0.105367  0.110712  0  1.004805  0
H  H46  1  0.74905167  0.48625390  0.91400507  1  0  0.439052  0  0.855395  0  0  0.411965  0  0.912268  0  0  0.422204  0  0.897348  0  0  0.303103  0.404603  0  0.92297  0
H  H47  1  0.25095128  0.51374468  0.08599339  1  0  0.43907  0  0.8554  0  0  0.411964  0  0.912311  0  0  0.422203  0  0.897388  0  0  0.30309  0.404617  0  0.92299  0
H  H48  1  0.67829186  0.58380832  0.93575201  1  0  0.440337  0  0.860179  0  0  0.409578  0  0.923504  0  0  0.420704  0  0.907277  0  0  0.298506  0.401658  0  0.935019  0
H  H49  1  0.32171282  0.41619224  0.06424629  1  0  0.440341  0  0.860178  0  0  0.409576  0  0.923515  0  0  0.420701  0  0.907291  0  0  0.298501  0.401661  0  0.935026  0
C  C50  1  0.57194766  0.72305709  0.11438361  1  0  0.158779  0  3.674101  0  0  0.127304  0  3.936185  0  0  0.136317  0  3.951642  0  0  0.063307  0.121465  0  3.925518  0
C  C51  1  0.42805299  0.27694449  0.88561488  1  0  0.158763  0  3.674179  0  0  0.1273  0  3.936247  0  0  0.136311  0  3.951701  0  0  0.063264  0.121457  0  3.925611  0
C  C52  1  0.49364739  0.78613172  0.09817658  1  0  -0.103133  0  3.708328  0  0  -0.120918  0  3.968656  0  0  -0.126414  0  3.987097  0  0  -0.076832  -0.117434  0  3.956303  0
C  C53  1  0.50635232  0.21387185  0.90182027  1  0  -0.103089  0  3.708397  0  0  -0.120861  0  3.968727  0  0  -0.126363  0  3.987178  0  0  -0.076706  -0.117338  0  3.956454  0
C  C54  1  0.55496628  0.91321051  0.09625162  1  0  -0.043646  0  3.686268  0  0  -0.068246  0  3.934197  0  0  -0.066304  0  3.951737  0  0  -0.060688  -0.069226  0  3.921981  0
C  C55  1  0.44503611  0.08679305  0.90374529  1  0  -0.043764  0  3.686185  0  0  -0.06837  0  3.934121  0  0  -0.066443  0  3.951656  0  0  -0.060778  -0.069357  0  3.921906  0
C  C56  1  0.69381758  0.97563890  0.10805488  1  0  0.026798  0  3.799149  0  0  0.042939  0  4.029053  0  0  0.041031  0  4.053851  0  0  -0.001642  0.044087  0  4.012348  0
C  C57  1  0.30618129  0.02436268  0.89194357  1  0  0.02682  0  3.799168  0  0  0.043011  0  4.028978  0  0  0.041105  0  4.053782  0  0  -0.001624  0.04413  0  4.012271  0
C  C58  1  0.76268129  0.10559026  0.10342705  1  0  -0.109595  0  3.732212  0  0  -0.13107  0  3.984721  0  0  -0.135212  0  4.007215  0  0  -0.084016  -0.128176  0  3.969343  0
C  C59  1  0.23731886  0.89441432  0.89657293  1  0  -0.109578  0  3.732461  0  0  -0.13105  0  3.984921  0  0  -0.135194  0  4.007415  0  0  -0.083918  -0.128127  0  3.969606  0
C  C60  1  0.89653367  0.16043697  0.11000260  1  0  -0.090658  0  3.726935  0  0  -0.114805  0  3.981236  0  0  -0.116831  0  4.002134  0  0  -0.080817  -0.113267  0  3.967173  0
C  C61  1  0.10346700  0.83956462  0.88999946  1  0  -0.090725  0  3.727038  0  0  -0.114882  0  3.981303  0  0  -0.116908  0  4.002202  0  0  -0.080808  -0.113336  0  3.9673  0
C  C62  1  0.97099487  0.08987390  0.12258854  1  0  0.019788  0  3.798053  0  0  0.037978  0  4.028029  0  0  0.03479  0  4.052933  0  0  -0.001794  0.039862  0  4.011288  0
C  C63  1  0.02900135  0.91012772  0.87741630  1  0  0.019784  0  3.798122  0  0  0.038041  0  4.028065  0  0  0.034853  0  4.052969  0  0  -0.001749  0.039947  0  4.01134  0
C  C64  1  0.10828330  0.14071548  0.12372518  1  0  -0.030589  0  3.648559  0  0  -0.057712  0  3.898018  0  0  -0.053827  0  3.913014  0  0  -0.05797  -0.059965  0  3.887809  0
C  C65  1  0.89171775  0.85928910  0.87627768  1  0  -0.030671  0  3.648527  0  0  -0.057771  0  3.897953  0  0  -0.05389  0  3.912953  0  0  -0.058029  -0.060033  0  3.887739  0
C  C66  1  0.17513758  0.06759658  0.13520661  1  0  -0.126933  0  3.731512  0  0  -0.13994  0  3.987465  0  0  -0.146731  0  4.006793  0  0  -0.084351  -0.135525  0  3.97463  0
C  C67  1  0.82485817  0.93240603  0.86479633  1  0  -0.126963  0  3.731293  0  0  -0.139944  0  3.987247  0  0  -0.146736  0  4.006576  0  0  -0.084403  -0.135555  0  3.974345  0
C  C68  1  0.10417729  0.94509153  0.14737708  1  0  0.150473  0  3.702843  0  0  0.121144  0  3.963398  0  0  0.130521  0  3.978678  0  0  0.05992  0.115036  0  3.952652  0
C  C69  1  0.89582075  0.05490807  0.85262440  1  0  0.150398  0  3.702996  0  0  0.121059  0  3.963543  0  0  0.130437  0  3.978823  0  0  0.059864  0.114961  0  3.952727  0
C  C70  1  0.90663761  0.96279979  0.13190657  1  0  0.119606  0  3.775542  0  0  0.114582  0  4.017273  0  0  0.119264  0  4.039675  0  0  0.117098  0.111324  0  4.002223  0
C  C71  1  0.09336034  0.03720380  0.86809596  1  0  0.119704  0  3.775493  0  0  0.114526  0  4.017387  0  0  0.11921  0  4.039788  0  0  0.117026  0.111257  0  4.002308  0
C  C72  1  0.76482692  0.90339141  0.12283961  1  0  0.126652  0  3.761418  0  0  0.123771  0  4.000077  0  0  0.127917  0  4.021797  0  0  0.118558  0.120854  0  3.985527  0
C  C73  1  0.23517280  0.09661216  0.87716081  1  0  0.1266  0  3.761295  0  0  0.123762  0  3.999946  0  0  0.127906  0  4.02166  0  0  0.118532  0.120836  0  3.985319  0
C  C74  1  0.83346271  0.91033469  0.36970220  1  0  0.136479  0  3.736632  0  0  0.107222  0  3.997565  0  0  0.115712  0  4.014925  0  0  0.052501  0.101803  0  3.985594  0
C  C75  1  0.16653883  0.08966688  0.63029630  1  0  0.136485  0  3.736516  0  0  0.107252  0  3.997453  0  0  0.115754  0  4.014819  0  0  0.052502  0.101838  0  3.985446  0
C  C76  1  0.83529406  0.99150563  0.46868776  1  0  -0.118749  0  3.750469  0  0  -0.132224  0  4.002506  0  0  -0.138927  0  4.023698  0  0  -0.087651  -0.128013  0  3.988708  0
C  C77  1  0.16470396  0.00849396  0.53131086  1  0  -0.118768  0  3.750457  0  0  -0.132262  0  4.002478  0  0  -0.138965  0  4.023664  0  0  -0.08765  -0.128034  0  3.988642  0
C  C78  1  0.83962960  0.94753621  0.54864490  1  0  -0.037462  0  3.673088  0  0  -0.060969  0  3.920886  0  0  -0.058385  0  3.938824  0  0  -0.061514  -0.062626  0  3.909188  0
C  C79  1  0.16036711  0.05246239  0.45135486  1  0  -0.037477  0  3.673111  0  0  -0.060987  0  3.920932  0  0  -0.058401  0  3.93887  0  0  -0.06151  -0.062643  0  3.909238  0
C  C80  1  0.84249392  0.82267995  0.52868594  1  0  0.019889  0  3.802171  0  0  0.037649  0  4.029619  0  0  0.03526  0  4.053286  0  0  -0.003351  0.039013  0  4.013985  0
C  C81  1  0.15750411  0.17731964  0.47131268  1  0  0.019892  0  3.802133  0  0  0.037607  0  4.029573  0  0  0.035217  0  4.053237  0  0  -0.003394  0.038987  0  4.013943  0
C  C82  1  0.84889027  0.77254864  0.60844867  1  0  -0.111128  0  3.771878  0  0  -0.133849  0  4.02441  0  0  -0.137766  0  4.04871  0  0  -0.093682  -0.131165  0  4.00801  0
C  C83  1  0.15111123  0.22745493  0.39155108  1  0  -0.111093  0  3.771869  0  0  -0.133812  0  4.024402  0  0  -0.137728  0  4.048709  0  0  -0.093653  -0.131117  0  4.008017  0
C  C84  1  0.85169904  0.65178274  0.58813980  1  0  -0.09311  0  3.727864  0  0  -0.115365  0  3.979639  0  0  -0.11809  0  4.002405  0  0  -0.081559  -0.113478  0  3.964363  0
C  C85  1  0.14830378  0.34822183  0.41186166  1  0  -0.093163  0  3.727887  0  0  -0.115399  0  3.979681  0  0  -0.118126  0  4.002445  0  0  -0.081541  -0.113476  0  3.964351  0
C  C86  1  0.84729689  0.57214131  0.48553758  1  0  0.029893  0  3.780548  0  0  0.047309  0  4.008558  0  0  0.044214  0  4.03327  0  0  -0.000594  0.049294  0  3.991903  0
C  C87  1  0.15270373  0.42786226  0.51446358  1  0  0.029932  0  3.780615  0  0  0.047276  0  4.008705  0  0  0.04419  0  4.033421  0  0  -0.000611  0.049234  0  3.991964  0
C  C88  1  0.84730232  0.44548964  0.46163549  1  0  -0.05736  0  3.692415  0  0  -0.08242  0  3.940153  0  0  -0.080295  0  3.958735  0  0  -0.067175  -0.083237  0  3.927449  0
C  C89  1  0.15269877  0.55451295  0.53836685  1  0  -0.057332  0  3.692559  0  0  -0.082401  0  3.940332  0  0  -0.080267  0  3.958909  0  0  -0.067203  -0.083199  0  3.927575  0
C  C90  1  0.83911189  0.37112262  0.36106227  1  0  -0.115566  0  3.734392  0  0  -0.128207  0  3.990609  0  0  -0.135651  0  4.011263  0  0  -0.085008  -0.123686  0  3.977085  0
C  C91  1  0.16088916  0.62888195  0.63893916  1  0  -0.115659  0  3.734499  0  0  -0.128295  0  3.990704  0  0  -0.135741  0  4.011363  0  0  -0.085035  -0.123747  0  3.977236  0
C  C92  1  0.83533353  0.42562587  0.28545246  1  0  0.169985  0  3.691752  0  0  0.135791  0  3.955567  0  0  0.145679  0  3.971099  0  0  0.066116  0.129371  0  3.945104  0
C  C93  1  0.16466976  0.57437770  0.71454875  1  0  0.169943  0  3.69169  0  0  0.135824  0  3.955498  0  0  0.145696  0  3.971019  0  0  0.066185  0.129423  0  3.945116  0
C  C94  1  0.84212489  0.61880589  0.40398402  1  0  0.138832  0  3.740043  0  0  0.134686  0  3.977147  0  0  0.139666  0  3.998796  0  0  0.123637  0.131147  0  3.962574  0
C  C95  1  0.15787887  0.38119668  0.59601765  1  0  0.138827  0  3.740057  0  0  0.134708  0  3.977114  0  0  0.139662  0  3.998795  0  0  0.12362  0.131183  0  3.962476  0
C  C96  1  0.84018994  0.74705864  0.42583311  1  0  0.138887  0  3.737485  0  0  0.134768  0  3.976182  0  0  0.139428  0  3.997923  0  0  0.123765  0.131746  0  3.961335  0
C  C97  1  0.15981518  0.25294293  0.57416762  1  0  0.138791  0  3.737496  0  0  0.134779  0  3.976047  0  0  0.139449  0  3.997791  0  0  0.123743  0.131741  0  3.96119  0
C  C98  1  0.50108315  0.57432681  0.34812181  1  0  -0.055976  0  3.737227  0  0  -0.083517  0  3.994133  0  0  -0.083301  0  4.012768  0  0  -0.084524  -0.083359  0  3.98153  0
C  C99  1  0.49891233  0.42566680  0.65187518  1  0  -0.055965  0  3.737251  0  0  -0.083507  0  3.994158  0  0  -0.083295  0  4.012796  0  0  -0.084515  -0.083346  0  3.981569  0
C  C100  1  0.50520095  0.44860107  0.31121703  1  0  -0.112673  0  3.74593  0  0  -0.089664  0  3.99823  0  0  -0.095317  0  4.018535  0  0  -0.018169  -0.086361  0  3.98488  0
C  C101  1  0.49479633  0.55139255  0.68878429  1  0  -0.112639  0  3.745907  0  0  -0.089613  0  3.998177  0  0  -0.095265  0  4.018482  0  0  -0.018146  -0.086318  0  3.984839  0
C  C102  1  0.50417671  0.38029407  0.37555920  1  0  -0.108651  0  3.725624  0  0  -0.14057  0  3.975869  0  0  -0.14007  0  3.995027  0  0  -0.083604  -0.140636  0  3.962903  0
C  C103  1  0.49581040  0.61969660  0.62444471  1  0  -0.108694  0  3.725578  0  0  -0.140606  0  3.975785  0  0  -0.140108  0  3.994942  0  0  -0.083598  -0.140664  0  3.962802  0
C  C104  1  0.50064562  0.43581873  0.48078895  1  0  0.063166  0  3.776993  0  0  0.079392  0  4.004355  0  0  0.079146  0  4.02778  0  0  -0.003989  0.079529  0  3.988636  0
C  C105  1  0.49934228  0.56417591  0.51921174  1  0  0.063108  0  3.776969  0  0  0.07939  0  4.004284  0  0  0.079145  0  4.027707  0  0  -0.003995  0.079527  0  3.988554  0
C  C106  1  0.50025988  0.36914238  0.54968811  1  0  -0.100327  0  3.720039  0  0  -0.119496  0  3.970099  0  0  -0.121672  0  3.990949  0  0  -0.087623  -0.118162  0  3.956173  0
C  C107  1  0.49973650  0.63085124  0.45031248  1  0  -0.100159  0  3.71995  0  0  -0.119342  0  3.97001  0  0  -0.121518  0  3.990858  0  0  -0.087581  -0.118008  0  3.956081  0
C  C108  1  0.35043463  0.83679317  0.45082945  1  0  -0.119042  0  3.745233  0  0  -0.149969  0  3.992968  0  0  -0.148946  0  4.009862  0  0  -0.082823  -0.150363  0  3.981464  0
C  C109  1  0.64957013  0.16320340  0.54916637  1  0  -0.11898  0  3.745158  0  0  -0.149899  0  3.992969  0  0  -0.148883  0  4.009868  0  0  -0.082811  -0.150295  0  3.981459  0
C  C110  1  0.31670563  0.82807269  0.35251799  1  0  -0.10173  0  3.731315  0  0  -0.07808  0  3.981959  0  0  -0.083325  0  4.00174  0  0  -0.015939  -0.074852  0  3.968813  0
C  C111  1  0.68329473  0.17192191  0.64747865  1  0  -0.101758  0  3.731255  0  0  -0.078089  0  3.98186  0  0  -0.083322  0  4.001641  0  0  -0.015939  -0.074865  0  3.96873  0
C  C112  1  0.39200953  0.93060546  0.31658440  1  0  -0.063097  0  3.761743  0  0  -0.090652  0  4.018528  0  0  -0.091152  0  4.039438  0  0  -0.083432  -0.090238  0  4.0043  0
C  C113  1  0.60799087  0.06938714  0.68341315  1  0  -0.063086  0  3.761649  0  0  -0.090638  0  4.018441  0  0  -0.091139  0  4.039357  0  0  -0.083388  -0.090225  0  4.004231  0
C  C114  1  0.50133892  0.03943503  0.37991588  1  0  -0.109734  0  3.725364  0  0  -0.129256  0  3.975077  0  0  -0.131523  0  3.994779  0  0  -0.085524  -0.127548  0  3.961812  0
C  C115  1  0.49866147  0.96055756  0.62007738  1  0  -0.1098  0  3.725478  0  0  -0.129346  0  3.975164  0  0  -0.131619  0  3.994865  0  0  -0.085578  -0.127655  0  3.96192  0
C  C116  1  0.53876381  0.05155343  0.48179200  1  0  0.060927  0  3.784607  0  0  0.076991  0  4.012104  0  0  0.076748  0  4.035428  0  0  -0.005284  0.077055  0  3.99655  0
C  C117  1  0.46124015  0.94843914  0.51820204  1  0  0.060994  0  3.78475  0  0  0.077166  0  4.012107  0  0  0.076923  0  4.035431  0  0  -0.005315  0.077239  0  3.996546  0
C  C118  1  0.96343953  0.43600031  0.01224223  1  0  0.556977  0  3.928782  0  0  0.50935  0  4.236641  0  0  0.540642  0  4.229721  0  0  0.214062  0.487742  0  4.240655  0
C  C119  1  0.03656342  0.56399828  0.98775837  1  0  0.557016  0  3.928732  0  0  0.509408  0  4.236557  0  0  0.540703  0  4.229636  0  0  0.214065  0.48779  0  4.240562  0
S  S120  1  0.51152470  0.37822788  0.17931712  1  0  1.331032  0  5.63115  0  0  1.234525  0  6.151483  0  0  1.284608  0  6.126544  0  0  0.526781  1.199717  0  6.16777  0
S  S121  1  0.48847384  0.62176873  0.82068287  1  0  1.330916  0  5.631222  0  0  1.234364  0  6.151599  0  0  1.284452  0  6.126653  0  0  0.5266  1.19957  0  6.167866  0
S  S122  1  0.17736787  0.68463207  0.26913073  1  0  1.312986  0  5.648338  0  0  1.214218  0  6.174072  0  0  1.263933  0  6.149292  0  0  0.521034  1.179822  0  6.190001  0
S  S123  1  0.82263288  0.31536553  0.73086957  1  0  1.313055  0  5.648248  0  0  1.214326  0  6.173954  0  0  1.264038  0  6.149178  0  0  0.521113  1.179939  0  6.189858  0
N  N124  1  0.70340896  0.77919052  0.12731814  1  0  -0.402039  0  3.194472  0  0  -0.35235  0  3.463872  0  0  -0.373077  0  3.48555  0  0  -0.358923  -0.337592  0  3.448403  0
N  N125  1  0.29659123  0.22081205  0.87268132  1  0  -0.40204  0  3.19449  0  0  -0.352356  0  3.463869  0  0  -0.373091  0  3.485566  0  0  -0.358937  -0.337611  0  3.448327  0
N  N126  1  0.97432206  0.89382719  0.14651206  1  0  -0.391503  0  3.176823  0  0  -0.342164  0  3.447151  0  0  -0.362812  0  3.467786  0  0  -0.35975  -0.327449  0  3.432453  0
N  N127  1  0.02567504  0.10617440  0.85348921  1  0  -0.39146  0  3.176873  0  0  -0.342068  0  3.447225  0  0  -0.362714  0  3.467859  0  0  -0.359642  -0.327326  0  3.432495  0
N  N128  1  0.83560276  0.79175940  0.34759472  1  0  -0.392369  0  3.175893  0  0  -0.347325  0  3.451932  0  0  -0.367882  0  3.473511  0  0  -0.348246  -0.33282  0  3.436416  0
N  N129  1  0.16440406  0.20824616  0.65240780  1  0  -0.392264  0  3.175842  0  0  -0.347265  0  3.451841  0  0  -0.367818  0  3.47341  0  0  -0.348183  -0.332759  0  3.436315  0
N  N130  1  0.83792690  0.54563027  0.30567638  1  0  -0.390348  0  3.215423  0  0  -0.343256  0  3.485842  0  0  -0.36416  0  3.506762  0  0  -0.36348  -0.32853  0  3.471108  0
N  N131  1  0.16207550  0.45437330  0.69432481  1  0  -0.390298  0  3.215539  0  0  -0.343184  0  3.485824  0  0  -0.364088  0  3.506776  0  0  -0.363439  -0.328462  0  3.471086  0
O  O132  1  0.61566494  0.48808931  0.15657414  1  0  -0.740551  0  2.047657  0  0  -0.684213  0  2.330023  0  0  -0.714  0  2.316515  0  0  -0.399448  -0.662427  0  2.338418  0
O  O133  1  0.38433801  0.51190928  0.84342718  1  0  -0.740449  0  2.047645  0  0  -0.684133  0  2.330061  0  0  -0.713923  0  2.316554  0  0  -0.399385  -0.662335  0  2.338436  0
O  O134  1  0.53997820  0.26388282  0.16701678  1  0  -0.652088  0  1.902201  0  0  -0.612138  0  2.145615  0  0  -0.633056  0  2.133132  0  0  -0.342016  -0.597376  0  2.153891  0
O  O135  1  0.46002298  0.73611579  0.83298665  1  0  -0.652068  0  1.902259  0  0  -0.612094  0  2.145677  0  0  -0.633015  0  2.133196  0  0  -0.341965  -0.597332  0  2.153939  0
O  O136  1  0.38142844  0.34333477  0.12358813  1  0  -0.679465  0  2.009398  0  0  -0.621628  0  2.252318  0  0  -0.644277  0  2.238637  0  0  -0.331158  -0.605448  0  2.261439  0
O  O137  1  0.61856975  0.65665684  0.87640911  1  0  -0.679482  0  2.009413  0  0  -0.621608  0  2.252317  0  0  -0.644267  0  2.238638  0  0  -0.331049  -0.605412  0  2.261422  0
O  O138  1  0.07811830  0.73642565  0.25793931  1  0  -0.730197  0  2.015618  0  0  -0.679071  0  2.297476  0  0  -0.707592  0  2.285887  0  0  -0.385661  -0.65836  0  2.304391  0
O  O139  1  0.92188118  0.26356895  0.74206017  1  0  -0.730196  0  2.01548  0  0  -0.679143  0  2.297439  0  0  -0.707668  0  2.285852  0  0  -0.385705  -0.658386  0  2.304296  0
O  O140  1  0.13748010  0.58745156  0.31961898  1  0  -0.640805  0  1.95858  0  0  -0.595934  0  2.203875  0  0  -0.615854  0  2.191114  0  0  -0.331738  -0.581748  0  2.21234  0
O  O141  1  0.86251839  0.41254703  0.68038011  1  0  -0.640791  0  1.958405  0  0  -0.595947  0  2.203704  0  0  -0.61586  0  2.190932  0  0  -0.331759  -0.581772  0  2.212164  0
O  O142  1  0.22331335  0.64309273  0.17237033  1  0  -0.675747  0  2.009278  0  0  -0.617691  0  2.252003  0  0  -0.639752  0  2.237214  0  0  -0.325354  -0.602118  0  2.261805  0
O  O143  1  0.77668261  0.35689989  0.82762927  1  0  -0.675756  0  2.009403  0  0  -0.617713  0  2.252108  0  0  -0.639775  0  2.237324  0  0  -0.325344  -0.602141  0  2.261913  0
O  O144  1  0.88197729  0.43885742  0.07347856  1  0  -0.616706  0  2.005148  0  0  -0.568321  0  2.253388  0  0  -0.598316  0  2.244686  0  0  -0.372713  -0.546481  0  2.258528  0
O  O145  1  0.11802694  0.56114415  0.92652215  1  0  -0.616795  0  2.005264  0  0  -0.568377  0  2.253457  0  0  -0.598374  0  2.244757  0  0  -0.372838  -0.546624  0  2.258631  0
O  O146  1  0.99105243  0.33943425  0.97030638  1  0  -0.619747  0  2.102625  0  0  -0.576358  0  2.357068  0  0  -0.606532  0  2.351532  0  0  -0.354419  -0.554641  0  2.360149  0
O  O147  1  0.00894738  0.66056534  0.02969299  1  0  -0.6197  0  2.102509  0  0  -0.576331  0  2.356958  0  0  -0.606505  0  2.351423  0  0  -0.35437  -0.554591  0  2.360013  0
O  O148  1  0.72401870  0.54513314  0.96903897  1  0  -0.883675  0  1.837866  0  0  -0.834602  0  2.031698  0  0  -0.860652  0  2.001759  0  0  -0.640169  -0.815617  0  2.052432  0
O  O149  1  0.27598641  0.45486842  0.03095960  1  0  -0.883662  0  1.837874  0  0  -0.834576  0  2.031679  0  0  -0.860625  0  2.001742  0  0  -0.640106  -0.81558  0  2.052382  0
