# generated using pymatgen
data_ZnH8C8(SN4)2
_symmetry_space_group_name_H-M   'P 1'
_cell_length_a   8.82275704
_cell_length_b   8.80333130
_cell_length_c   19.48550000
_cell_angle_alpha   92.71502720
_cell_angle_beta   102.47465052
_cell_angle_gamma   114.92455306
_symmetry_Int_Tables_number   1
_chemical_formula_structural   ZnH8C8(SN4)2
_chemical_formula_sum   'Zn4 H32 C32 S8 N32'
_cell_volume   1323.60369768
_cell_formula_units_Z   4
loop_
 _symmetry_equiv_pos_site_id
 _symmetry_equiv_pos_as_xyz
  1  'x, y, z'
loop_
 _atom_site_type_symbol
 _atom_site_label
 _atom_site_symmetry_multiplicity
 _atom_site_fract_x
 _atom_site_fract_y
 _atom_site_fract_z
 _atom_site_occupancy
 _atom_site_hle17_bader_spin_density
 _atom_site_hle17_ddec_charge
 _atom_site_hle17_ddec_spin_density
 _atom_site_hle17_ddec_sum_bond_order
 _atom_site_hle17_magmom
 _atom_site_hse06_10hf_bader_spin_density
 _atom_site_hse06_10hf_ddec_charge
 _atom_site_hse06_10hf_ddec_spin_density
 _atom_site_hse06_10hf_ddec_sum_bond_order
 _atom_site_hse06_10hf_magmom
 _atom_site_hse06_bader_spin_density
 _atom_site_hse06_ddec_charge
 _atom_site_hse06_ddec_spin_density
 _atom_site_hse06_ddec_sum_bond_order
 _atom_site_hse06_magmom
 _atom_site_pbe_bader_charge
 _atom_site_pbe_bader_spin_density
 _atom_site_pbe_cm5_charge
 _atom_site_pbe_ddec_charge
 _atom_site_pbe_ddec_spin_density
 _atom_site_pbe_ddec_sum_bond_order
 _atom_site_pbe_magmom
Zn  Zn0  1  0.65746102  0.16273199  0.62327922  1  0  0.997593  0  2.076411  0  0  0.804501  0  2.585964  0  0  0.844593  0  2.532708  0  1.270429  0  0.767585  0.777241  0  2.622263  0
Zn  Zn1  1  0.03986926  0.03482684  0.87668189  1  0  0.997615  0  2.076916  0  0  0.804337  0  2.586633  0  0  0.844489  0  2.533337  0  1.267024  0  0.767581  0.777032  0  2.622955  0
Zn  Zn2  1  0.34253907  0.83726845  0.37672044  1  0  0.997555  0  2.076462  0  0  0.804471  0  2.586026  0  0  0.844561  0  2.532773  0  1.270417  0  0.767562  0.77721  0  2.622328  0
Zn  Zn3  1  0.96013199  0.96517359  0.12331840  1  0  0.997581  0  2.076933  0  0  0.804301  0  2.586665  0  0  0.844457  0  2.533371  0  1.267024  0  0.767567  0.776997  0  2.622987  0
H  H4  1  0.75576201  0.87598354  0.69497183  1  0  0.11  0  0.973312  0  0  0.109043  0  1.05303  0  0  0.1132  0  1.047932  0  0.226578  0  0.137935  0.105934  0  1.056748  0
H  H5  1  0.68112725  0.06063057  0.80481864  1  0  0.109727  0  0.974358  0  0  0.109081  0  1.053547  0  0  0.113305  0  1.048426  0  0.232172  0  0.137905  0.105976  0  1.057224  0
H  H6  1  0.24423925  0.12401690  0.30502795  1  0  0.109991  0  0.973314  0  0  0.109034  0  1.053033  0  0  0.113192  0  1.047935  0  0.226597  0  0.137937  0.105925  0  1.05675  0
H  H7  1  0.31887342  0.93937114  0.19518110  1  0  0.109722  0  0.97435  0  0  0.109094  0  1.05351  0  0  0.113301  0  1.048411  0  0.232198  0  0.137912  0.105988  0  1.05719  0
H  H8  1  0.91161947  0.82398803  0.50809689  1  0  0.102412  0  0.953247  0  0  0.10746  0  1.024973  0  0  0.110161  0  1.021824  0  0.168421  0  0.134992  0.105408  0  1.027353  0
H  H9  1  0.81566642  0.40330760  0.99211991  1  0  0.102366  0  0.954029  0  0  0.107122  0  1.025963  0  0  0.109825  0  1.022803  0  0.172769  0  0.134883  0.105058  0  1.028358  0
H  H10  1  0.08837947  0.17600987  0.49190209  1  0  0.102429  0  0.953291  0  0  0.107474  0  1.025004  0  0  0.110175  0  1.021856  0  0.168444  0  0.135013  0.10542  0  1.027386  0
H  H11  1  0.18433426  0.59669157  0.00788081  1  0  0.102431  0  0.95401  0  0  0.107134  0  1.025993  0  0  0.109837  0  1.022833  0  0.172734  0  0.134874  0.105082  0  1.028378  0
H  H12  1  0.75913499  0.55242564  0.62000503  1  0  0.09572  0  0.942597  0  0  0.107847  0  1.007662  0  0  0.107591  0  1.008895  0  0.138928  0  0.114327  0.107885  0  1.006965  0
H  H13  1  0.43274290  0.13872655  0.88000016  1  0  0.095135  0  0.943239  0  0  0.107431  0  1.00852  0  0  0.107116  0  1.009758  0  0.121147  0  0.114401  0.107523  0  1.007796  0
H  H14  1  0.24086453  0.44757353  0.37999454  1  0  0.095731  0  0.942602  0  0  0.107861  0  1.007668  0  0  0.107604  0  1.008901  0  0.138624  0  0.114317  0.107898  0  1.00697  0
H  H15  1  0.56725719  0.86127388  0.12000053  1  0  0.095104  0  0.943181  0  0  0.107389  0  1.008479  0  0  0.107075  0  1.009713  0  0.121152  0  0.114388  0.107484  0  1.007753  0
H  H16  1  0.91295338  0.69570116  0.69629717  1  0  0.098341  0  0.924773  0  0  0.109088  0  0.991189  0  0  0.10984  0  0.991431  0  0.125417  0  0.117204  0.108456  0  0.991128  0
H  H17  1  0.49922030  0.21601724  0.80371377  1  0  0.098252  0  0.92451  0  0  0.109304  0  0.990946  0  0  0.110022  0  0.991193  0  0.095972  0  0.117372  0.108662  0  0.990903  0
H  H18  1  0.08704614  0.30429800  0.30370292  1  0  0.098391  0  0.924833  0  0  0.109144  0  0.991235  0  0  0.109895  0  0.991477  0  0.125413  0  0.117221  0.108511  0  0.991175  0
H  H19  1  0.50078095  0.78398320  0.19628702  1  0  0.098259  0  0.924496  0  0  0.109319  0  0.99092  0  0  0.110037  0  0.991167  0  0.095951  0  0.117377  0.108679  0  0.990874  0
H  H20  1  0.02301888  0.52696052  0.63125152  1  0  0.102789  0  0.917687  0  0  0.11533  0  0.981754  0  0  0.115954  0  0.98197  0  0.114687  0  0.121299  0.114708  0  0.981832  0
H  H21  1  0.39633370  0.39203091  0.86871432  1  0  0.101772  0  0.918109  0  0  0.114804  0  0.982046  0  0  0.115447  0  0.982206  0  0.103171  0  0.120924  0.114195  0  0.982129  0
H  H22  1  0.97698122  0.47303991  0.36874865  1  0  0.102796  0  0.917711  0  0  0.115323  0  0.981775  0  0  0.115966  0  0.981972  0  0.114679  0  0.121299  0.114699  0  0.981857  0
H  H23  1  0.60366639  0.60796952  0.13128585  1  0  0.101789  0  0.918102  0  0  0.114809  0  0.982033  0  0  0.115452  0  0.982193  0  0.103176  0  0.120928  0.1142  0  0.982116  0
H  H24  1  0.99310731  0.62263479  0.55506278  1  0  0.088365  0  0.920575  0  0  0.103496  0  0.981777  0  0  0.104231  0  0.981626  0  0.080244  0  0.117664  0.10288  0  0.981944  0
H  H25  1  0.56833525  0.43879516  0.94490012  1  0  0.088662  0  0.918965  0  0  0.10407  0  0.980067  0  0  0.104772  0  0.979935  0  0.081039  0  0.11788  0.103466  0  0.980249  0
H  H26  1  0.00689279  0.37736564  0.44493740  1  0  0.088366  0  0.92058  0  0  0.103501  0  0.981774  0  0  0.104236  0  0.981628  0  0.080236  0  0.11767  0.102886  0  0.98194  0
H  H27  1  0.43166484  0.56120527  0.05510005  1  0  0.088668  0  0.918913  0  0  0.104068  0  0.980011  0  0  0.104769  0  0.979879  0  0.081057  0  0.117873  0.103464  0  0.980194  0
H  H28  1  0.24214680  0.90979457  0.54901047  1  0  0.106271  0  0.99501  0  0  0.105167  0  1.073571  0  0  0.109445  0  1.068612  0  0.262476  0  0.135218  0.101958  0  1.077182  0
H  H29  1  0.86124566  0.69371899  0.95080692  1  0  0.106407  0  0.993695  0  0  0.104934  0  1.072682  0  0  0.109282  0  1.067644  0  0.24489  0  0.135104  0.101719  0  1.076284  0
H  H30  1  0.75785272  0.09020460  0.45098910  1  0  0.106249  0  0.995015  0  0  0.105148  0  1.073579  0  0  0.109426  0  1.06862  0  0.262481  0  0.135193  0.101939  0  1.077189  0
H  H31  1  0.13875675  0.30628144  0.04919348  1  0  0.106386  0  0.993729  0  0  0.104917  0  1.072693  0  0  0.109265  0  1.067654  0  0.244938  0  0.135092  0.101694  0  1.076301  0
H  H32  1  0.26255336  0.74198731  0.75033940  1  0  0.097375  0  0.977002  0  0  0.101573  0  1.049858  0  0  0.104537  0  1.046886  0  0.188207  0  0.12382  0.099366  0  1.052042  0
H  H33  1  0.49113437  0.51198201  0.74955593  1  0  0.097522  0  0.977382  0  0  0.101872  0  1.049887  0  0  0.104839  0  1.046921  0  0.216792  0  0.123892  0.099689  0  1.052041  0
H  H34  1  0.73744671  0.25801566  0.24966031  1  0  0.097403  0  0.976962  0  0  0.101588  0  1.049839  0  0  0.104552  0  1.046865  0  0.188193  0  0.123811  0.099366  0  1.052037  0
H  H35  1  0.50886573  0.48801842  0.25044424  1  0  0.097528  0  0.977358  0  0  0.101868  0  1.049878  0  0  0.104833  0  1.046913  0  0.216782  0  0.123893  0.099683  0  1.052035  0
C  C36  1  0.78527014  0.89781785  0.64381948  1  0  0.182  0  3.627427  0  0  0.113945  0  3.898333  0  0  0.127282  0  3.91027  0  0.979556  0  0.165156  0.105424  0  3.890128  0
C  C37  1  0.75403036  0.14138593  0.85609485  1  0  0.181106  0  3.625594  0  0  0.112879  0  3.89663  0  0  0.12609  0  3.90859  0  0.97675  0  0.164936  0.104375  0  3.88844  0
C  C38  1  0.21472995  0.10218259  0.35618069  1  0  0.182056  0  3.627527  0  0  0.114019  0  3.898421  0  0  0.127358  0  3.91035  0  0.979512  0  0.165194  0.105502  0  3.890203  0
C  C39  1  0.24597030  0.85861577  0.14390489  1  0  0.181144  0  3.625525  0  0  0.112932  0  3.896556  0  0  0.126153  0  3.90853  0  0.976711  0  0.164977  0.104428  0  3.888367  0
C  C40  1  0.86613276  0.87007000  0.54809886  1  0  0.149847  0  3.653881  0  0  0.085594  0  3.937655  0  0  0.09707  0  3.950538  0  0.960761  0  0.152992  0.07817  0  3.928892  0
C  C41  1  0.82172362  0.31780415  0.95205621  1  0  0.149456  0  3.655241  0  0  0.085407  0  3.939122  0  0  0.09688  0  3.952043  0  0.946257  0  0.152871  0.077995  0  3.930313  0
C  C42  1  0.13386676  0.12992917  0.45190072  1  0  0.14983  0  3.653922  0  0  0.085588  0  3.937693  0  0  0.097064  0  3.950579  0  0.96075  0  0.152987  0.078166  0  3.928934  0
C  C43  1  0.17827763  0.68219628  0.04794408  1  0  0.149325  0  3.655313  0  0  0.085334  0  3.939194  0  0  0.096808  0  3.952114  0  0.946399  0  0.152873  0.077911  0  3.930377  0
C  C44  1  0.88052225  0.66943456  0.63801332  1  0  -0.020616  0  3.606822  0  0  -0.082509  0  3.859217  0  0  -0.078982  0  3.871239  0  0.246315  0  -0.047496  -0.084755  0  3.851151  0
C  C45  1  0.53149079  0.24216210  0.86199880  1  0  -0.019119  0  3.605478  0  0  -0.081991  0  3.859114  0  0  -0.078241  0  3.870734  0  0.299595  0  -0.047431  -0.08434  0  3.851221  0
C  C46  1  0.11947727  0.33056461  0.36198626  1  0  -0.020729  0  3.606933  0  0  -0.082632  0  3.859342  0  0  -0.079103  0  3.87137  0  0.246621  0  -0.047512  -0.084876  0  3.851275  0
C  C47  1  0.46850930  0.75783833  0.13800188  1  0  -0.019124  0  3.605464  0  0  -0.081982  0  3.859045  0  0  -0.078231  0  3.870662  0  0.299595  0  -0.047445  -0.084335  0  3.851151  0
C  C48  1  0.02075530  0.64251103  0.61331258  1  0  -0.01446  0  3.618583  0  0  -0.078319  0  3.875031  0  0  -0.074383  0  3.886208  0  0.291212  0  -0.04241  -0.080752  0  3.867335  0
C  C49  1  0.52962034  0.40772848  0.88665901  1  0  -0.013287  0  3.616999  0  0  -0.07798  0  3.874733  0  0  -0.073974  0  3.88564  0  0.31039  0  -0.042362  -0.080524  0  3.867265  0
C  C50  1  0.97924653  0.35749068  0.38668779  1  0  -0.014371  0  3.618659  0  0  -0.07824  0  3.875128  0  0  -0.07432  0  3.886295  0  0.291208  0  -0.0424  -0.080673  0  3.867429  0
C  C51  1  0.47037975  0.59227195  0.11334167  1  0  -0.013328  0  3.617005  0  0  -0.07797  0  3.874659  0  0  -0.073964  0  3.885565  0  0.310392  0  -0.042353  -0.080513  0  3.86719  0
C  C52  1  0.28751873  0.89748051  0.60434824  1  0  0.174105  0  3.641952  0  0  0.10574  0  3.915691  0  0  0.119037  0  3.927566  0  0.940735  0  0.161435  0.097248  0  3.907573  0
C  C53  1  0.79345013  0.68361792  0.89548857  1  0  0.174522  0  3.63872  0  0  0.106415  0  3.912248  0  0  0.119657  0  3.924083  0  0.979984  0  0.160953  0.097938  0  3.904134  0
C  C54  1  0.71248079  0.10251866  0.39565133  1  0  0.174098  0  3.64193  0  0  0.105714  0  3.915678  0  0  0.119007  0  3.927552  0  0.940732  0  0.161423  0.097222  0  3.90756  0
C  C55  1  0.20655171  0.31638125  0.10451124  1  0  0.174534  0  3.63869  0  0  0.106442  0  3.912184  0  0  0.119684  0  3.924018  0  0.979981  0  0.160971  0.097969  0  3.904079  0
C  C56  1  0.30123582  0.81471761  0.70815670  1  0  0.163485  0  3.630932  0  0  0.104731  0  3.904123  0  0  0.11628  0  3.91579  0  0.973446  0  0.1574  0.097261  0  3.896161  0
C  C57  1  0.60624421  0.59306330  0.79173679  1  0  0.164504  0  3.628965  0  0  0.105692  0  3.901833  0  0  0.117233  0  3.913529  0  0.928199  0  0.15743  0.098209  0  3.893827  0
C  C58  1  0.69876368  0.18528409  0.29184344  1  0  0.163523  0  3.630848  0  0  0.104751  0  3.904025  0  0  0.1163  0  3.915688  0  0.973441  0  0.157427  0.097295  0  3.896071  0
C  C59  1  0.39375704  0.40693714  0.20826349  1  0  0.164622  0  3.629029  0  0  0.105811  0  3.901898  0  0  0.117352  0  3.913595  0  0.92818  0  0.15748  0.098329  0  3.893894  0
C  C60  1  0.62205609  0.34606308  0.49334953  1  0  0.31652  0  4.088826  0  0  0.294168  0  4.39012  0  0  0.318006  0  4.403992  0  0.529017  0  0.144537  0.278117  0  4.380201  0
C  C61  1  0.35305457  0.12892350  0.00666324  1  0  0.315513  0  4.090994  0  0  0.293076  0  4.392292  0  0  0.316923  0  4.406212  0  0.540397  0  0.144289  0.277022  0  4.382331  0
C  C62  1  0.37794341  0.65393863  0.50664959  1  0  0.316544  0  4.088807  0  0  0.294192  0  4.390097  0  0  0.31803  0  4.403968  0  0.529066  0  0.14453  0.278141  0  4.38018  0
C  C63  1  0.64694089  0.87107440  0.99333694  1  0  0.315527  0  4.091024  0  0  0.293091  0  4.392326  0  0  0.316938  0  4.406247  0  0.540502  0  0.144291  0.277037  0  4.382363  0
C  C64  1  0.91868401  0.41519681  0.75790508  1  0  0.317421  0  4.081253  0  0  0.295421  0  4.381287  0  0  0.319005  0  4.395584  0  0.538397  0  0.144642  0.279571  0  4.371048  0
C  C65  1  0.15716141  0.16094258  0.74219849  1  0  0.317622  0  4.082741  0  0  0.295624  0  4.38267  0  0  0.319198  0  4.396979  0  0.527475  0  0.144726  0.279779  0  4.37242  0
C  C66  1  0.08131608  0.58480362  0.24209407  1  0  0.317307  0  4.081305  0  0  0.295295  0  4.381355  0  0  0.318881  0  4.395653  0  0.538389  0  0.144603  0.279446  0  4.371114  0
C  C67  1  0.84283811  0.83905658  0.25780263  1  0  0.317619  0  4.082666  0  0  0.295622  0  4.382598  0  0  0.319197  0  4.396904  0  0.527391  0  0.14473  0.279775  0  4.372351  0
S  S68  1  0.62941507  0.46036823  0.43106680  1  0  -0.336136  0  2.024394  0  0  -0.316157  0  2.316796  0  0  -0.331432  0  2.315379  0  0.125011  0  -0.171848  -0.305536  0  2.31748  0
S  S69  1  0.52952691  0.19837681  0.06901627  1  0  -0.335565  0  2.026508  0  0  -0.315594  0  2.319341  0  0  -0.330826  0  2.317831  0  0.116774  0  -0.171744  -0.304963  0  2.320024  0
S  S70  1  0.37058444  0.53963094  0.56893278  1  0  -0.336119  0  2.02431  0  0  -0.316138  0  2.316709  0  0  -0.331414  0  2.315294  0  0.125023  0  -0.171825  -0.305516  0  2.317395  0
S  S71  1  0.47046857  0.80161855  0.93098488  1  0  -0.335562  0  2.026499  0  0  -0.315588  0  2.319325  0  0  -0.330824  0  2.317821  0  0.116735  0  -0.171731  -0.304956  0  2.320009  0
S  S72  1  0.07305496  0.54264034  0.82382941  1  0  -0.336515  0  2.052955  0  0  -0.319251  0  2.348808  0  0  -0.334429  0  2.346906  0  0.123827  0  -0.169992  -0.308704  0  2.349888  0
S  S73  1  0.21844218  0.24879724  0.67623781  1  0  -0.33681  0  2.052797  0  0  -0.319582  0  2.34844  0  0  -0.334747  0  2.346557  0  0.121571  0  -0.169958  -0.309044  0  2.349513  0
S  S74  1  0.92694629  0.45736010  0.17617036  1  0  -0.336457  0  2.052992  0  0  -0.319189  0  2.348864  0  0  -0.334364  0  2.346961  0  0.123836  0  -0.169967  -0.308639  0  2.349938  0
S  S75  1  0.78155734  0.75120193  0.32376228  1  0  -0.336805  0  2.052815  0  0  -0.319578  0  2.348466  0  0  -0.334741  0  2.346583  0  0.121603  0  -0.169954  -0.309042  0  2.34954  0
N  N76  1  0.76432331  0.00753554  0.60342648  1  0  -0.273957  0  3.278228  0  0  -0.200979  0  3.585789  0  0  -0.217869  0  3.599113  0  -0.784881  0  -0.247006  -0.189743  0  3.57672  0
N  N77  1  0.90411528  0.16115817  0.89653950  1  0  -0.27269  0  3.275489  0  0  -0.199801  0  3.582962  0  0  -0.216694  0  3.59636  0  -0.79138  0  -0.246162  -0.188564  0  3.573863  0
N  N78  1  0.23567621  0.99246362  0.39657309  1  0  -0.274012  0  3.278314  0  0  -0.201055  0  3.585899  0  0  -0.217945  0  3.599224  0  -0.784895  0  -0.247041  -0.189819  0  3.576833  0
N  N79  1  0.09588655  0.83884353  0.10346035  1  0  -0.272634  0  3.275388  0  0  -0.199792  0  3.582911  0  0  -0.216686  0  3.596305  0  -0.791382  0  -0.246156  -0.188556  0  3.573814  0
N  N80  1  0.81602936  0.99142371  0.54285025  1  0  -0.225235  0  2.991596  0  0  -0.199962  0  3.271476  0  0  -0.209496  0  3.28718  0  -0.717777  0  -0.219987  -0.193491  0  3.260806  0
N  N81  1  0.94840018  0.27335307  0.95726839  1  0  -0.226114  0  2.993363  0  0  -0.200694  0  3.273086  0  0  -0.210266  0  3.288817  0  -0.704128  0  -0.220364  -0.194207  0  3.262391  0
N  N82  1  0.18397016  0.00857545  0.45714932  1  0  -0.225248  0  2.991598  0  0  -0.199965  0  3.271474  0  0  -0.209501  0  3.287179  0  -0.717768  0  -0.220003  -0.193495  0  3.260805  0
N  N83  1  0.05160050  0.72664610  0.04273181  1  0  -0.226128  0  2.993325  0  0  -0.200699  0  3.273047  0  0  -0.210269  0  3.288776  0  -0.704177  0  -0.220386  -0.194212  0  3.262357  0
N  N84  1  0.85092687  0.80959289  0.61099906  1  0  -0.088411  0  3.530757  0  0  0.006384  0  3.753678  0  0  -0.010535  0  3.778441  0  -1.241234  0  -0.23038  0.017499  0  3.736757  0
N  N85  1  0.69848764  0.23962574  0.88904158  1  0  -0.087718  0  3.52856  0  0  0.007504  0  3.751552  0  0  -0.009472  0  3.776314  0  -1.241187  0  -0.230444  0.018648  0  3.734627  0
N  N86  1  0.14907265  0.19040628  0.38900052  1  0  -0.088392  0  3.530736  0  0  0.006391  0  3.753678  0  0  -0.010527  0  3.778443  0  -1.241244  0  -0.230391  0.017507  0  3.736758  0
N  N87  1  0.30151245  0.76037470  0.11095859  1  0  -0.087671  0  3.528585  0  0  0.007525  0  3.751568  0  0  -0.009452  0  3.776329  0  -1.241191  0  -0.230463  0.018668  0  3.734647  0
N  N88  1  0.19415792  0.78228637  0.64120943  1  0  -0.096227  0  3.542287  0  0  -0.00239  0  3.767835  0  0  -0.019452  0  3.792715  0  -1.231105  0  -0.232814  0.008846  0  3.750765  0
N  N89  1  0.64115083  0.55322460  0.85870565  1  0  -0.098086  0  3.54201  0  0  -0.003774  0  3.767497  0  0  -0.020892  0  3.792385  0  -1.246734  0  -0.232629  0.007495  0  3.750431  0
N  N90  1  0.80584275  0.21771534  0.35879083  1  0  -0.096273  0  3.54236  0  0  -0.002363  0  3.767835  0  0  -0.019417  0  3.792713  0  -1.231068  0  -0.232752  0.008871  0  3.750764  0
N  N91  1  0.35884985  0.44677457  0.14129455  1  0  -0.098177  0  3.542187  0  0  -0.003892  0  3.76769  0  0  -0.021011  0  3.792577  0  -1.246743  0  -0.232681  0.007376  0  3.750625  0
N  N92  1  0.44254482  0.99467660  0.64683147  1  0  -0.280786  0  3.279363  0  0  -0.208185  0  3.591691  0  0  -0.225093  0  3.604345  0  -0.802679  0  -0.250824  -0.196954  0  3.583106  0
N  N93  1  0.84802362  0.79599543  0.85298705  1  0  -0.280753  0  3.278825  0  0  -0.207912  0  3.590858  0  0  -0.224874  0  3.603603  0  -0.81502  0  -0.25052  -0.19664  0  3.582207  0
N  N94  1  0.55745528  0.00532383  0.35316819  1  0  -0.280806  0  3.279431  0  0  -0.208232  0  3.591795  0  0  -0.225139  0  3.604449  0  -0.802688  0  -0.250869  -0.197001  0  3.583212  0
N  N95  1  0.15197706  0.20400374  0.14701316  1  0  -0.280709  0  3.27878  0  0  -0.207874  0  3.590809  0  0  -0.224836  0  3.603554  0  -0.815008  0  -0.250522  -0.196601  0  3.582157  0
N  N96  1  0.45248207  0.94307043  0.71279634  1  0  -0.227593  0  2.956058  0  0  -0.204749  0  3.238527  0  0  -0.213707  0  3.253522  0  -0.727828  0  -0.21949  -0.198717  0  3.228408  0
N  N97  1  0.73007698  0.73969190  0.78705857  1  0  -0.228476  0  2.955255  0  0  -0.205722  0  3.237733  0  0  -0.214664  0  3.252697  0  -0.717891  0  -0.21978  -0.199685  0  3.227639  0
N  N98  1  0.54751802  0.05693001  0.28720384  1  0  -0.227594  0  2.95611  0  0  -0.204745  0  3.23859  0  0  -0.213699  0  3.253581  0  -0.727821  0  -0.219476  -0.198712  0  3.228468  0
N  N99  1  0.26992428  0.26030854  0.21294120  1  0  -0.228529  0  2.955235  0  0  -0.205772  0  3.237711  0  0  -0.214714  0  3.252675  0  -0.71786  0  -0.219779  -0.199736  0  3.227619  0
N  N100  1  0.61893809  0.26202692  0.53951743  1  0  -0.597434  0  3.020394  0  0  -0.523845  0  3.335694  0  0  -0.54567  0  3.331426  0  -1.38308  0  -0.432763  -0.509122  0  3.338445  0
N  N101  1  0.22291756  0.07978267  0.96046095  1  0  -0.59729  0  3.021293  0  0  -0.52368  0  3.336721  0  0  -0.545527  0  3.332461  0  -1.385496  0  -0.432687  -0.508933  0  3.339452  0
N  N102  1  0.38106200  0.73797351  0.46048171  1  0  -0.597488  0  3.020486  0  0  -0.523902  0  3.335786  0  0  -0.545726  0  3.331516  0  -1.383128  0  -0.432782  -0.509179  0  3.338539  0
N  N103  1  0.77707850  0.92021396  0.03953926  1  0  -0.597304  0  3.021345  0  0  -0.523679  0  3.33673  0  0  -0.545527  0  3.332474  0  -1.385576  0  -0.432694  -0.508941  0  3.339475  0
N  N104  1  0.80297648  0.32226816  0.70922762  1  0  -0.604794  0  3.011999  0  0  -0.533202  0  3.326806  0  0  -0.555251  0  3.323575  0  -1.395214  0  -0.431268  -0.518263  0  3.328754  0
N  N105  1  0.11303447  0.09414991  0.79084600  1  0  -0.604346  0  3.015069  0  0  -0.532762  0  3.330007  0  0  -0.554836  0  3.32678  0  -1.380425  0  -0.430995  -0.517813  0  3.331963  0
N  N106  1  0.19702650  0.67773355  0.29077235  1  0  -0.604703  0  3.011996  0  0  -0.533098  0  3.326795  0  0  -0.55515  0  3.323573  0  -1.395216  0  -0.431233  -0.518155  0  3.328732  0
N  N107  1  0.88696736  0.90585179  0.20915386  1  0  -0.604355  0  3.015021  0  0  -0.532764  0  3.329943  0  0  -0.554846  0  3.326734  0  -1.38037  0  -0.430999  -0.517813  0  3.3319  0
