# generated using pymatgen
data_ZnSiH6C8(NF2)4
_symmetry_space_group_name_H-M   'P 1'
_cell_length_a   7.28087894
_cell_length_b   7.28074377
_cell_length_c   7.71788478
_cell_angle_alpha   85.57812989
_cell_angle_beta   85.57744654
_cell_angle_gamma   91.22192001
_symmetry_Int_Tables_number   1
_chemical_formula_structural   ZnSiH6C8(NF2)4
_chemical_formula_sum   'Zn1 Si1 H6 C8 N4 F8'
_cell_volume   406.54129224
_cell_formula_units_Z   1
loop_
 _symmetry_equiv_pos_site_id
 _symmetry_equiv_pos_as_xyz
  1  'x, y, z'
loop_
 _atom_site_type_symbol
 _atom_site_label
 _atom_site_symmetry_multiplicity
 _atom_site_fract_x
 _atom_site_fract_y
 _atom_site_fract_z
 _atom_site_occupancy
 _atom_site_pbe_bader_charge
 _atom_site_pbe_bader_spin_density
 _atom_site_pbe_cm5_charge
 _atom_site_pbe_ddec_charge
 _atom_site_pbe_ddec_spin_density
 _atom_site_pbe_ddec_sum_bond_order
 _atom_site_pbe_magmom
Zn  Zn0  1  0.50136222  0.50136268  0.50875750  1  1.345967  0  0.70165  0.782995  0  2.211585  0
Si  Si1  1  0.52312866  0.52312607  0.01085140  1  3.227293  0  0.262942  1.719055  0  3.932145  0
H  H2  1  0.84839189  0.49267614  0.22614361  1  0.21614  0  0.128723  0.12746  0  1.015705  0
H  H3  1  0.80263632  0.48477501  0.77140644  1  0.241932  0  0.124398  0.140101  0  1.06371  0
H  H4  1  0.19287696  0.49099027  0.22907984  1  0.211673  0  0.125815  0.124455  0  1.041708  0
H  H5  1  0.49268317  0.84838988  0.22614543  1  0.216252  0  0.128707  0.12745  0  1.015753  0
H  H6  1  0.48478242  0.80264398  0.77141286  1  0.241886  0  0.124417  0.14014  0  1.063662  0
H  H7  1  0.49099863  0.19288060  0.22908681  1  0.211777  0  0.125784  0.124407  0  1.041779  0
C  C8  1  0.07672269  0.48922028  0.64494007  1  1.048124  0  0.249391  0.405514  0  4.061099  0
C  C9  1  0.91399952  0.49255434  0.34837994  1  0.481386  0  0.058064  0.038333  0  3.840518  0
C  C10  1  0.88515134  0.48861812  0.64779149  1  0.633385  0  0.055926  -0.058376  0  3.871911  0
C  C11  1  0.10533349  0.49213224  0.34999736  1  0.410516  0  0.068622  0.091142  0  3.824646  0
C  C12  1  0.48921326  0.07672816  0.64495079  1  1.048237  0  0.249411  0.405532  0  4.06116  0
C  C13  1  0.49255334  0.91399373  0.34838775  1  0.48153  0  0.058112  0.038386  0  3.840473  0
C  C14  1  0.48861946  0.88515415  0.64779616  1  0.633371  0  0.055888  -0.058424  0  3.872004  0
C  C15  1  0.49213290  0.10533497  0.35000289  1  0.410507  0  0.068643  0.091219  0  3.824656  0
N  N16  1  0.18918908  0.49121698  0.50096956  1  -1.23164  0  -0.29616  -0.306596  0  3.449983  0
N  N17  1  0.80413316  0.49163423  0.49793741  1  -1.211379  0  -0.289567  -0.158895  0  3.509856  0
N  N18  1  0.49120816  0.18919556  0.50098092  1  -1.231697  0  -0.296169  -0.306628  0  3.449944  0
N  N19  1  0.49163486  0.80412904  0.49794838  1  -1.211496  0  -0.289587  -0.158944  0  3.509978  0
F  F20  1  0.53328992  0.53328096  0.24071135  1  -0.830429  0  -0.205598  -0.505513  0  1.349397  0
F  F21  1  0.51211123  0.51211241  0.78128393  1  -0.820087  0  -0.209335  -0.515841  0  1.361307  0
F  F22  1  0.68749389  0.36200627  0.01388664  1  -0.825625  0  -0.227896  -0.525413  0  1.122473  0
F  F23  1  0.36200908  0.68749706  0.01388695  1  -0.825616  0  -0.227903  -0.525439  0  1.122441  0
F  F24  1  0.68970495  0.68970663  0.97235598  1  -0.838114  0  -0.240573  -0.534018  0  1.081467  0
F  F25  1  0.35708923  0.35708389  0.05236523  1  -0.827466  0  -0.217605  -0.517923  0  1.185916  0
F  F26  1  0.15137944  0.48731209  0.79660864  1  -0.603119  0  -0.043055  -0.092097  0  1.452274  0
F  F27  1  0.48730550  0.15138470  0.79661718  1  -0.60331  0  -0.043044  -0.092078  0  1.45231  0
