# generated using pymatgen
data_Zn2H12C42N12ClO28
_symmetry_space_group_name_H-M   'P 1'
_cell_length_a   16.58396461
_cell_length_b   17.89256392
_cell_length_c   28.84712643
_cell_angle_alpha   90.80971804
_cell_angle_beta   89.90651071
_cell_angle_gamma   90.02189170
_symmetry_Int_Tables_number   1
_chemical_formula_structural   Zn2H12C42N12ClO28
_chemical_formula_sum   'Zn4 H24 C84 N24 Cl2 O56'
_cell_volume   8558.93092165
_cell_formula_units_Z   2
loop_
 _symmetry_equiv_pos_site_id
 _symmetry_equiv_pos_as_xyz
  1  'x, y, z'
loop_
 _atom_site_type_symbol
 _atom_site_label
 _atom_site_symmetry_multiplicity
 _atom_site_fract_x
 _atom_site_fract_y
 _atom_site_fract_z
 _atom_site_occupancy
 _atom_site_pbe_bader_charge
 _atom_site_pbe_bader_spin_density
 _atom_site_pbe_cm5_charge
 _atom_site_pbe_ddec_charge
 _atom_site_pbe_ddec_spin_density
 _atom_site_pbe_ddec_sum_bond_order
 _atom_site_pbe_magmom
Zn  Zn0  1  0.58235554  0.50097414  0.49895283  1  1.296324  0  0.6752  0.818721  0  2.424414  0
Zn  Zn1  1  0.41466495  0.49896484  0.50161516  1  1.280094  0  0.672711  0.819616  0  2.419067  0
Zn  Zn2  1  0.41604270  0.50173617  0.87947964  1  1.270203  0  0.67112  0.817902  0  2.422307  0
Zn  Zn3  1  0.58407687  0.50444246  0.88107583  1  1.269219  0  0.67282  0.814949  0  2.452698  0
H  H4  1  0.28504950  0.59500536  0.54342769  1  0.204754  0  0.146781  0.13436  0  0.969327  0
H  H5  1  0.28406526  0.39729409  0.46551409  1  0.189175  0  0.14728  0.134503  0  0.9644  0
H  H6  1  0.71081557  0.55200513  0.56451061  1  0.202562  0  0.146905  0.13964  0  0.973369  0
H  H7  1  0.71421146  0.45242088  0.43328021  1  0.207209  0  0.145301  0.133147  0  0.97527  0
H  H8  1  0.61668923  0.73414713  0.47323410  1  0.15683  0  0.126201  0.143824  0  0.980706  0
H  H9  1  0.37073191  0.74151669  0.52160208  1  0.142973  0  0.123125  0.138486  0  0.989692  0
H  H10  1  0.62326440  0.26582031  0.53121766  1  0.164256  0  0.124789  0.140716  0  0.988631  0
H  H11  1  0.37696893  0.25706143  0.48390171  1  0.156476  0  0.124318  0.138821  0  0.987092  0
H  H12  1  0.58025566  0.39641535  0.77625785  1  0.059045  0  0.097967  0.107873  0  1.029653  0
H  H13  1  0.63797657  0.28968520  0.73276876  1  0.0657  0  0.106091  0.104357  0  0.985966  0
H  H14  1  0.57913894  0.39329738  0.60329018  1  0.059477  0  0.096791  0.106703  0  1.03546  0
H  H15  1  0.63800821  0.28814874  0.64623379  1  0.064493  0  0.103862  0.102281  0  0.989989  0
H  H16  1  0.37405482  0.47519764  0.02874179  1  0.132131  0  0.124133  0.138733  0  0.988681  0
H  H17  1  0.63054173  0.51523114  0.02765604  1  0.16837  0  0.126191  0.143118  0  0.981398  0
H  H18  1  0.37843608  0.53105377  0.35397359  1  0.178124  0  0.126655  0.144027  0  0.979549  0
H  H19  1  0.62492007  0.45432383  0.35139234  1  0.170253  0  0.123612  0.137788  0  0.990184  0
H  H20  1  0.71287343  0.59538434  0.83547071  1  0.191611  0  0.14899  0.137202  0  0.956141  0
H  H21  1  0.71586477  0.41337071  0.92394982  1  0.176384  0  0.148003  0.134222  0  0.958455  0
H  H22  1  0.28897984  0.55367708  0.81349310  1  0.190964  0  0.146938  0.135294  0  0.967491  0
H  H23  1  0.28304872  0.44593894  0.94053655  1  0.182528  0  0.147616  0.134521  0  0.962242  0
H  H24  1  0.36554209  0.74725775  0.89548502  1  0.175991  0  0.127092  0.144575  0  0.974418  0
H  H25  1  0.62122345  0.73485017  0.86932330  1  0.178008  0  0.122708  0.137703  0  0.991466  0
H  H26  1  0.37351293  0.26104178  0.85758885  1  0.167474  0  0.126747  0.143634  0  0.978218  0
H  H27  1  0.63018921  0.26678592  0.88095286  1  0.126191  0  0.122177  0.137164  0  0.990611  0
C  C28  1  0.49026634  0.64436320  0.49515218  1  1.5544  0  0.217761  0.593386  0  4.171954  0
C  C29  1  0.50731211  0.51507687  0.58942462  1  1.552714  0  0.217879  0.614929  0  4.191515  0
C  C30  1  0.49697252  0.35509806  0.50654585  1  1.568537  0  0.219903  0.594367  0  4.169563  0
C  C31  1  0.50105627  0.48918477  0.41064797  1  1.633991  0  0.219452  0.594706  0  4.171041  0
C  C32  1  0.49168621  0.64812999  0.88706099  1  1.577716  0  0.217692  0.593232  0  4.176487  0
C  C33  1  0.50804798  0.51906113  0.79085217  1  1.617628  0  0.218458  0.61521  0  4.186439  0
C  C34  1  0.49927370  0.35742233  0.87081976  1  1.590948  0  0.218631  0.591271  0  4.177194  0
C  C35  1  0.50251742  0.49102035  0.97018200  1  1.557585  0  0.220476  0.596634  0  4.166785  0
C  C36  1  0.24992677  0.55140763  0.52608564  1  0.514275  0  0.090386  0.081528  0  3.850632  0
C  C37  1  0.16630274  0.55360732  0.52623588  1  0.274825  0  0.106503  0.006873  0  3.834874  0
C  C38  1  0.11985197  0.49692810  0.50438961  1  0.13657  0  0.053739  0.101266  0  4.028208  0
C  C39  1  0.16577179  0.43931499  0.48303914  1  0.246261  0  0.106756  0.007171  0  3.83785  0
C  C40  1  0.24937093  0.44125360  0.48282951  1  0.535047  0  0.088986  0.077414  0  3.85919  0
C  C41  1  0.03532432  0.49791971  0.50356570  1  0.219879  0  0.009794  -0.005826  0  4.008597  0
C  C42  1  0.96192504  0.49863648  0.50187672  1  -0.185052  0  0.00916  -0.006878  0  4.007805  0
C  C43  1  0.87744357  0.49995227  0.50069341  1  0.144871  0  0.053965  0.10151  0  4.026791  0
C  C44  1  0.83028253  0.52820140  0.53791603  1  0.235459  0  0.10678  0.01008  0  3.836415  0
C  C45  1  0.74677735  0.52966920  0.53581489  1  0.542216  0  0.088369  0.075791  0  3.847356  0
C  C46  1  0.74857307  0.47418547  0.46268751  1  0.594403  0  0.087538  0.075254  0  3.858687  0
C  C47  1  0.83220281  0.47322459  0.46235511  1  0.214067  0  0.106581  0.007251  0  3.837128  0
C  C48  1  0.49326317  0.72800245  0.49700554  1  0.050132  0  -0.003461  -0.002272  0  3.945576  0
C  C49  1  0.56385580  0.76543956  0.48465240  1  0.066378  0  -0.054385  -0.109062  0  3.914369  0
C  C50  1  0.56667350  0.84280826  0.48657842  1  0.218474  0  0.095415  0.043936  0  3.857098  0
C  C51  1  0.50111109  0.88722656  0.50253862  1  0.133186  0  0.035536  0.070496  0  4.033681  0
C  C52  1  0.43129242  0.84655123  0.51550251  1  0.254728  0  0.094658  0.041732  0  3.855482  0
C  C53  1  0.42651590  0.76933266  0.51203172  1  0.035409  0  -0.057427  -0.112962  0  3.926646  0
C  C54  1  0.50483647  0.96545652  0.50504542  1  -0.003241  0  -0.005169  -0.017538  0  4.040515  0
C  C55  1  0.50767530  0.03357921  0.50659342  1  -0.070916  0  -0.006246  -0.022173  0  4.043487  0
C  C56  1  0.50567595  0.11188778  0.50715298  1  0.135598  0  0.036343  0.072327  0  4.032652  0
C  C57  1  0.57169784  0.15694804  0.52168472  1  0.214278  0  0.093414  0.04012  0  3.855703  0
C  C58  1  0.56987338  0.23441318  0.52094689  1  0.071604  0  -0.057208  -0.11436  0  3.924682  0
C  C59  1  0.49983110  0.27144630  0.50743484  1  0.035391  0  -0.003957  -0.002324  0  3.945445  0
C  C60  1  0.43246889  0.22948012  0.49411698  1  0.056392  0  -0.055688  -0.110961  0  3.922087  0
C  C61  1  0.43628041  0.15214977  0.49310308  1  0.137099  0  0.09615  0.044358  0  3.855087  0
C  C62  1  0.51076448  0.52012030  0.73886570  1  0.02392  0  -0.01619  -0.120589  0  3.941414  0
C  C63  1  0.54534678  0.45767637  0.71485969  1  0.106799  0  -0.001575  0.069345  0  3.963389  0
C  C64  1  0.47963181  0.57994675  0.71488834  1  0.132106  0  0.009804  0.064278  0  4.048254  0
C  C65  1  0.57921597  0.39596160  0.73848513  1  -0.069307  0  -0.093454  -0.130768  0  3.966524  0
C  C66  1  0.61182999  0.33636432  0.71411498  1  -0.080432  0  -0.091224  -0.081782  0  4.038338  0
C  C67  1  0.51061879  0.51809748  0.64142362  1  -0.012957  0  -0.014277  -0.116226  0  3.941626  0
C  C68  1  0.47961380  0.57890535  0.66554689  1  0.107278  0  0.009734  0.064639  0  4.046015  0
C  C69  1  0.54516094  0.45667363  0.66518378  1  -0.069704  0  -0.002455  0.067082  0  3.968873  0
C  C70  1  0.57894484  0.39422930  0.64110656  1  -0.028037  0  -0.094719  -0.133725  0  3.97061  0
C  C71  1  0.61177535  0.33549986  0.66510149  1  0.068238  0  -0.092456  -0.083259  0  4.041192  0
C  C72  1  0.50234536  0.49417130  0.02208213  1  0.075989  0  -0.003101  -0.000944  0  3.948183  0
C  C73  1  0.43065599  0.48504078  0.04680511  1  0.090877  0  -0.057228  -0.1159  0  3.929086  0
C  C74  1  0.43137430  0.48748574  0.09483515  1  0.151036  0  0.095246  0.044626  0  3.85912  0
C  C75  1  0.50212216  0.50292642  0.12085117  1  0.10809  0  0.035447  0.070543  0  4.038295  0
C  C76  1  0.57281199  0.51456138  0.09411611  1  0.192376  0  0.09566  0.044412  0  3.857806  0
C  C77  1  0.57395048  0.50813377  0.04620599  1  0.045992  0  -0.055142  -0.112668  0  3.917426  0
C  C78  1  0.50248141  0.50529959  0.16944383  1  0.169196  0  -0.008347  -0.024716  0  4.05066  0
C  C79  1  0.50335497  0.50468491  0.21167314  1  -0.245911  0  -0.008093  -0.025279  0  4.050732  0
C  C80  1  0.50312909  0.50135674  0.26017960  1  0.131457  0  0.034812  0.071429  0  4.037141  0
C  C81  1  0.43501325  0.52212041  0.28724987  1  0.213446  0  0.095581  0.044205  0  3.85734  0
C  C82  1  0.43302311  0.51603994  0.33505611  1  0.106772  0  -0.05507  -0.111732  0  3.91541  0
C  C83  1  0.50147331  0.49201560  0.35879248  1  -0.085978  0  -0.003927  -0.002422  0  3.946716  0
C  C84  1  0.57070555  0.47269561  0.33371839  1  0.03955  0  -0.056776  -0.114516  0  3.927726  0
C  C85  1  0.57052473  0.47599595  0.28575301  1  0.207102  0  0.095206  0.043118  0  3.860885  0
C  C86  1  0.74839400  0.55528977  0.85488708  1  0.606078  0  0.090258  0.079409  0  3.851462  0
C  C87  1  0.83199370  0.55663663  0.85334254  1  0.237958  0  0.10747  0.008904  0  3.836195  0
C  C88  1  0.87880264  0.50258539  0.87640159  1  0.194165  0  0.053333  0.101206  0  4.028475  0
C  C89  1  0.83342258  0.44941053  0.90124255  1  0.169965  0  0.106742  0.009407  0  3.83638  0
C  C90  1  0.74996283  0.45315710  0.90342426  1  0.638973  0  0.088223  0.074843  0  3.862029  0
C  C91  1  0.96335549  0.50196353  0.87498124  1  -0.175527  0  0.007432  -0.010736  0  4.012606  0
C  C92  1  0.03677035  0.50182931  0.87455269  1  0.054862  0  0.007439  -0.009023  0  4.011254  0
C  C93  1  0.12133587  0.50111846  0.87525614  1  0.161671  0  0.053153  0.099929  0  4.028025  0
C  C94  1  0.16910892  0.53006447  0.83901961  1  0.243674  0  0.106942  0.010479  0  3.834721  0
C  C95  1  0.25269893  0.52999217  0.84124308  1  0.57706  0  0.090359  0.079202  0  3.84436  0
C  C96  1  0.24942286  0.47031597  0.91205477  1  0.546772  0  0.089626  0.075145  0  3.860191  0
C  C97  1  0.16580585  0.47134096  0.91250782  1  0.300254  0  0.107732  0.009918  0  3.837388  0
C  C98  1  0.49333651  0.73149013  0.88341174  1  0.050204  0  -0.002899  -0.000362  0  3.948483  0
C  C99  1  0.42324118  0.77405408  0.88876692  1  0.039982  0  -0.055264  -0.113353  0  3.912766  0
C  C100  1  0.42753375  0.85131298  0.88629121  1  0.142669  0  0.096103  0.045377  0  3.858643  0
C  C101  1  0.49977927  0.88997696  0.87555176  1  0.163131  0  0.03347  0.068079  0  4.040369  0
C  C102  1  0.56834739  0.84392838  0.86832259  1  0.202616  0  0.094901  0.045088  0  3.862763  0
C  C103  1  0.56615593  0.76718479  0.87358709  1  0.035871  0  -0.057863  -0.11497  0  3.930002  0
C  C104  1  0.50312777  0.96810130  0.87266609  1  -0.257825  0  -0.010206  -0.027218  0  4.055916  0
C  C105  1  0.50586956  0.03604513  0.87101212  1  0.145518  0  -0.012036  -0.032427  0  4.058572  0
C  C106  1  0.50535073  0.11435019  0.86974831  1  0.12764  0  0.034296  0.070065  0  4.040452  0
C  C107  1  0.43369698  0.15526333  0.86125850  1  0.155889  0  0.096308  0.046189  0  3.858852  0
C  C108  1  0.43081956  0.23263362  0.86239050  1  0.120672  0  -0.055619  -0.113434  0  3.917496  0
C  C109  1  0.50162261  0.27371790  0.86929974  1  -0.008963  0  -0.003854  -0.000975  0  3.947069  0
C  C110  1  0.57426368  0.23592473  0.87595868  1  0.106863  0  -0.059468  -0.119298  0  3.931326  0
C  C111  1  0.57521059  0.15851528  0.87743793  1  0.177017  0  0.094326  0.04337  0  3.862595  0
N  N112  1  0.29047127  0.49648362  0.50409281  1  -1.212272  0  -0.3027  -0.16195  0  3.490471  0
N  N113  1  0.70683112  0.50237605  0.49880410  1  -1.228328  0  -0.303149  -0.163402  0  3.490536  0
N  N114  1  0.70844729  0.50494392  0.88021555  1  -1.210118  0  -0.303428  -0.161353  0  3.493983  0
N  N115  1  0.29178831  0.49990928  0.87716544  1  -1.225346  0  -0.302384  -0.158557  0  3.492367  0
N  N116  1  0.12629587  0.37489103  0.45984851  1  0.418938  0  0.068479  0.518207  0  4.219613  0
N  N117  1  0.12732367  0.61766477  0.55015176  1  0.431839  0  0.0686  0.51796  0  4.217031  0
N  N118  1  0.87245314  0.44263110  0.42047045  1  0.407286  0  0.069103  0.517886  0  4.219354  0
N  N119  1  0.86827268  0.55709203  0.58083556  1  0.419991  0  0.067557  0.516547  0  4.222862  0
N  N120  1  0.35946286  0.88613205  0.53377149  1  0.43453  0  0.063483  0.520368  0  4.20506  0
N  N121  1  0.64227132  0.87848441  0.47108301  1  0.398403  0  0.062584  0.519166  0  4.205542  0
N  N122  1  0.36372042  0.11224887  0.47620184  1  0.3861  0  0.063124  0.520331  0  4.206269  0
N  N123  1  0.64654998  0.12184837  0.53862296  1  0.396809  0  0.06172  0.516511  0  4.204844  0
N  N124  1  0.64944667  0.53523468  0.11713273  1  0.410743  0  0.06315  0.518789  0  4.205422  0
N  N125  1  0.35393275  0.47300893  0.11853132  1  0.419001  0  0.062839  0.518487  0  4.205075  0
N  N126  1  0.64496761  0.45180858  0.26159215  1  0.391087  0  0.063843  0.520087  0  4.205803  0
N  N127  1  0.36224337  0.55251220  0.26474642  1  0.408712  0  0.062622  0.518835  0  4.208424  0
N  N128  1  0.87311420  0.38745057  0.92573570  1  0.41699  0  0.068677  0.517163  0  4.221905  0
N  N129  1  0.87054848  0.61656103  0.82637311  1  0.431891  0  0.067373  0.514994  0  4.22356  0
N  N130  1  0.12509515  0.44016357  0.95355220  1  0.415682  0  0.068239  0.518463  0  4.217247  0
N  N131  1  0.13158314  0.56162387  0.79720766  1  0.428457  0  0.067772  0.516863  0  4.218923  0
N  N132  1  0.64631081  0.87662887  0.85410531  1  0.401152  0  0.063912  0.5211  0  4.204717  0
N  N133  1  0.35235029  0.89337645  0.89563997  1  0.411215  0  0.06232  0.5179  0  4.210809  0
N  N134  1  0.65323774  0.12289796  0.88824868  1  0.412111  0  0.063016  0.520303  0  4.203801  0
N  N135  1  0.35755694  0.11550175  0.85065915  1  0.398708  0  0.06227  0.518343  0  4.210174  0
Cl  Cl136  1  0.44109815  0.65375874  0.63575125  1  -0.180629  0  -0.003982  -0.053644  0  1.528421  0
Cl  Cl137  1  0.44156074  0.65641608  0.74466931  1  -0.174013  0  -0.002901  -0.052994  0  1.523277  0
O  O138  1  0.55527365  0.61071240  0.48414447  1  -1.167576  0  -0.315463  -0.543301  0  2.308296  0
O  O139  1  0.42322514  0.61370376  0.50503672  1  -1.158879  0  -0.313207  -0.544005  0  2.326197  0
O  O140  1  0.44031256  0.49708780  0.57133308  1  -1.147937  0  -0.310764  -0.537543  0  2.305202  0
O  O141  1  0.57269100  0.52847336  0.56791766  1  -1.160439  0  -0.310353  -0.543307  0  2.324024  0
O  O142  1  0.42935598  0.38474776  0.49692667  1  -1.161573  0  -0.312688  -0.540871  0  2.311887  0
O  O143  1  0.56234718  0.38982471  0.51529764  1  -1.171298  0  -0.312888  -0.5468  0  2.319993  0
O  O144  1  0.56787328  0.47403829  0.43028667  1  -1.169061  0  -0.315615  -0.544567  0  2.31591  0
O  O145  1  0.43452793  0.50303412  0.43092137  1  -1.15839  0  -0.310823  -0.535876  0  2.30961  0
O  O146  1  0.42314618  0.61635771  0.88520052  1  -1.154071  0  -0.314278  -0.536719  0  2.299041  0
O  O147  1  0.55973612  0.61607255  0.89131619  1  -1.163207  0  -0.3164  -0.544853  0  2.321119  0
O  O148  1  0.57526711  0.52490242  0.81167046  1  -1.159594  0  -0.311314  -0.539963  0  2.323543  0
O  O149  1  0.43947939  0.50970881  0.80961823  1  -1.1575  0  -0.311825  -0.546646  0  2.325347  0
O  O150  1  0.56687021  0.39134406  0.86937023  1  -1.167422  0  -0.315685  -0.551854  0  2.321174  0
O  O151  1  0.43010422  0.38758293  0.87377756  1  -1.14403  0  -0.311659  -0.531599  0  2.306331  0
O  O152  1  0.43427103  0.49267894  0.95004340  1  -1.156591  0  -0.312397  -0.544229  0  2.311418  0
O  O153  1  0.57123307  0.48783610  0.95053910  1  -1.159339  0  -0.314137  -0.538094  0  2.318012  0
O  O154  1  0.06029186  0.35522478  0.47542622  1  -0.422142  0  -0.103789  -0.29422  0  1.890336  0
O  O155  1  0.16328162  0.34586672  0.42704652  1  -0.39488  0  -0.104382  -0.293595  0  1.848065  0
O  O156  1  0.06186106  0.63868454  0.53466050  1  -0.418819  0  -0.102849  -0.292234  0  1.891869  0
O  O157  1  0.16419259  0.64488142  0.58351628  1  -0.411401  0  -0.103994  -0.293656  0  1.848467  0
O  O158  1  0.93985382  0.46782800  0.41117322  1  -0.403849  0  -0.103336  -0.29317  0  1.89178  0
O  O159  1  0.83475123  0.39463129  0.39822052  1  -0.407572  0  -0.103525  -0.292276  0  1.850115  0
O  O160  1  0.93113101  0.52625741  0.59331771  1  -0.416747  0  -0.108526  -0.300961  0  1.889898  0
O  O161  1  0.83309780  0.60918580  0.60079476  1  -0.391809  0  -0.102373  -0.289361  0  1.844792  0
O  O162  1  0.37052033  0.94620840  0.55456150  1  -0.442375  0  -0.118582  -0.312492  0  1.901581  0
O  O163  1  0.29335310  0.85551475  0.52730298  1  -0.452181  0  -0.131022  -0.323617  0  1.853219  0
O  O164  1  0.63699616  0.94060602  0.45307349  1  -0.41836  0  -0.116691  -0.309765  0  1.897071  0
O  O165  1  0.70533840  0.84274311  0.47685521  1  -0.433363  0  -0.132164  -0.325897  0  1.849256  0
O  O166  1  0.37406753  0.05349101  0.45393039  1  -0.427402  0  -0.117209  -0.310641  0  1.897198  0
O  O167  1  0.29782804  0.14178162  0.48506115  1  -0.424186  0  -0.131082  -0.32468  0  1.849918  0
O  O168  1  0.64148802  0.05773590  0.55385764  1  -0.421307  0  -0.11448  -0.306017  0  1.904977  0
O  O169  1  0.70906294  0.15972244  0.53681117  1  -0.441342  0  -0.135569  -0.330755  0  1.855598  0
O  O170  1  0.64496059  0.57345426  0.15310255  1  -0.438057  0  -0.117322  -0.310382  0  1.896157  0
O  O171  1  0.71238979  0.51386065  0.09801053  1  -0.427665  0  -0.128841  -0.321087  0  1.850072  0
O  O172  1  0.35650316  0.44134706  0.15630627  1  -0.43412  0  -0.115137  -0.307115  0  1.899839  0
O  O173  1  0.29203067  0.49305345  0.09819074  1  -0.426438  0  -0.131002  -0.32399  0  1.849504  0
O  O174  1  0.63755819  0.42090414  0.22323796  1  -0.430905  0  -0.116605  -0.308838  0  1.89827  0
O  O175  1  0.70933213  0.46377931  0.28213725  1  -0.425614  0  -0.130463  -0.323597  0  1.853049  0
O  O176  1  0.37243574  0.59052904  0.22974892  1  -0.427986  0  -0.117182  -0.310661  0  1.897569  0
O  O177  1  0.29665426  0.53855182  0.28327985  1  -0.431232  0  -0.129347  -0.321725  0  1.849838  0
O  O178  1  0.93635631  0.36301886  0.90867970  1  -0.41525  0  -0.104224  -0.294545  0  1.896066  0
O  O179  1  0.83869870  0.36488640  0.96086900  1  -0.400691  0  -0.102762  -0.291364  0  1.847556  0
O  O180  1  0.93514687  0.64141490  0.84121840  1  -0.432865  0  -0.101101  -0.289656  0  1.891304  0
O  O181  1  0.83399038  0.63684974  0.79146451  1  -0.396131  0  -0.103245  -0.291416  0  1.844621  0
O  O182  1  0.06147677  0.47021286  0.96598875  1  -0.405625  0  -0.102796  -0.293614  0  1.892433  0
O  O183  1  0.15919571  0.38702424  0.97210167  1  -0.406458  0  -0.103436  -0.292454  0  1.842148  0
O  O184  1  0.06728611  0.53337167  0.78425085  1  -0.412179  0  -0.107955  -0.2993  0  1.891338  0
O  O185  1  0.16847986  0.61311162  0.77856133  1  -0.403899  0  -0.102517  -0.291083  0  1.848079  0
O  O186  1  0.64417162  0.93260106  0.82952655  1  -0.40411  0  -0.115998  -0.308243  0  1.901625  0
O  O187  1  0.70802712  0.84420249  0.86723200  1  -0.439945  0  -0.133325  -0.326818  0  1.84927  0
O  O188  1  0.35832564  0.95326408  0.91727178  1  -0.420445  0  -0.117572  -0.310396  0  1.900104  0
O  O189  1  0.28895246  0.86440780  0.88164014  1  -0.438678  0  -0.126348  -0.317773  0  1.847712  0
O  O190  1  0.65153306  0.06412997  0.91020361  1  -0.424126  0  -0.113174  -0.303971  0  1.901055  0
O  O191  1  0.71475080  0.15574375  0.87498911  1  -0.445668  0  -0.135547  -0.330229  0  1.848187  0
O  O192  1  0.36205150  0.05863457  0.82595808  1  -0.426401  0  -0.117549  -0.310521  0  1.897157  0
O  O193  1  0.29500046  0.14336892  0.86672154  1  -0.432564  0  -0.126895  -0.318394  0  1.847986  0
