# generated using pymatgen
data_FeH11C17N3O4
_symmetry_space_group_name_H-M   'P 1'
_cell_length_a   8.61441933
_cell_length_b   8.91312055
_cell_length_c   11.07514249
_cell_angle_alpha   76.58913607
_cell_angle_beta   80.82074474
_cell_angle_gamma   81.04217151
_symmetry_Int_Tables_number   1
_chemical_formula_structural   FeH11C17N3O4
_chemical_formula_sum   'Fe2 H22 C34 N6 O8'
_cell_volume   810.32047199
_cell_formula_units_Z   2
loop_
 _symmetry_equiv_pos_site_id
 _symmetry_equiv_pos_as_xyz
  1  'x, y, z'
loop_
 _atom_site_type_symbol
 _atom_site_label
 _atom_site_symmetry_multiplicity
 _atom_site_fract_x
 _atom_site_fract_y
 _atom_site_fract_z
 _atom_site_occupancy
 _atom_site_pbe_bader_spin_density
 _atom_site_pbe_cm5_charge
 _atom_site_pbe_ddec_charge
 _atom_site_pbe_ddec_spin_density
 _atom_site_pbe_ddec_sum_bond_order
 _atom_site_pbe_magmom
Fe  Fe0  1  0.18130725  0.29693073  0.07307027  1  0  0.688026  0.562848  0  3.196477  0
Fe  Fe1  1  0.81559830  0.70561663  0.92999956  1  0  0.688313  0.564872  0  3.196226  0
H  H2  1  0.59003566  0.88732501  0.23435584  1  0  0.104829  0.109312  0  1.048688  0
H  H3  1  0.41600372  0.10650271  0.74641956  1  0  0.104675  0.111284  0  1.040552  0
H  H4  1  0.81446407  0.05827835  0.18669516  1  0  0.109436  0.112953  0  1.021175  0
H  H5  1  0.19177249  0.93569389  0.79578688  1  0  0.109647  0.113004  0  1.019194  0
H  H6  1  0.49863189  0.41624009  0.98653157  1  0  0.119717  0.080887  0  1.086812  0
H  H7  1  0.49221563  0.59476579  0.02469646  1  0  0.120587  0.083958  0  1.072911  0
H  H8  1  0.99009143  0.16676768  0.93339282  1  0  0.125796  0.104874  0  0.998674  0
H  H9  1  0.01082289  0.83197279  0.06961670  1  0  0.126689  0.105187  0  0.994978  0
H  H10  1  0.95286520  0.19306757  0.71681844  1  0  0.105578  0.11826  0  1.061003  0
H  H11  1  0.04962626  0.80444195  0.28591810  1  0  0.106138  0.11861  0  1.055932  0
H  H12  1  0.36150082  0.44882478  0.61086785  1  0  0.107681  0.111235  0  1.008036  0
H  H13  1  0.64301297  0.54608828  0.39286415  1  0  0.107915  0.111575  0  1.006916  0
H  H14  1  0.37117010  0.42447525  0.83397070  1  0  0.119548  0.085484  0  1.017363  0
H  H15  1  0.63069714  0.57295735  0.16988668  1  0  0.119917  0.086119  0  1.015715  0
H  H16  1  0.00887433  0.13544947  0.53851948  1  0  0.109095  0.117275  0  1.013954  0
H  H17  1  0.98957656  0.86514149  0.46425168  1  0  0.108968  0.116537  0  1.013946  0
H  H18  1  0.02491631  0.13520800  0.31247493  1  0  0.12092  0.09525  0  1.015505  0
H  H19  1  0.96993639  0.86847528  0.69001161  1  0  0.121148  0.094846  0  1.020248  0
H  H20  1  0.29167458  0.50329948  0.21062640  1  0  0.122304  0.103671  0  1.021208  0
H  H21  1  0.70635657  0.49808012  0.79255625  1  0  0.122578  0.103175  0  1.021239  0
H  H22  1  0.28466364  0.52349585  0.42867902  1  0  0.110516  0.119824  0  0.999651  0
H  H23  1  0.71918371  0.47311545  0.57512122  1  0  0.110718  0.120151  0  1.00094  0
C  C24  1  0.42980426  0.06703770  0.14286959  1  0  0.103294  0.082887  0  3.922376  0
C  C25  1  0.57033438  0.93355543  0.85128803  1  0  0.103066  0.084154  0  3.928167  0
C  C26  1  0.57672288  0.00679133  0.18171409  1  0  -0.075963  -0.114787  0  3.946084  0
C  C27  1  0.42663095  0.99033675  0.80541641  1  0  -0.076726  -0.119424  0  3.950999  0
C  C28  1  0.69914613  0.09968005  0.15489141  1  0  -0.065773  -0.052025  0  3.913886  0
C  C29  1  0.30397291  0.89771897  0.83343062  1  0  -0.067727  -0.052876  0  3.920305  0
C  C30  1  0.67251218  0.25004927  0.08267450  1  0  -0.008801  -0.065639  0  3.958991  0
C  C31  1  0.32582885  0.75255219  0.91462963  1  0  -0.008703  -0.065161  0  3.951262  0
C  C32  1  0.52344232  0.30157285  0.04379522  1  0  0.049389  0.064638  0  3.899878  0
C  C33  1  0.47169078  0.70481018  0.95996334  1  0  0.051535  0.06835  0  3.892093  0
C  C34  1  0.29130459  0.97575448  0.16676277  1  0  0.197129  0.516049  0  4.251553  0
C  C35  1  0.70884706  0.02477700  0.82786736  1  0  0.195678  0.512533  0  4.254169  0
C  C36  1  0.79587763  0.36000914  0.05342787  1  0  0.218955  0.554468  0  4.214404  0
C  C37  1  0.20137696  0.64336375  0.94650235  1  0  0.218002  0.550558  0  4.217852  0
C  C38  1  0.06721002  0.23273620  0.85951207  1  0  0.051455  0.098898  0  3.882318  0
C  C39  1  0.93418673  0.76546681  0.14359708  1  0  0.05127  0.100593  0  3.876196  0
C  C40  1  0.05135040  0.24420789  0.73517917  1  0  -0.080487  -0.166509  0  3.935114  0
C  C41  1  0.95107506  0.75314210  0.26790085  1  0  -0.080557  -0.16717  0  3.930155  0
C  C42  1  0.15634893  0.32228089  0.63941381  1  0  0.002782  0.085241  0  3.993687  0
C  C43  1  0.84651338  0.67473580  0.36388709  1  0  0.003247  0.088334  0  3.994625  0
C  C44  1  0.27246499  0.38930350  0.67809173  1  0  -0.082699  -0.170338  0  3.9616  0
C  C45  1  0.73096966  0.60690184  0.32540356  1  0  -0.082178  -0.170489  0  3.958856  0
C  C46  1  0.27970689  0.37534618  0.80407064  1  0  0.044096  0.089459  0  3.935262  0
C  C47  1  0.72239383  0.62205279  0.19944844  1  0  0.043269  0.089211  0  3.933427  0
C  C48  1  0.07382466  0.21947156  0.46954306  1  0  -0.0857  -0.176347  0  3.947373  0
C  C49  1  0.92533321  0.78071480  0.53334457  1  0  -0.083714  -0.173572  0  3.945657  0
C  C50  1  0.08214679  0.21721692  0.34399366  1  0  0.045674  0.08456  0  3.924679  0
C  C51  1  0.91471597  0.78488116  0.65871637  1  0  0.043546  0.081303  0  3.923584  0
C  C52  1  0.23377828  0.42137182  0.28641528  1  0  0.045877  0.088632  0  3.90431  0
C  C53  1  0.76511658  0.57924120  0.71666293  1  0  0.045353  0.089689  0  3.900859  0
C  C54  1  0.22917574  0.43090938  0.40991749  1  0  -0.083711  -0.176693  0  3.958916  0
C  C55  1  0.77259157  0.56733515  0.59335643  1  0  -0.083479  -0.177119  0  3.955733  0
C  C56  1  0.15161080  0.32568387  0.50690283  1  0  0.005779  0.096441  0  3.998558  0
C  C57  1  0.85013301  0.67242825  0.49628722  1  0  0.005529  0.096328  0  4.000795  0
N  N58  1  0.40121028  0.21725300  0.07875608  1  0  -0.342715  -0.183763  0  3.66326  0
N  N59  1  0.59549447  0.78680759  0.92283033  1  0  -0.341143  -0.185695  0  3.656282  0
N  N60  1  0.17858964  0.29874000  0.89609182  1  0  -0.342201  -0.17904  0  3.604324  0
N  N61  1  0.82181746  0.70055680  0.10708978  1  0  -0.34168  -0.182554  0  3.600563  0
N  N62  1  0.16423237  0.31411285  0.25202524  1  0  -0.334105  -0.166903  0  3.562573  0
N  N63  1  0.83250170  0.68817878  0.75076024  1  0  -0.332145  -0.163978  0  3.557421  0
O  O64  1  0.16154468  0.05701394  0.12955929  1  0  -0.296669  -0.493778  0  2.257914  0
O  O65  1  0.83594700  0.94572844  0.87169452  1  0  -0.296703  -0.493258  0  2.253823  0
O  O66  1  0.30622617  0.83441320  0.21641976  1  0  -0.327266  -0.529098  0  2.088764  0
O  O67  1  0.69609180  0.16429810  0.77282291  1  0  -0.329077  -0.529959  0  2.083689  0
O  O68  1  0.91658425  0.31900846  0.10971140  1  0  -0.288807  -0.502252  0  2.331541  0
O  O69  1  0.08094680  0.68295219  0.88974260  1  0  -0.286973  -0.498429  0  2.328514  0
O  O70  1  0.75922900  0.48779865  0.97666364  1  0  -0.295582  -0.507884  0  2.531678  0
O  O71  1  0.23643908  0.51748478  0.02583261  1  0  -0.294378  -0.508775  0  2.515531  0
