# generated using pymatgen
data_CaH20C32(NO2)4
_symmetry_space_group_name_H-M   'P 1'
_cell_length_a   8.11261410
_cell_length_b   12.83525186
_cell_length_c   15.24670000
_cell_angle_alpha   71.99545624
_cell_angle_beta   74.90258625
_cell_angle_gamma   76.03120112
_symmetry_Int_Tables_number   1
_chemical_formula_structural   CaH20C32(NO2)4
_chemical_formula_sum   'Ca2 H40 C64 N8 O16'
_cell_volume   1435.19266308
_cell_formula_units_Z   2
loop_
 _symmetry_equiv_pos_site_id
 _symmetry_equiv_pos_as_xyz
  1  'x, y, z'
loop_
 _atom_site_type_symbol
 _atom_site_label
 _atom_site_symmetry_multiplicity
 _atom_site_fract_x
 _atom_site_fract_y
 _atom_site_fract_z
 _atom_site_occupancy
 _atom_site_hle17_bader_spin_density
 _atom_site_hle17_ddec_charge
 _atom_site_hle17_ddec_spin_density
 _atom_site_hle17_ddec_sum_bond_order
 _atom_site_hle17_magmom
 _atom_site_hse06_10hf_bader_spin_density
 _atom_site_hse06_10hf_ddec_charge
 _atom_site_hse06_10hf_ddec_spin_density
 _atom_site_hse06_10hf_ddec_sum_bond_order
 _atom_site_hse06_10hf_magmom
 _atom_site_hse06_bader_spin_density
 _atom_site_hse06_ddec_charge
 _atom_site_hse06_ddec_spin_density
 _atom_site_hse06_ddec_sum_bond_order
 _atom_site_hse06_magmom
 _atom_site_pbe_bader_charge
 _atom_site_pbe_bader_spin_density
 _atom_site_pbe_cm5_charge
 _atom_site_pbe_ddec_charge
 _atom_site_pbe_ddec_spin_density
 _atom_site_pbe_ddec_sum_bond_order
 _atom_site_pbe_magmom
Ca  Ca0  1  0.24023347  0.42201995  0.01578710  1  0  1.460446  0  1.222706  0  0  1.30871  0  1.595929  0  0  1.35541  0  1.551018  0  1.621284  0  0.913009  1.273919  0  1.627534  0
Ca  Ca1  1  0.75976413  0.57797909  0.98421295  1  0  1.460428  0  1.222733  0  0  1.308686  0  1.595954  0  0  1.355386  0  1.551046  0  1.621234  0  0.913027  1.273893  0  1.627559  0
H  H2  1  0.62797516  0.30019908  0.25992989  1  0  0.098859  0  0.940246  0  0  0.111085  0  1.007532  0  0  0.113073  0  1.005465  0  0.086123  0  0.11878  0.109663  0  1.009116  0
H  H3  1  0.37202710  0.69980163  0.74006909  1  0  0.098887  0  0.940259  0  0  0.111131  0  1.00753  0  0  0.113116  0  1.005467  0  0.086152  0  0.118803  0.109706  0  1.009114  0
H  H4  1  0.55488908  0.43209909  0.28470037  1  0  0.123891  0  0.91786  0  0  0.134993  0  0.980596  0  0  0.137639  0  0.978048  0  0.139616  0  0.124602  0.133141  0  0.982464  0
H  H5  1  0.44511039  0.56790245  0.71529746  1  0  0.123943  0  0.917763  0  0  0.135048  0  0.980501  0  0  0.137695  0  0.977951  0  0.139695  0  0.124606  0.133193  0  0.982369  0
H  H6  1  0.15681862  0.03852173  0.47080174  1  0  0.092494  0  0.970803  0  0  0.10396  0  1.032602  0  0  0.106957  0  1.030771  0  0.050932  0  0.103881  0.101789  0  1.034002  0
H  H7  1  0.84317530  0.96148148  0.52919775  1  0  0.092476  0  0.970846  0  0  0.103936  0  1.03263  0  0  0.106933  0  1.0308  0  0.050867  0  0.103851  0.101767  0  1.034027  0
H  H8  1  0.90789127  0.06809680  0.60341120  1  0  0.087837  0  0.960187  0  0  0.098136  0  1.021495  0  0  0.100807  0  1.020863  0  0.080211  0  0.102055  0.096207  0  1.022056  0
H  H9  1  0.09210542  0.93190557  0.39659140  1  0  0.087844  0  0.960251  0  0  0.098153  0  1.021541  0  0  0.100821  0  1.020908  0  0.080082  0  0.102053  0.096223  0  1.022102  0
H  H10  1  0.80287823  0.25421348  0.63276035  1  0  0.098602  0  0.933897  0  0  0.110791  0  0.988121  0  0  0.113997  0  0.986783  0  0.06083  0  0.108493  0.10844  0  0.989237  0
H  H11  1  0.19712394  0.74579223  0.36724062  1  0  0.098626  0  0.933923  0  0  0.110801  0  0.988159  0  0  0.114029  0  0.986794  0  0.061281  0  0.108491  0.108449  0  0.989275  0
H  H12  1  0.94049699  0.41515852  0.53324276  1  0  0.113142  0  0.973836  0  0  0.117407  0  1.042934  0  0  0.121682  0  1.03949  0  0.152129  0  0.106868  0.114262  0  1.045553  0
H  H13  1  0.05950993  0.58484386  0.46675645  1  0  0.113142  0  0.97388  0  0  0.117407  0  1.042967  0  0  0.12168  0  1.039527  0  0.15225  0  0.106881  0.114265  0  1.045588  0
H  H14  1  0.89707000  0.37625735  0.81111691  1  0  0.116438  0  0.910965  0  0  0.129082  0  0.972487  0  0  0.1316  0  0.970137  0  0.107266  0  0.126582  0.127325  0  0.974195  0
H  H15  1  0.10293144  0.62374170  0.18888262  1  0  0.116474  0  0.91093  0  0  0.129104  0  0.972458  0  0  0.131623  0  0.97011  0  0.107238  0  0.126585  0.127346  0  0.974167  0
H  H16  1  0.98409140  0.49912999  0.75381087  1  0  0.118843  0  0.916286  0  0  0.12966  0  0.979922  0  0  0.132525  0  0.976992  0  0.114635  0  0.126646  0.127569  0  0.982202  0
H  H17  1  0.01591409  0.50086823  0.24618896  1  0  0.118862  0  0.916297  0  0  0.129688  0  0.979923  0  0  0.132561  0  0.976991  0  0.114411  0  0.126652  0.127596  0  0.982204  0
H  H18  1  0.55279162  0.40085734  0.48666583  1  0  0.118212  0  0.964856  0  0  0.123208  0  1.031504  0  0  0.127741  0  1.027938  0  0.172675  0  0.108812  0.119945  0  1.034123  0
H  H19  1  0.44721005  0.59914088  0.51333454  1  0  0.118195  0  0.964882  0  0  0.123196  0  1.031533  0  0  0.12773  0  1.027966  0  0.172539  0  0.108794  0.119933  0  1.034152  0
H  H20  1  0.68686002  0.22567686  0.43919659  1  0  0.094703  0  0.932365  0  0  0.10926  0  0.983341  0  0  0.112034  0  0.982843  0  0.07967  0  0.105906  0.107189  0  0.983914  0
H  H21  1  0.31313840  0.77432385  0.56080095  1  0  0.094755  0  0.932283  0  0  0.109315  0  0.983256  0  0  0.112093  0  0.982751  0  0.079732  0  0.105917  0.107242  0  0.98383  0
H  H22  1  0.58242704  0.04854512  0.52902192  1  0  0.085125  0  0.97046  0  0  0.094565  0  1.035422  0  0  0.097405  0  1.033995  0  0.077936  0  0.099721  0.092544  0  1.036462  0
H  H23  1  0.41757034  0.95145476  0.47097401  1  0  0.085157  0  0.970475  0  0  0.094636  0  1.035375  0  0  0.097477  0  1.033946  0  0.077925  0  0.099756  0.092613  0  1.036412  0
H  H24  1  0.34512315  0.04097890  0.67045088  1  0  0.111382  0  0.938099  0  0  0.12219  0  0.996369  0  0  0.12575  0  0.993979  0  0.101676  0  0.110612  0.119611  0  0.998172  0
H  H25  1  0.65487957  0.95902015  0.32954715  1  0  0.111355  0  0.938117  0  0  0.122153  0  0.996396  0  0  0.125716  0  0.993999  0  0.10157  0  0.110605  0.119575  0  0.998197  0
H  H26  1  0.88322969  0.31736849  0.13919337  1  0  0.07799  0  0.954152  0  0  0.084047  0  1.022968  0  0  0.087348  0  1.019977  0  0.133222  0  0.125266  0.081592  0  1.025186  0
H  H27  1  0.11676896  0.68263140  0.86080698  1  0  0.077978  0  0.954126  0  0  0.084035  0  1.022945  0  0  0.087337  0  1.019952  0  0.133218  0  0.125275  0.081581  0  1.025161  0
H  H28  1  0.77446849  0.13828299  0.22517306  1  0  0.104417  0  0.961789  0  0  0.112629  0  1.025112  0  0  0.116162  0  1.023716  0  0.108252  0  0.103362  0.110074  0  1.026291  0
H  H29  1  0.22553295  0.86171606  0.77482515  1  0  0.104411  0  0.961779  0  0  0.112613  0  1.025125  0  0  0.116147  0  1.023728  0  0.108324  0  0.103336  0.110058  0  1.026304  0
H  H30  1  0.98770989  0.95932053  0.23847771  1  0  0.101449  0  0.981445  0  0  0.110215  0  1.046901  0  0  0.113359  0  1.044542  0  0.126366  0  0.103098  0.107917  0  1.048653  0
H  H31  1  0.01229132  0.04067935  0.76152163  1  0  0.101473  0  0.981447  0  0  0.110239  0  1.046895  0  0  0.113383  0  1.044536  0  0.126368  0  0.103099  0.107941  0  1.048647  0
H  H32  1  0.68165217  0.34100574  0.95825464  1  0  0.078141  0  0.942251  0  0  0.084867  0  1.010392  0  0  0.087828  0  1.007424  0  0.11687  0  0.129076  0.082674  0  1.012589  0
H  H33  1  0.31834926  0.65899331  0.04174750  1  0  0.078171  0  0.942227  0  0  0.084874  0  1.010387  0  0  0.08783  0  1.007422  0  0.11684  0  0.129079  0.082676  0  1.012595  0
H  H34  1  0.91582611  0.17311107  0.96533428  1  0  0.110739  0  0.949728  0  0  0.120754  0  1.00831  0  0  0.124131  0  1.007047  0  0.109061  0  0.108961  0.118274  0  1.009465  0
H  H35  1  0.08417405  0.82688798  0.03466673  1  0  0.110744  0  0.949705  0  0  0.120753  0  1.008309  0  0  0.124127  0  1.007048  0  0.109053  0  0.108957  0.118274  0  1.009463  0
H  H36  1  0.83605401  0.98453044  0.05302754  1  0  0.103669  0  0.936741  0  0  0.116651  0  0.994049  0  0  0.119247  0  0.992631  0  0.104862  0  0.110279  0.114761  0  0.99514  0
H  H37  1  0.16394510  0.01546777  0.94697318  1  0  0.103665  0  0.936654  0  0  0.116618  0  0.994006  0  0  0.119214  0  0.992586  0  0.104869  0  0.110252  0.114729  0  0.995097  0
H  H38  1  0.29388365  0.86195736  0.20601002  1  0  0.099374  0  0.93914  0  0  0.113581  0  0.993333  0  0  0.116217  0  0.992828  0  0.058267  0  0.106801  0.111647  0  0.993857  0
H  H39  1  0.70611605  0.13804335  0.79399128  1  0  0.099354  0  0.939153  0  0  0.113554  0  0.993357  0  0  0.116189  0  0.992852  0  0.058376  0  0.106803  0.11162  0  0.993881  0
H  H40  1  0.60405474  0.87048215  0.13634854  1  0  0.112301  0  0.942003  0  0  0.121654  0  1.003804  0  0  0.124926  0  1.002176  0  0.110162  0  0.10752  0.119293  0  1.004985  0
H  H41  1  0.39594286  0.12951690  0.86365151  1  0  0.112286  0  0.942007  0  0  0.121641  0  1.003807  0  0  0.124914  0  1.002178  0  0.110168  0  0.107517  0.119277  0  1.004996  0
C  C42  1  0.48684095  0.42198334  0.16038816  1  0  0.728631  0  3.862641  0  0  0.680207  0  4.167176  0  0  0.714  0  4.157809  0  1.643429  0  0.232629  0.657166  0  4.172715  0
C  C43  1  0.51315770  0.57801654  0.83961022  1  0  0.728821  0  3.862409  0  0  0.680343  0  4.167052  0  0  0.714135  0  4.157685  0  1.643377  0  0.232706  0.657299  0  4.172591  0
C  C44  1  0.51850598  0.36961892  0.26109949  1  0  -0.137826  0  3.645779  0  0  -0.202147  0  3.904375  0  0  -0.199721  0  3.907844  0  0.266636  0  -0.053313  -0.203837  0  3.902025  0
C  C45  1  0.48149523  0.63038096  0.73889919  1  0  -0.137921  0  3.645721  0  0  -0.202257  0  3.904347  0  0  -0.199831  0  3.907816  0  0.266563  0  -0.053344  -0.203931  0  3.901975  0
C  C46  1  0.34675182  0.21781858  0.35300227  1  0  0.511168  0  3.808483  0  0  0.46407  0  4.098756  0  0  0.493009  0  4.0979  0  1.362449  0  0.251514  0.444378  0  4.098988  0
C  C47  1  0.65324962  0.78218047  0.64699463  1  0  0.510916  0  3.808533  0  0  0.463836  0  4.098783  0  0  0.492774  0  4.097931  0  1.36227  0  0.251337  0.44415  0  4.099009  0
C  C48  1  0.18827750  0.21079904  0.42925666  1  0  -0.076172  0  3.807326  0  0  -0.062692  0  4.038504  0  0  -0.067878  0  4.061601  0  -0.085796  0  -0.011672  -0.05919  0  4.022937  0
C  C49  1  0.81171920  0.78920333  0.57074397  1  0  -0.075979  0  3.807336  0  0  -0.062515  0  4.038471  0  0  -0.067703  0  4.061567  0  -0.085304  0  -0.011614  -0.059015  0  4.022904  0
C  C50  1  0.10980210  0.12034224  0.48390241  1  0  -0.067627  0  3.73086  0  0  -0.091223  0  3.978145  0  0  -0.091988  0  3.997781  0  -0.024087  0  -0.079804  -0.090614  0  3.964778  0
C  C51  1  0.89019587  0.87966013  0.51609739  1  0  -0.067632  0  3.730831  0  0  -0.091212  0  3.978132  0  0  -0.091977  0  3.997767  0  -0.024233  0  -0.079756  -0.090603  0  3.964766  0
C  C52  1  0.97077546  0.13751414  0.55789555  1  0  -0.067279  0  3.745398  0  0  -0.083755  0  4.004575  0  0  -0.085566  0  4.025724  0  -0.041292  0  -0.082678  -0.082398  0  3.990059  0
C  C53  1  0.02922356  0.86248907  0.44210454  1  0  -0.06731  0  3.74554  0  0  -0.083793  0  4.004715  0  0  -0.085604  0  4.025871  0  -0.041176  0  -0.082718  -0.082437  0  3.990198  0
C  C54  1  0.91151304  0.24265904  0.57499915  1  0  -0.043251  0  3.703745  0  0  -0.060804  0  3.962561  0  0  -0.062552  0  3.982655  0  0.029466  0  -0.074685  -0.059506  0  3.948774  0
C  C55  1  0.08848831  0.75734500  0.42500040  1  0  -0.043239  0  3.703882  0  0  -0.060793  0  3.962695  0  0  -0.062558  0  3.982784  0  0.028965  0  -0.074656  -0.059495  0  3.948908  0
C  C56  1  0.98867793  0.33415596  0.51858598  1  0  -0.040343  0  3.680998  0  0  -0.070031  0  3.940645  0  0  -0.069709  0  3.958469  0  -0.037162  0  -0.071597  -0.070067  0  3.92849  0
C  C57  1  0.01132515  0.66584642  0.48141311  1  0  -0.040293  0  3.680975  0  0  -0.069991  0  3.940624  0  0  -0.069672  0  3.958453  0  -0.037043  0  -0.071595  -0.070033  0  3.928473  0
C  C58  1  0.12791958  0.31591149  0.44647396  1  0  -0.075181  0  3.800125  0  0  -0.063779  0  4.038654  0  0  -0.069482  0  4.061807  0  -0.014896  0  -0.008464  -0.060057  0  4.023128  0
C  C59  1  0.87208095  0.68409089  0.55352548  1  0  -0.075324  0  3.800108  0  0  -0.063885  0  4.038586  0  0  -0.069576  0  4.061732  0  -0.015182  0  -0.008469  -0.060161  0  4.023062  0
C  C60  1  0.24468854  0.39248316  0.38075703  1  0  0.508329  0  3.811467  0  0  0.457162  0  4.108847  0  0  0.485713  0  4.108974  0  1.364836  0  0.252841  0.437776  0  4.108443  0
C  C61  1  0.75531350  0.60751839  0.61924176  1  0  0.508459  0  3.811464  0  0  0.457299  0  4.108808  0  0  0.485831  0  4.108961  0  1.364702  0  0.252976  0.437907  0  4.108413  0
C  C62  1  0.09385953  0.39783352  0.87334089  1  0  0.683255  0  3.891689  0  0  0.639765  0  4.190509  0  0  0.671818  0  4.184306  0  1.600302  0  0.214639  0.61793  0  4.193832  0
C  C63  1  0.90613808  0.60216553  0.12666114  1  0  0.683112  0  3.891728  0  0  0.639627  0  4.190536  0  0  0.671679  0  4.184337  0  1.600253  0  0.214554  0.617792  0  4.193859  0
C  C64  1  0.01751729  0.41039562  0.78795947  1  0  -0.125829  0  3.661099  0  0  -0.191439  0  3.92274  0  0  -0.189012  0  3.92666  0  0.305504  0  -0.049191  -0.193155  0  3.920171  0
C  C65  1  0.98248693  0.58960260  0.21204054  1  0  -0.125855  0  3.661114  0  0  -0.191456  0  3.922706  0  0  -0.189043  0  3.926648  0  0.30587  0  -0.049176  -0.19317  0  3.920134  0
C  C66  1  0.26080463  0.40749078  0.64817405  1  0  0.521259  0  3.78586  0  0  0.473644  0  4.073981  0  0  0.503055  0  4.072579  0  1.349383  0  0.258829  0.453632  0  4.074619  0
C  C67  1  0.73920050  0.59250410  0.35182736  1  0  0.521141  0  3.785996  0  0  0.473496  0  4.074142  0  0  0.502902  0  4.072742  0  1.34955  0  0.258713  0.453502  0  4.074758  0
C  C68  1  0.36997499  0.31847184  0.60420676  1  0  -0.076147  0  3.797001  0  0  -0.063458  0  4.031677  0  0  -0.069085  0  4.054681  0  -0.084863  0  -0.010308  -0.059705  0  4.016198  0
C  C69  1  0.63002795  0.68152638  0.39579343  1  0  -0.076133  0  3.797024  0  0  -0.063407  0  4.031648  0  0  -0.069031  0  4.054652  0  -0.084856  0  -0.010283  -0.059661  0  4.016169  0
C  C70  1  0.50548466  0.32369738  0.52666895  1  0  -0.052208  0  3.686445  0  0  -0.079333  0  3.94267  0  0  -0.079721  0  3.960779  0  -0.111458  0  -0.074229  -0.07893  0  3.930293  0
C  C71  1  0.49451549  0.67630167  0.47333010  1  0  -0.052217  0  3.686475  0  0  -0.079378  0  3.942722  0  0  -0.079766  0  3.960833  0  -0.111164  0  -0.074248  -0.078974  0  3.930345  0
C  C72  1  0.58052184  0.22437463  0.50022756  1  0  -0.053641  0  3.726579  0  0  -0.070914  0  3.986241  0  0  -0.072537  0  4.007124  0  -0.038987  0  -0.079422  -0.069705  0  3.971972  0
C  C73  1  0.41947810  0.77562525  0.49976999  1  0  -0.053697  0  3.726577  0  0  -0.07097  0  3.986262  0  0  -0.072597  0  4.007149  0  -0.039162  0  -0.079422  -0.06976  0  3.971992  0
C  C74  1  0.52250910  0.12442865  0.55094776  1  0  -0.063996  0  3.731829  0  0  -0.082455  0  3.993861  0  0  -0.084284  0  4.013723  0  -0.002322  0  -0.083108  -0.081134  0  3.980265  0
C  C75  1  0.47748978  0.87557040  0.44904950  1  0  -0.064023  0  3.731912  0  0  -0.082503  0  3.993941  0  0  -0.084334  0  4.013807  0  -0.002252  0  -0.083117  -0.081178  0  3.98034  0
C  C76  1  0.38718133  0.11956091  0.63031063  1  0  -0.04241  0  3.705631  0  0  -0.068928  0  3.959204  0  0  -0.068244  0  3.977904  0  -0.016811  0  -0.07125  -0.069243  0  3.946457  0
C  C77  1  0.61282034  0.88043731  0.36968777  1  0  -0.042416  0  3.705622  0  0  -0.068941  0  3.959196  0  0  -0.068256  0  3.9779  0  -0.01676  0  -0.071283  -0.069254  0  3.946446  0
C  C78  1  0.31155205  0.21810648  0.65506997  1  0  -0.087108  0  3.81993  0  0  -0.075817  0  4.05853  0  0  -0.082282  0  4.082684  0  0.0205  0  -0.012173  -0.071557  0  4.042293  0
C  C79  1  0.68845089  0.78189174  0.34493022  1  0  -0.087153  0  3.819925  0  0  -0.075818  0  4.058466  0  0  -0.082284  0  4.082617  0  0.020178  0  -0.012192  -0.07156  0  4.042235  0
C  C80  1  0.16413910  0.24167384  0.73185958  1  0  0.511947  0  3.815416  0  0  0.461797  0  4.111984  0  0  0.491328  0  4.110197  0  1.377059  0  0.253804  0.441758  0  4.112799  0
C  C81  1  0.83586662  0.75832354  0.26814110  1  0  0.51212  0  3.815248  0  0  0.461924  0  4.111851  0  0  0.491456  0  4.110061  0  1.37733  0  0.25388  0.441884  0  4.11267  0
C  C82  1  0.97382276  0.23821400  0.14985293  1  0  0.13758  0  3.72212  0  0  0.108969  0  3.978638  0  0  0.116105  0  3.995571  0  0.496248  0  0.061036  0.104383  0  3.966977  0
C  C83  1  0.02617717  0.76178588  0.85014725  1  0  0.137657  0  3.722001  0  0  0.109047  0  3.978522  0  0  0.116184  0  3.995455  0  0.496224  0  0.061021  0.104461  0  3.96686  0
C  C84  1  0.91297424  0.13770302  0.19777996  1  0  -0.134882  0  3.769307  0  0  -0.146885  0  4.020831  0  0  -0.154597  0  4.044  0  -0.150137  0  -0.090304  -0.141799  0  4.005092  0
C  C85  1  0.08702615  0.86229519  0.80222058  1  0  -0.134889  0  3.769253  0  0  -0.146906  0  4.020787  0  0  -0.15462  0  4.043956  0  -0.150099  0  -0.090258  -0.14182  0  4.005048  0
C  C86  1  0.03072532  0.03916161  0.20594960  1  0  -0.057949  0  3.705817  0  0  -0.080432  0  3.9493  0  0  -0.079111  0  3.968664  0  -0.023296  0  -0.069517  -0.080931  0  3.935926  0
C  C87  1  0.96927333  0.96083827  0.79405075  1  0  -0.058041  0  3.705806  0  0  -0.080503  0  3.949263  0  0  -0.079181  0  3.968628  0  -0.023372  0  -0.069556  -0.081002  0  3.935888  0
C  C88  1  0.20859982  0.04117195  0.16726006  1  0  0.023362  0  3.792662  0  0  0.040273  0  4.021292  0  0  0.037667  0  4.046471  0  -0.014153  0  -0.003061  0.04186  0  4.004279  0
C  C89  1  0.79140011  0.95882793  0.83274142  1  0  0.023403  0  3.792565  0  0  0.040311  0  4.021193  0  0  0.037706  0  4.046373  0  -0.014041  0  -0.003028  0.041899  0  4.004179  0
C  C90  1  0.25835499  0.14682110  0.12060123  1  0  0.145178  0  3.731411  0  0  0.139456  0  3.96928  0  0  0.144132  0  3.989703  0  0.482884  0  0.127551  0.13629  0  3.955499  0
C  C91  1  0.74164494  0.85317878  0.87940091  1  0  0.145266  0  3.731345  0  0  0.139536  0  3.969213  0  0  0.144213  0  3.989636  0  0.482741  0  0.127561  0.13637  0  3.955433  0
C  C92  1  0.65082434  0.25796206  0.99398679  1  0  0.145584  0  3.700669  0  0  0.116258  0  3.95839  0  0  0.123795  0  3.974643  0  0.48034  0  0.068582  0.111352  0  3.947265  0
C  C93  1  0.34917604  0.74203616  0.00601507  1  0  0.145586  0  3.700739  0  0  0.116286  0  3.95847  0  0  0.123828  0  3.974716  0  0.480494  0  0.06859  0.111378  0  3.947347  0
C  C94  1  0.78250435  0.16335644  0.99900391  1  0  -0.117379  0  3.742925  0  0  -0.132795  0  4.001868  0  0  -0.139326  0  4.023203  0  -0.019595  0  -0.08201  -0.128529  0  3.987417  0
C  C95  1  0.21749627  0.83664094  0.00099748  1  0  -0.117381  0  3.742767  0  0  -0.13281  0  4.001725  0  0  -0.139336  0  4.023055  0  -0.019647  0  -0.082  -0.128542  0  3.987273  0
C  C96  1  0.73829517  0.06007793  0.04608160  1  0  -0.04969  0  3.693084  0  0  -0.075219  0  3.943385  0  0  -0.073559  0  3.962664  0  -0.021702  0  -0.064245  -0.075998  0  3.930095  0
C  C97  1  0.26170499  0.93992112  0.95392006  1  0  -0.049641  0  3.692763  0  0  -0.07513  0  3.943056  0  0  -0.07347  0  3.962334  0  -0.021689  0  -0.064214  -0.075908  0  3.929765  0
C  C98  1  0.56300121  0.05154898  0.08719714  1  0  0.026467  0  3.782112  0  0  0.042421  0  4.013827  0  0  0.039852  0  4.038482  0  0.024437  0  3.7e-05  0.043966  0  3.997196  0
C  C99  1  0.43700023  0.94845007  0.91280436  1  0  0.026373  0  3.782137  0  0  0.042318  0  4.013853  0  0  0.039748  0  4.038509  0  0.024521  0  -0.0  0.043863  0  3.997221  0
C  C100  1  0.43924616  0.15211903  0.07898469  1  0  0.139445  0  3.736853  0  0  0.135603  0  3.973937  0  0  0.139939  0  3.994615  0  0.491388  0  0.128866  0.132676  0  3.959988  0
C  C101  1  0.56075400  0.84788002  0.92101698  1  0  0.139421  0  3.736902  0  0  0.135594  0  3.973977  0  0  0.139929  0  3.994655  0  0.49141  0  0.128857  0.132666  0  3.96003  0
C  C102  1  0.33671942  0.94184825  0.17221174  1  0  -0.101234  0  3.750481  0  0  -0.12259  0  4.003237  0  0  -0.126924  0  4.027923  0  -0.088433  0  -0.084842  -0.119552  0  3.986422  0
C  C103  1  0.66328029  0.05815246  0.82778956  1  0  -0.101222  0  3.750439  0  0  -0.12258  0  4.003208  0  0  -0.126913  0  4.027891  0  -0.088547  0  -0.08487  -0.119542  0  3.986391  0
C  C104  1  0.50761233  0.94662363  0.13389753  1  0  -0.0926  0  3.728745  0  0  -0.116835  0  3.985925  0  0  -0.119589  0  4.009127  0  -0.018363  0  -0.081475  -0.114789  0  3.970138  0
C  C105  1  0.49238783  0.05337542  0.86610348  1  0  -0.09256  0  3.728732  0  0  -0.116788  0  3.985903  0  0  -0.119542  0  4.009106  0  -0.018433  0  -0.081454  -0.114745  0  3.970117  0
N  N106  1  0.37270645  0.32800762  0.32856857  1  0  -0.268052  0  3.464372  0  0  -0.191049  0  3.702967  0  0  -0.215978  0  3.721814  0  -1.189613  0  -0.255212  -0.173896  0  3.689528  0
N  N107  1  0.62729430  0.67199392  0.67143040  1  0  -0.267969  0  3.464485  0  0  -0.190967  0  3.703051  0  0  -0.215891  0  3.721903  0  -1.189488  0  -0.255154  -0.173815  0  3.689603  0
N  N108  1  0.13638568  0.35624552  0.72067523  1  0  -0.267936  0  3.453751  0  0  -0.192494  0  3.693091  0  0  -0.217305  0  3.711198  0  -1.193528  0  -0.257526  -0.175431  0  3.680121  0
N  N109  1  0.86362004  0.64375186  0.27932610  1  0  -0.268038  0  3.453664  0  0  -0.192578  0  3.693013  0  0  -0.217388  0  3.711125  0  -1.193681  0  -0.257537  -0.175517  0  3.68003  0
N  N110  1  0.14063107  0.24305262  0.11253887  1  0  -0.391478  0  3.174466  0  0  -0.339021  0  3.436755  0  0  -0.35431  0  3.453356  0  -1.21692  0  -0.360441  -0.328384  0  3.425204  0
N  N111  1  0.85936840  0.75694892  0.88746159  1  0  -0.391524  0  3.174426  0  0  -0.339067  0  3.436721  0  0  -0.354356  0  3.453323  0  -1.216913  0  -0.360415  -0.328432  0  3.425175  0
N  N112  1  0.48458250  0.25322412  0.03263508  1  0  -0.379188  0  3.172058  0  0  -0.327056  0  3.43073  0  0  -0.342325  0  3.448121  0  -1.224764  0  -0.347448  -0.316483  0  3.418709  0
N  N113  1  0.51541616  0.74677576  0.96736658  1  0  -0.379207  0  3.172136  0  0  -0.32709  0  3.430822  0  0  -0.342359  0  3.448211  0  -1.224883  0  -0.347453  -0.316516  0  3.418801  0
O  O114  1  0.33701591  0.43319496  0.14552222  1  0  -0.690691  0  1.965983  0  0  -0.639609  0  2.221295  0  0  -0.66633  0  2.210474  0  -1.214978  0  -0.363949  -0.620596  0  2.228017  0
O  O115  1  0.66297786  0.56680409  0.85448033  1  0  -0.690735  0  1.965876  0  0  -0.639613  0  2.221204  0  0  -0.666333  0  2.210383  0  -1.214914  0  -0.363949  -0.620603  0  2.227926  0
O  O116  1  0.61992740  0.44994083  0.09986757  1  0  -0.722643  0  1.96609  0  0  -0.661553  0  2.221806  0  0  -0.690122  0  2.209752  0  -1.241396  0  -0.389564  -0.641039  0  2.229252  0
O  O117  1  0.38006766  0.55005822  0.90012891  1  0  -0.722801  0  1.96606  0  0  -0.661693  0  2.2218  0  0  -0.690261  0  2.209743  0  -1.241453  0  -0.389641  -0.641178  0  2.229249  0
O  O118  1  0.44317073  0.14428321  0.31883096  1  0  -0.483059  0  1.90391  0  0  -0.442468  0  2.111652  0  0  -0.460973  0  2.107004  0  -1.123661  0  -0.264833  -0.429879  0  2.114722  0
O  O119  1  0.55682191  0.85572000  0.68116673  1  0  -0.483039  0  1.903627  0  0  -0.442444  0  2.111342  0  0  -0.460949  0  2.106697  0  -1.123617  0  -0.264774  -0.429852  0  2.114405  0
O  O120  1  0.23957761  0.49133161  0.37237096  1  0  -0.466535  0  1.909907  0  0  -0.422249  0  2.115368  0  0  -0.441195  0  2.110367  0  -1.110618  0  -0.25695  -0.409366  0  2.118653  0
O  O121  1  0.76042570  0.50866993  0.62762700  1  0  -0.466606  0  1.90991  0  0  -0.42233  0  2.115374  0  0  -0.441269  0  2.110381  0  -1.110641  0  -0.257088  -0.409445  0  2.118662  0
O  O122  1  0.99725178  0.44762095  0.93484366  1  0  -0.749798  0  1.990721  0  0  -0.678567  0  2.240833  0  0  -0.70916  0  2.231692  0  -1.246597  0  -0.408879  -0.656521  0  2.246124  0
O  O123  1  0.00274026  0.55237976  0.06515608  1  0  -0.749762  0  1.990743  0  0  -0.678536  0  2.240845  0  0  -0.709128  0  2.231705  0  -1.246535  0  -0.40886  -0.65649  0  2.246136  0
O  O124  1  0.24315386  0.34338220  0.87986701  1  0  -0.640011  0  1.889962  0  0  -0.596109  0  2.10935  0  0  -0.620202  0  2.102277  0  -1.194506  0  -0.337763  -0.579058  0  2.113594  0
O  O125  1  0.75684165  0.65661518  0.12013836  1  0  -0.639953  0  1.889954  0  0  -0.596037  0  2.109311  0  0  -0.62013  0  2.102241  0  -1.194598  0  -0.337746  -0.57898  0  2.113537  0
O  O126  1  0.27011768  0.50635921  0.62876084  1  0  -0.477431  0  1.927659  0  0  -0.433988  0  2.135074  0  0  -0.453394  0  2.12938  0  -1.124747  0  -0.257858  -0.420824  0  2.138875  0
O  O127  1  0.72988481  0.49364067  0.37123897  1  0  -0.477293  0  1.927818  0  0  -0.433847  0  2.135257  0  0  -0.453248  0  2.129564  0  -1.124846  0  -0.257769  -0.420692  0  2.139054  0
O  O128  1  0.07875428  0.17752033  0.79432783  1  0  -0.490656  0  1.940148  0  0  -0.451358  0  2.161616  0  0  -0.469775  0  2.155205  0  -1.132175  0  -0.262895  -0.438816  0  2.165839  0
O  O129  1  0.92124935  0.82247539  0.20567423  1  0  -0.490674  0  1.940147  0  0  -0.451373  0  2.161637  0  0  -0.46979  0  2.155225  0  -1.132162  0  -0.262888  -0.438833  0  2.165861  0
