# generated using pymatgen
data_FeH4C8O5
_symmetry_space_group_name_H-M   'P 1'
_cell_length_a   6.50133219
_cell_length_b   10.26864993
_cell_length_c   13.17107712
_cell_angle_alpha   71.37632802
_cell_angle_beta   90.12243526
_cell_angle_gamma   82.63485957
_symmetry_Int_Tables_number   1
_chemical_formula_structural   FeH4C8O5
_chemical_formula_sum   'Fe4 H16 C32 O20'
_cell_volume   825.51330467
_cell_formula_units_Z   4
loop_
 _symmetry_equiv_pos_site_id
 _symmetry_equiv_pos_as_xyz
  1  'x, y, z'
loop_
 _atom_site_type_symbol
 _atom_site_label
 _atom_site_symmetry_multiplicity
 _atom_site_fract_x
 _atom_site_fract_y
 _atom_site_fract_z
 _atom_site_occupancy
 _atom_site_pbe_bader_charge
 _atom_site_pbe_bader_spin_density
 _atom_site_pbe_cm5_charge
 _atom_site_pbe_ddec_charge
 _atom_site_pbe_ddec_spin_density
 _atom_site_pbe_ddec_sum_bond_order
 _atom_site_pbe_magmom
Fe  Fe0  1  0.50044220  0.49846594  0.74125500  1  1.703694  3.15336  0.915788  1.325783  3.597227  3.092028  3.117
Fe  Fe1  1  0.49956753  0.50152533  0.25874804  1  1.703598  3.15319  0.915805  1.325711  3.597037  3.09273  3.117
Fe  Fe2  1  0.00006101  0.49872755  0.73778167  1  1.707594  3.153226  0.915879  1.326276  3.596427  3.095386  3.118
Fe  Fe3  1  0.99994573  0.50128674  0.26222533  1  1.707461  3.153213  0.915829  1.326036  3.596397  3.095151  3.117
H  H4  1  0.80391802  0.80626201  0.50180735  1  0.129913  0.000725  0.114271  0.12799  0.000242  0.985203  0.0
H  H5  1  0.19603909  0.19372945  0.49819075  1  0.12977  0.000725  0.114125  0.127823  0.000242  0.985393  0.0
H  H6  1  0.36860004  0.94731934  0.56860286  1  0.117959  0.000505  0.105723  0.108798  0.000158  1.024954  0.0
H  H7  1  0.63136041  0.05267119  0.43139545  1  0.117644  0.000505  0.105717  0.108804  0.000158  1.024682  0.0
H  H8  1  0.71251749  0.18976325  0.65906038  1  0.115252  0.000673  0.11416  0.12713  0.000205  0.987945  0.0
H  H9  1  0.28749217  0.81024476  0.34093835  1  0.11537  0.000673  0.114142  0.12705  0.000205  0.988099  0.0
H  H10  1  0.88036369  0.94301900  0.70527239  1  0.113771  0.000486  0.105344  0.107969  0.000161  1.027461  0.0
H  H11  1  0.11965453  0.05701157  0.29474703  1  0.113445  0.000487  0.105409  0.108019  0.000161  1.027495  0.0
H  H12  1  0.31312194  0.80177894  0.83751783  1  0.1052  0.00073  0.115836  0.129843  0.000242  0.980016  0.0
H  H13  1  0.68687272  0.19821821  0.16249520  1  0.106105  0.00073  0.115828  0.129788  0.000242  0.980091  0.0
H  H14  1  0.14495825  0.04859185  0.79094442  1  0.091852  0.000545  0.105424  0.108653  0.000185  1.023869  0.0
H  H15  1  0.85504786  0.95141181  0.20905166  1  0.091909  0.000545  0.105352  0.10857  0.000185  1.023604  0.0
H  H16  1  0.20432191  0.19393443  0.98617125  1  0.113956  0.000658  0.114669  0.128497  0.000203  0.981298  0.0
H  H17  1  0.79571203  0.80606105  0.01385025  1  0.114093  0.000659  0.114705  0.128576  0.000203  0.981374  0.0
H  H18  1  0.63274304  0.05282105  0.92918852  1  0.087678  0.000532  0.105345  0.10802  0.00018  1.02539  0.0
H  H19  1  0.36729207  0.94717728  0.07080338  1  0.087405  0.000532  0.105375  0.10806  0.00018  1.025388  0.0
C  C20  1  0.09648926  0.86307471  0.53833720  1  -0.007278  0.014136  -0.005212  -0.031144  0.00689  3.948282  0.01
C  C21  1  0.90347949  0.13690250  0.46166296  1  -0.006325  0.014125  -0.005206  -0.031079  0.006884  3.948108  0.01
C  C22  1  0.88842300  0.89190563  0.50001682  1  -0.056203  0.004435  -0.073128  -0.08318  0.002063  3.933065  0.003
C  C23  1  0.11155012  0.10807508  0.50000138  1  -0.056465  0.004436  -0.072946  -0.082948  0.002063  3.932864  0.003
C  C24  1  0.20773289  0.97160041  0.53807126  1  -0.028802  0.00295  -0.077803  -0.094928  0.001365  3.968017  0.002
C  C25  1  0.79223649  0.02838223  0.46194344  1  -0.028909  0.00295  -0.077783  -0.094848  0.001365  3.967778  0.002
C  C26  1  0.19418144  0.71610784  0.58725085  1  1.534069  0.006184  0.241749  0.603363  0.004233  4.099527  0.003
C  C27  1  0.80582088  0.28386714  0.41272531  1  1.5339  0.006173  0.241615  0.603171  0.004226  4.099253  0.003
C  C28  1  0.41792895  0.13297987  0.72053322  1  -0.032141  0.013359  -0.006022  -0.030632  0.006438  3.946662  0.01
C  C29  1  0.58206580  0.86702772  0.27947561  1  -0.031351  0.013364  -0.006171  -0.030646  0.006443  3.946946  0.01
C  C30  1  0.62617338  0.10414642  0.69735960  1  -0.031983  0.00436  -0.074733  -0.085921  0.002028  3.936761  0.003
C  C31  1  0.37383238  0.89586459  0.30263915  1  -0.032237  0.004359  -0.074634  -0.085731  0.002028  3.937156  0.003
C  C32  1  0.71999814  0.96734831  0.72411354  1  -0.008057  0.002522  -0.077091  -0.092758  0.001181  3.967536  0.001
C  C33  1  0.28000576  0.03266481  0.27589151  1  -0.008175  0.002528  -0.077155  -0.09285  0.001184  3.967632  0.001
C  C34  1  0.60638892  0.85862398  0.77392566  1  -0.014729  0.014773  -0.005949  -0.030034  0.00717  3.945956  0.011
C  C35  1  0.39363202  0.14138234  0.22607417  1  -0.014515  0.014784  -0.005977  -0.030012  0.007176  3.94609  0.011
C  C36  1  0.39932709  0.88746552  0.79914026  1  -0.07971  0.004069  -0.073925  -0.084061  0.001882  3.933315  0.003
C  C37  1  0.60067308  0.11254432  0.20086490  1  -0.080803  0.004069  -0.074011  -0.084112  0.001881  3.933673  0.003
C  C38  1  0.30547296  0.02423611  0.77227062  1  0.009351  0.00306  -0.076808  -0.094256  0.001436  3.969453  0.002
C  C39  1  0.69451254  0.97577633  0.22773172  1  0.009263  0.00306  -0.076674  -0.094152  0.001436  3.969154  0.002
C  C40  1  0.31963166  0.27977229  0.69634618  1  1.543299  0.005974  0.243658  0.602519  0.00412  4.099045  0.003
C  C41  1  0.68035860  0.72022883  0.30366055  1  1.54299  0.005977  0.243649  0.602428  0.004121  4.098768  0.003
C  C42  1  0.69870773  0.71215201  0.79061528  1  1.558623  0.005157  0.243073  0.60514  0.003577  4.100934  0.002
C  C43  1  0.30127435  0.28786313  0.20935753  1  1.557925  0.005163  0.243103  0.605046  0.00358  4.100745  0.002
C  C44  1  0.90879395  0.13718895  0.95392580  1  -0.049458  0.013924  -0.005989  -0.030812  0.006704  3.947847  0.01
C  C45  1  0.09123283  0.86281457  0.04608610  1  -0.042916  0.013906  -0.006095  -0.030968  0.006697  3.948251  0.01
C  C46  1  0.11624117  0.10826453  0.99323288  1  -0.002666  0.004013  -0.073586  -0.083725  0.001881  3.935588  0.002
C  C47  1  0.88379458  0.89172541  0.00675662  1  -0.003816  0.004015  -0.073731  -0.083895  0.001882  3.93553  0.002
C  C48  1  0.79287048  0.02857580  0.96092055  1  -0.030884  0.002642  -0.077731  -0.094021  0.00123  3.970249  0.001
C  C49  1  0.20716431  0.97142242  0.03906227  1  -0.0376  0.002652  -0.077747  -0.093917  0.001232  3.970721  0.001
C  C50  1  0.81624341  0.28345026  0.89695059  1  1.567821  0.005123  0.242916  0.60455  0.003419  4.09688  0.003
C  C51  1  0.18376661  0.71655495  0.10307772  1  1.568356  0.005117  0.242926  0.604374  0.003419  4.097028  0.003
O  O52  1  0.25620209  0.49813855  0.79684964  1  -0.733037  0.350023  -0.438449  -0.6234  0.16681  1.84054  0.273
O  O53  1  0.74378412  0.50186032  0.20315618  1  -0.732878  0.350073  -0.438428  -0.623424  0.166834  1.840778  0.274
O  O54  1  0.75561706  0.49859717  0.68215545  1  -0.733758  0.350733  -0.438648  -0.62368  0.167399  1.837066  0.274
O  O55  1  0.24439778  0.50140893  0.31784448  1  -0.73379  0.350822  -0.43869  -0.623602  0.16744  1.837091  0.274
O  O56  1  0.06970228  0.62361534  0.60151538  1  -1.07718  0.119695  -0.285308  -0.499602  0.05568  2.302492  0.094
O  O57  1  0.93032153  0.37634888  0.39846338  1  -1.076908  0.119672  -0.285184  -0.499428  0.055666  2.302233  0.094
O  O58  1  0.38548642  0.69032082  0.61364329  1  -1.099654  0.104902  -0.258243  -0.481874  0.049995  2.216283  0.09
O  O59  1  0.61451045  0.30969175  0.38633538  1  -1.09952  0.104902  -0.258256  -0.481824  0.049999  2.216349  0.09
O  O60  1  0.44465218  0.37268079  0.66609557  1  -1.055527  0.113561  -0.286507  -0.496037  0.053043  2.298732  0.089
O  O61  1  0.55533560  0.62730139  0.33391378  1  -1.055942  0.113546  -0.28651  -0.496095  0.05303  2.29845  0.089
O  O62  1  0.12806391  0.30551837  0.70771783  1  -1.101431  0.107186  -0.25674  -0.481713  0.050899  2.219514  0.092
O  O63  1  0.87192529  0.69452044  0.29228604  1  -1.101252  0.107239  -0.25672  -0.48167  0.050926  2.219311  0.092
O  O64  1  0.88874225  0.68596513  0.77454588  1  -1.091554  0.109282  -0.260894  -0.485528  0.05208  2.228482  0.094
O  O65  1  0.11123511  0.31401692  0.22539221  1  -1.091743  0.10927  -0.260792  -0.485431  0.05207  2.22838  0.094
O  O66  1  0.57086226  0.62165705  0.81794038  1  -1.093706  0.11143  -0.286484  -0.50371  0.052012  2.306523  0.087
O  O67  1  0.42912970  0.37836907  0.18204623  1  -1.092701  0.111511  -0.286658  -0.503718  0.052052  2.306187  0.087
O  O68  1  0.94528100  0.37388593  0.87670946  1  -1.068819  0.105103  -0.286033  -0.498689  0.049053  2.30731  0.082
O  O69  1  0.05470417  0.62614251  0.12331685  1  -1.068731  0.105079  -0.285986  -0.498548  0.04904  2.307768  0.082
O  O70  1  0.62535845  0.30981644  0.87037140  1  -1.103001  0.109964  -0.258392  -0.484792  0.052255  2.228193  0.095
O  O71  1  0.37466776  0.69014814  0.12963230  1  -1.103111  0.109949  -0.25839  -0.484594  0.052249  2.228062  0.095
