# generated using pymatgen
data_UH7C5S2NO10
_symmetry_space_group_name_H-M   'P 1'
_cell_length_a   10.36217897
_cell_length_b   10.32590384
_cell_length_c   11.63600000
_cell_angle_alpha   111.12819727
_cell_angle_beta   90.00000000
_cell_angle_gamma   90.00000000
_symmetry_Int_Tables_number   1
_chemical_formula_structural   UH7C5S2NO10
_chemical_formula_sum   'U4 H28 C20 S8 N4 O40'
_cell_volume   1161.34260759
_cell_formula_units_Z   4
loop_
 _symmetry_equiv_pos_site_id
 _symmetry_equiv_pos_as_xyz
  1  'x, y, z'
loop_
 _atom_site_type_symbol
 _atom_site_label
 _atom_site_symmetry_multiplicity
 _atom_site_fract_x
 _atom_site_fract_y
 _atom_site_fract_z
 _atom_site_occupancy
 _atom_site_hle17_bader_spin_density
 _atom_site_hle17_ddec_charge
 _atom_site_hle17_ddec_spin_density
 _atom_site_hle17_ddec_sum_bond_order
 _atom_site_hle17_magmom
 _atom_site_hse06_10hf_bader_spin_density
 _atom_site_hse06_10hf_ddec_charge
 _atom_site_hse06_10hf_ddec_spin_density
 _atom_site_hse06_10hf_ddec_sum_bond_order
 _atom_site_hse06_10hf_magmom
 _atom_site_hse06_bader_spin_density
 _atom_site_hse06_ddec_charge
 _atom_site_hse06_ddec_spin_density
 _atom_site_hse06_ddec_sum_bond_order
 _atom_site_hse06_magmom
 _atom_site_pbe_bader_charge
 _atom_site_pbe_bader_spin_density
 _atom_site_pbe_cm5_charge
 _atom_site_pbe_ddec_charge
 _atom_site_pbe_ddec_spin_density
 _atom_site_pbe_ddec_sum_bond_order
 _atom_site_pbe_magmom
U  U0  1  0.19552451  0.61666729  0.21274802  1  0  2.581147  0  4.042004  0  0  2.648737  0  4.680827  0  0  2.753141  0  4.645302  0  2.956482  0  2.189281  2.574062  0  4.706431  0
U  U1  1  0.69552746  0.88333719  0.28725337  1  0  2.581178  0  4.041879  0  0  2.648731  0  4.680746  0  0  2.753154  0  4.645196  0  2.956022  0  2.189284  2.574021  0  4.706401  0
U  U2  1  0.80447173  0.38333397  0.78725264  1  0  2.581224  0  4.041797  0  0  2.648734  0  4.680675  0  0  2.753151  0  4.645144  0  2.956442  0  2.189295  2.574074  0  4.706251  0
U  U3  1  0.30447264  0.11666510  0.71274848  1  0  2.581161  0  4.041975  0  0  2.648672  0  4.680873  0  0  2.753098  0  4.645328  0  2.95608  0  2.189255  2.574008  0  4.706458  0
H  H4  1  0.02210056  0.86990974  0.34895778  1  0  0.447054  0  0.844279  0  0  0.423912  0  0.89572  0  0  0.435133  0  0.879464  0  0.662457  0  0.313091  0.415905  0  0.907297  0
H  H5  1  0.52210158  0.63009163  0.15104175  1  0  0.447059  0  0.844274  0  0  0.423926  0  0.8957  0  0  0.435147  0  0.879444  0  0.662475  0  0.313106  0.415918  0  0.907278  0
H  H6  1  0.97789857  0.13009152  0.65104116  1  0  0.447064  0  0.844265  0  0  0.42392  0  0.895706  0  0  0.435142  0  0.87945  0  0.662477  0  0.313104  0.415915  0  0.907282  0
H  H7  1  0.47789949  0.36990859  0.84895943  1  0  0.44707  0  0.844256  0  0  0.423927  0  0.895698  0  0  0.435149  0  0.879442  0  0.662472  0  0.3131  0.415921  0  0.907274  0
H  H8  1  0.06265092  0.79556194  0.44265536  1  0  0.444306  0  0.853344  0  0  0.418397  0  0.908922  0  0  0.429905  0  0.892271  0  0.67212  0  0.309342  0.410191  0  0.92077  0
H  H9  1  0.56265097  0.70443839  0.05734470  1  0  0.444281  0  0.85338  0  0  0.418371  0  0.908959  0  0  0.429878  0  0.892309  0  0.672052  0  0.309334  0.410165  0  0.920807  0
H  H10  1  0.93734822  0.20443932  0.55734444  1  0  0.44428  0  0.853375  0  0  0.418362  0  0.908968  0  0  0.429871  0  0.892317  0  0.672049  0  0.309326  0.410156  0  0.920816  0
H  H11  1  0.43734913  0.29556079  0.94265616  1  0  0.444259  0  0.853409  0  0  0.418348  0  0.908989  0  0  0.429856  0  0.892339  0  0.672037  0  0.309316  0.410143  0  0.920837  0
H  H12  1  0.92182349  0.40198996  0.18095737  1  0  0.32463  0  0.878638  0  0  0.299919  0  0.945576  0  0  0.308888  0  0.938395  0  0.550848  0  0.331656  0.293601  0  0.950699  0
H  H13  1  0.42182248  0.09801118  0.31904356  1  0  0.324642  0  0.87863  0  0  0.299911  0  0.945587  0  0  0.30888  0  0.938406  0  0.550838  0  0.331651  0.293594  0  0.95071  0
H  H14  1  0.07817757  0.59801025  0.81904210  1  0  0.324629  0  0.878636  0  0  0.299901  0  0.945586  0  0  0.308869  0  0.938406  0  0.55085  0  0.331657  0.293583  0  0.950709  0
H  H15  1  0.57817762  0.90198799  0.68095729  1  0  0.32462  0  0.878651  0  0  0.299878  0  0.945604  0  0  0.308845  0  0.938426  0  0.550861  0  0.331631  0.293561  0  0.950726  0
H  H16  1  0.72703241  0.34899133  0.08025501  1  0  0.123768  0  0.923763  0  0  0.130139  0  0.988957  0  0  0.133665  0  0.985129  0  0.16958  0  0.146711  0.127516  0  0.991949  0
H  H17  1  0.22703333  0.15100774  0.41974526  1  0  0.123777  0  0.923758  0  0  0.130116  0  0.988991  0  0  0.133643  0  0.985162  0  0.169572  0  0.146732  0.127492  0  0.991983  0
H  H18  1  0.27296768  0.65100681  0.91974466  1  0  0.123798  0  0.923756  0  0  0.130153  0  0.988968  0  0  0.133679  0  0.985144  0  0.169584  0  0.14675  0.12753  0  0.991959  0
H  H19  1  0.77296773  0.84899248  0.58025507  1  0  0.12378  0  0.923781  0  0  0.130119  0  0.988995  0  0  0.133646  0  0.98517  0  0.169568  0  0.146723  0.127496  0  0.991985  0
H  H20  1  0.95227365  0.50681714  0.39439327  1  0  0.115817  0  0.933131  0  0  0.125987  0  0.990732  0  0  0.128739  0  0.987474  0  0.197951  0  0.142749  0.124104  0  0.992844  0
H  H21  1  0.45227264  0.99318319  0.10560765  1  0  0.115825  0  0.933166  0  0  0.125963  0  0.990789  0  0  0.128716  0  0.987531  0  0.19796  0  0.142746  0.12408  0  0.9929  0
H  H22  1  0.04772741  0.49318308  0.60560620  1  0  0.115815  0  0.93313  0  0  0.125981  0  0.990734  0  0  0.128734  0  0.987475  0  0.197951  0  0.142753  0.124097  0  0.992846  0
H  H23  1  0.54772939  0.00681703  0.89439440  1  0  0.11578  0  0.93316  0  0  0.12592  0  0.990788  0  0  0.128674  0  0.98753  0  0.197991  0  0.142737  0.124037  0  0.992899  0
H  H24  1  0.75542606  0.55977632  0.53502543  1  0  0.141435  0  0.925972  0  0  0.14899  0  0.981074  0  0  0.152471  0  0.980392  0  0.167547  0  0.128777  0.146506  0  0.981953  0
H  H25  1  0.25542504  0.94022504  0.96497496  1  0  0.141469  0  0.925932  0  0  0.149023  0  0.98104  0  0  0.152504  0  0.980359  0  0.167573  0  0.128789  0.146538  0  0.98192  0
H  H26  1  0.24457308  0.44022494  0.46497437  1  0  0.141442  0  0.925998  0  0  0.148986  0  0.981107  0  0  0.152468  0  0.980425  0  0.167539  0  0.128784  0.146502  0  0.981986  0
H  H27  1  0.74457602  0.05977414  0.03502503  1  0  0.14142  0  0.925949  0  0  0.148969  0  0.981068  0  0  0.15245  0  0.980386  0  0.167572  0  0.128764  0.146485  0  0.981948  0
H  H28  1  0.53714571  0.50934627  0.43439787  1  0  0.112325  0  0.954874  0  0  0.122713  0  1.014653  0  0  0.125541  0  1.011697  0  0.138894  0  0.122667  0.120548  0  1.016877  0
H  H29  1  0.03714470  0.99065613  0.06560285  1  0  0.112349  0  0.954889  0  0  0.122733  0  1.014663  0  0  0.125559  0  1.011708  0  0.138892  0  0.122682  0.120569  0  1.016886  0
H  H30  1  0.46285439  0.49065498  0.56560107  1  0  0.11232  0  0.954884  0  0  0.122707  0  1.014655  0  0  0.125535  0  1.011699  0  0.138363  0  0.122671  0.120545  0  1.016879  0
H  H31  1  0.96285733  0.00934201  0.93439595  1  0  0.112351  0  0.954859  0  0  0.122734  0  1.014654  0  0  0.12556  0  1.011698  0  0.138592  0  0.122664  0.120566  0  1.016876  0
C  C32  1  0.61530205  0.42478019  0.25193330  1  0  -0.166216  0  3.687733  0  0  -0.134961  0  3.936866  0  0  -0.148934  0  3.958505  0  -0.177228  0  0.004069  -0.126228  0  3.922924  0
C  C33  1  0.11530104  0.07521888  0.24806696  1  0  -0.16624  0  3.687787  0  0  -0.134973  0  3.936861  0  0  -0.148945  0  3.958498  0  -0.177252  0  0.004083  -0.126244  0  3.922925  0
C  C34  1  0.38469805  0.57521898  0.74806497  1  0  -0.166194  0  3.687805  0  0  -0.134948  0  3.936916  0  0  -0.148921  0  3.958554  0  -0.177226  0  0.004107  -0.126215  0  3.922972  0
C  C35  1  0.88470003  0.92478134  0.75193337  1  0  -0.166216  0  3.687865  0  0  -0.134896  0  3.936882  0  0  -0.148868  0  3.95852  0  -0.177383  0  0.004112  -0.126163  0  3.922938  0
C  C36  1  0.72598341  0.39738229  0.18033774  1  0  0.179467  0  3.547656  0  0  0.124968  0  3.796793  0  0  0.137204  0  3.809466  0  0.543744  0  0.096728  0.11702  0  3.788637  0
C  C37  1  0.22598239  0.10261471  0.31966271  1  0  0.179483  0  3.54756  0  0  0.125001  0  3.796659  0  0  0.137237  0  3.80933  0  0.543621  0  0.096684  0.117054  0  3.788504  0
C  C38  1  0.27401669  0.60261585  0.81966192  1  0  0.179486  0  3.547737  0  0  0.12498  0  3.796868  0  0  0.137214  0  3.80954  0  0.543761  0  0.096694  0.117032  0  3.788711  0
C  C39  1  0.77401771  0.89738551  0.68033676  1  0  0.179444  0  3.547688  0  0  0.124947  0  3.796728  0  0  0.137179  0  3.8094  0  0.543617  0  0.096694  0.116999  0  3.788572  0
C  C40  1  0.85399702  0.48641173  0.36049334  1  0  0.192555  0  3.537412  0  0  0.142893  0  3.79202  0  0  0.154823  0  3.80311  0  0.453025  0  0.097297  0.13565  0  3.783859  0
C  C41  1  0.35399504  0.01358838  0.13950725  1  0  0.192444  0  3.537549  0  0  0.14282  0  3.792115  0  0  0.154745  0  3.803209  0  0.453014  0  0.097249  0.135578  0  3.783952  0
C  C42  1  0.14600308  0.51358953  0.63950646  1  0  0.192526  0  3.537374  0  0  0.142844  0  3.791963  0  0  0.154769  0  3.803055  0  0.453033  0  0.097257  0.135602  0  3.783801  0
C  C43  1  0.64600602  0.98641080  0.86049274  1  0  0.192566  0  3.53749  0  0  0.142906  0  3.792047  0  0  0.154828  0  3.803141  0  0.453558  0  0.0973  0.135665  0  3.783883  0
C  C44  1  0.74564530  0.51525381  0.43526140  1  0  -0.073081  0  3.616014  0  0  -0.081836  0  3.869494  0  0  -0.090518  0  3.887186  0  0.080163  0  -0.046734  -0.076507  0  3.857684  0
C  C45  1  0.24564428  0.98474755  0.06473985  1  0  -0.073041  0  3.615965  0  0  -0.081828  0  3.869449  0  0  -0.09051  0  3.88714  0  0.080111  0  -0.04672  -0.076499  0  3.857639  0
C  C46  1  0.25435480  0.48474744  0.56473754  1  0  -0.073078  0  3.616016  0  0  -0.081811  0  3.869447  0  0  -0.090495  0  3.887148  0  0.080146  0  -0.046733  -0.076481  0  3.857637  0
C  C47  1  0.75435775  0.01525163  0.93526015  1  0  -0.073038  0  3.615931  0  0  -0.081795  0  3.869401  0  0  -0.090482  0  3.887109  0  0.078849  0  -0.046692  -0.076466  0  3.85759  0
C  C48  1  0.62485410  0.48540360  0.37995516  1  0  0.061728  0  3.616145  0  0  0.022627  0  3.866687  0  0  0.032514  0  3.880103  0  0.006739  0  -0.027237  0.016144  0  3.857962  0
C  C49  1  0.12485308  0.01459858  0.12004610  1  0  0.061673  0  3.616188  0  0  0.022592  0  3.866696  0  0  0.032482  0  3.880109  0  0.006812  0  -0.027254  0.016109  0  3.857971  0
C  C50  1  0.37514600  0.51459765  0.62004464  1  0  0.061673  0  3.616262  0  0  0.022589  0  3.866764  0  0  0.032474  0  3.880181  0  0.006927  0  -0.027269  0.016103  0  3.85804  0
C  C51  1  0.87514798  0.98540060  0.87995304  1  0  0.061671  0  3.616182  0  0  0.02254  0  3.866722  0  0  0.032426  0  3.880138  0  0.007473  0  -0.027278  0.016061  0  3.857993  0
S  S52  1  0.46028736  0.37700698  0.18330547  1  0  1.326591  0  5.601995  0  0  1.226597  0  6.128223  0  0  1.277799  0  6.103239  0  3.210786  0  0.547104  1.191141  0  6.144365  0
S  S53  1  0.96028644  0.12299209  0.31669565  1  0  1.326618  0  5.601889  0  0  1.226604  0  6.128119  0  0  1.277806  0  6.103142  0  3.210391  0  0.547116  1.191151  0  6.14426  0
S  S54  1  0.53971274  0.62299219  0.81669453  1  0  1.326613  0  5.601977  0  0  1.226634  0  6.128184  0  0  1.27784  0  6.103199  0  3.2105  0  0.547148  1.191179  0  6.144326  0
S  S55  1  0.03971269  0.87700605  0.68330229  1  0  1.326513  0  5.602184  0  0  1.226484  0  6.128428  0  0  1.277689  0  6.103443  0  3.210501  0  0.547035  1.191028  0  6.144574  0
S  S56  1  0.08628398  0.32075453  0.95578626  1  0  1.653285  0  5.732839  0  0  1.563934  0  6.263619  0  0  1.629951  0  6.218283  0  3.857181  0  0.623324  1.51665  0  6.294015  0
S  S57  1  0.58628499  0.17924454  0.54421486  1  0  1.653245  0  5.73287  0  0  1.563874  0  6.263674  0  0  1.629888  0  6.218344  0  3.857184  0  0.623249  1.516587  0  6.294066  0
S  S58  1  0.91371419  0.67924569  0.04421492  1  0  1.653365  0  5.732737  0  0  1.564018  0  6.263506  0  0  1.630028  0  6.218174  0  3.857182  0  0.623336  1.516728  0  6.293905  0
S  S59  1  0.41371511  0.82075568  0.45578633  1  0  1.65326  0  5.732892  0  0  1.563901  0  6.263679  0  0  1.629915  0  6.218349  0  3.857349  0  0.623306  1.516617  0  6.294074  0
N  N60  1  0.84075657  0.43038976  0.23723057  1  0  -0.189891  0  3.451614  0  0  -0.113896  0  3.674451  0  0  -0.129636  0  3.688397  0  -1.26536  0  -0.321662  -0.103799  0  3.664935  0
N  N61  1  0.34075748  0.06960931  0.26276969  1  0  -0.189876  0  3.451552  0  0  -0.113848  0  3.674317  0  0  -0.129584  0  3.688266  0  -1.265234  0  -0.321617  -0.103752  0  3.664802  0
N  N62  1  0.15924353  0.56960942  0.76276857  1  0  -0.189893  0  3.451633  0  0  -0.113848  0  3.674422  0  0  -0.129584  0  3.688366  0  -1.265367  0  -0.321646  -0.103753  0  3.664906  0
N  N63  1  0.65924455  0.93039091  0.73723063  1  0  -0.189871  0  3.451637  0  0  -0.113777  0  3.67433  0  0  -0.129507  0  3.688271  0  -1.265232  0  -0.321633  -0.103681  0  3.664813  0
O  O64  1  0.12737282  0.50148790  0.28244195  1  0  -0.703977  0  1.558003  0  0  -0.716647  0  1.848085  0  0  -0.73677  0  1.835129  0  -0.862038  0  -0.75883  -0.705584  0  1.858164  0
O  O65  1  0.62737480  0.99851451  0.21755964  1  0  -0.703984  0  1.55799  0  0  -0.716633  0  1.848067  0  0  -0.736756  0  1.835103  0  -0.861598  0  -0.758845  -0.705559  0  1.858153  0
O  O66  1  0.87262631  0.49851232  0.71755666  1  0  -0.704005  0  1.557865  0  0  -0.716662  0  1.847956  0  0  -0.736792  0  1.835004  0  -0.862037  0  -0.758833  -0.705597  0  1.858031  0
O  O67  1  0.37262819  0.00148363  0.78244346  1  0  -0.704021  0  1.557887  0  0  -0.716668  0  1.847978  0  0  -0.736799  0  1.835014  0  -0.861682  0  -0.758832  -0.705607  0  1.858058  0
O  O68  1  0.26303252  0.73196400  0.14315780  1  0  -0.701785  0  1.55294  0  0  -0.711964  0  1.842297  0  0  -0.73333  0  1.83262  0  -0.85997  0  -0.759697  -0.699954  0  1.850224  0
O  O69  1  0.76303256  0.76803737  0.35684174  1  0  -0.701771  0  1.552921  0  0  -0.711934  0  1.842257  0  0  -0.733306  0  1.832577  0  -0.85994  0  -0.759669  -0.699912  0  1.85019  0
O  O70  1  0.73696662  0.26803726  0.85684114  1  0  -0.701797  0  1.552959  0  0  -0.711953  0  1.842338  0  0  -0.733317  0  1.832654  0  -0.859963  0  -0.759711  -0.699943  0  1.850262  0
O  O71  1  0.23696753  0.23196285  0.64316375  1  0  -0.701725  0  1.553053  0  0  -0.711868  0  1.842402  0  0  -0.733232  0  1.832714  0  -0.859948  0  -0.759668  -0.699858  0  1.850326  0
O  O72  1  0.41294307  0.50444997  0.16166805  1  0  -0.751225  0  2.070225  0  0  -0.709072  0  2.340246  0  0  -0.736032  0  2.326359  0  -1.31453  0  -0.370952  -0.689463  0  2.349089  0
O  O73  1  0.91294215  0.99554932  0.33833340  1  0  -0.751263  0  2.070283  0  0  -0.709088  0  2.340296  0  0  -0.736052  0  2.326412  0  -1.314494  0  -0.370973  -0.689473  0  2.349134  0
O  O74  1  0.58705799  0.49554921  0.83833108  1  0  -0.751283  0  2.070256  0  0  -0.709095  0  2.340251  0  0  -0.73606  0  2.326366  0  -1.31456  0  -0.370974  -0.689489  0  2.349097  0
O  O75  1  0.08705891  0.00444882  0.66166627  1  0  -0.751241  0  2.070302  0  0  -0.709064  0  2.340322  0  0  -0.736028  0  2.326437  0  -1.314455  0  -0.370985  -0.689455  0  2.349158  0
O  O76  1  0.38203644  0.34477299  0.27211039  1  0  -0.611249  0  1.970906  0  0  -0.570087  0  2.222524  0  0  -0.592576  0  2.212111  0  -1.31488  0  -0.300732  -0.554164  0  2.229243  0
O  O77  1  0.88203456  0.15522504  0.22788868  1  0  -0.611241  0  1.970793  0  0  -0.570087  0  2.22241  0  0  -0.592573  0  2.211994  0  -1.314559  0  -0.300764  -0.554164  0  2.229129  0
O  O78  1  0.61796366  0.65522515  0.72788756  1  0  -0.611226  0  1.970779  0  0  -0.570104  0  2.222425  0  0  -0.592591  0  2.21201  0  -1.314571  0  -0.300775  -0.55418  0  2.229145  0
O  O79  1  0.11796554  0.84477206  0.77210979  1  0  -0.611212  0  1.970833  0  0  -0.570055  0  2.222463  0  0  -0.59254  0  2.21205  0  -1.314534  0  -0.300712  -0.554128  0  2.22918  0
O  O80  1  0.48367144  0.26340986  0.06575199  1  0  -0.640261  0  1.960019  0  0  -0.585755  0  2.196025  0  0  -0.608309  0  2.181669  0  -1.3278  0  -0.309572  -0.569517  0  2.205295  0
O  O81  1  0.98366859  0.23658921  0.43424827  1  0  -0.640276  0  1.960042  0  0  -0.585758  0  2.196044  0  0  -0.608311  0  2.181687  0  -1.327796  0  -0.309551  -0.569519  0  2.205311  0
O  O82  1  0.51632866  0.73658828  0.93424681  1  0  -0.640264  0  1.960133  0  0  -0.58577  0  2.196143  0  0  -0.608324  0  2.181786  0  -1.327793  0  -0.309568  -0.569532  0  2.205412  0
O  O83  1  0.01632861  0.76341101  0.56575034  1  0  -0.640227  0  1.960187  0  0  -0.585728  0  2.196218  0  0  -0.608283  0  2.181856  0  -1.327921  0  -0.309513  -0.569491  0  2.205492  0
O  O84  1  0.17390551  0.44121126  0.01956109  1  0  -0.769315  0  2.051046  0  0  -0.761004  0  2.34856  0  0  -0.793886  0  2.334052  0  -1.306499  0  -0.413067  -0.735973  0  2.357153  0
O  O85  1  0.67390652  0.05878885  0.48043950  1  0  -0.76935  0  2.05106  0  0  -0.761031  0  2.348575  0  0  -0.793916  0  2.334067  0  -1.30652  0  -0.413066  -0.736  0  2.357184  0
O  O86  1  0.82609363  0.55878792  0.98043890  1  0  -0.769367  0  2.050997  0  0  -0.761047  0  2.348509  0  0  -0.793931  0  2.334004  0  -1.306526  0  -0.413087  -0.736026  0  2.35712  0
O  O87  1  0.32609454  0.94121240  0.51956116  1  0  -0.769341  0  2.051098  0  0  -0.76101  0  2.348607  0  0  -0.7939  0  2.334104  0  -1.306531  0  -0.413079  -0.73598  0  2.357193  0
O  O88  1  0.01242885  0.35741762  0.86109747  1  0  -0.790055  0  2.074302  0  0  -0.779676  0  2.377348  0  0  -0.812247  0  2.363389  0  -1.316073  0  -0.404664  -0.754769  0  2.385306  0
O  O89  1  0.51242987  0.14258145  0.63890279  1  0  -0.790053  0  2.074284  0  0  -0.779658  0  2.37729  0  0  -0.812225  0  2.363329  0  -1.316072  0  -0.404674  -0.754761  0  2.385275  0
O  O90  1  0.98757028  0.64258260  0.13890200  1  0  -0.79013  0  2.074372  0  0  -0.779761  0  2.377417  0  0  -0.812324  0  2.363455  0  -1.316064  0  -0.404706  -0.754848  0  2.385373  0
O  O91  1  0.48757120  0.85741877  0.36109926  1  0  -0.790059  0  2.074355  0  0  -0.779679  0  2.377402  0  0  -0.812248  0  2.363442  0  -1.316239  0  -0.404666  -0.754769  0  2.385369  0
O  O92  1  0.17057223  0.19883702  0.89022585  1  0  -0.752075  0  2.010367  0  0  -0.738298  0  2.295756  0  0  -0.771362  0  2.282366  0  -1.308383  0  -0.40169  -0.713247  0  2.303754  0
O  O93  1  0.67057228  0.30116309  0.60977303  1  0  -0.75204  0  2.010388  0  0  -0.738227  0  2.295753  0  0  -0.771289  0  2.282366  0  -1.308389  0  -0.401648  -0.71318  0  2.303764  0
O  O94  1  0.82942787  0.80116320  0.10977534  1  0  -0.752053  0  2.010369  0  0  -0.738273  0  2.295751  0  0  -0.771333  0  2.28236  0  -1.308442  0  -0.401675  -0.713216  0  2.303755  0
O  O95  1  0.32942685  0.69883816  0.39022505  1  0  -0.75203  0  2.010333  0  0  -0.738254  0  2.295714  0  0  -0.771311  0  2.282324  0  -1.308404  0  -0.401684  -0.713195  0  2.303698  0
O  O96  1  0.00135975  0.28864201  0.04172870  1  0  -0.679459  0  1.934861  0  0  -0.642824  0  2.179782  0  0  -0.667273  0  2.163245  0  -1.335838  0  -0.314275  -0.62441  0  2.190483  0
O  O97  1  0.50135787  0.21135706  0.45827243  1  0  -0.679442  0  1.934853  0  0  -0.642826  0  2.179824  0  0  -0.66728  0  2.163292  0  -1.335823  0  -0.314239  -0.62441  0  2.190526  0
O  O98  1  0.99864035  0.71135820  0.95827163  1  0  -0.67946  0  1.934786  0  0  -0.642831  0  2.179719  0  0  -0.667281  0  2.163184  0  -1.335797  0  -0.314265  -0.624417  0  2.190422  0
O  O99  1  0.49863933  0.78864212  0.54173101  1  0  -0.67944  0  1.934801  0  0  -0.64282  0  2.179745  0  0  -0.667267  0  2.163212  0  -1.335816  0  -0.314254  -0.624404  0  2.190444  0
O  O100  1  0.08793807  0.80911606  0.36488369  1  0  -0.875489  0  1.908621  0  0  -0.853758  0  2.106343  0  0  -0.878869  0  2.077131  0  -1.278654  0  -0.623659  -0.835394  0  2.126524  0
O  O101  1  0.58793908  0.69088530  0.13511584  1  0  -0.875482  0  1.908595  0  0  -0.853749  0  2.106311  0  0  -0.878864  0  2.077097  0  -1.278647  0  -0.623667  -0.835378  0  2.126498  0
O  O102  1  0.91206107  0.19088520  0.63511611  1  0  -0.875487  0  1.908608  0  0  -0.853754  0  2.106351  0  0  -0.878869  0  2.077139  0  -1.278653  0  -0.623667  -0.835392  0  2.126533  0
O  O103  1  0.41206198  0.30911491  0.86488535  1  0  -0.875483  0  1.908622  0  0  -0.853746  0  2.106355  0  0  -0.878864  0  2.077144  0  -1.278641  0  -0.623654  -0.835382  0  2.126537  0
