# generated using pymatgen
data_CdH16C16SO10
_symmetry_space_group_name_H-M   'P 1'
_cell_length_a   5.25653114
_cell_length_b   6.59172989
_cell_length_c   13.88590036
_cell_angle_alpha   81.90371248
_cell_angle_beta   79.09087805
_cell_angle_gamma   66.50769279
_symmetry_Int_Tables_number   1
_chemical_formula_structural   CdH16C16SO10
_chemical_formula_sum   'Cd1 H16 C16 S1 O10'
_cell_volume   432.14308542
_cell_formula_units_Z   1
loop_
 _symmetry_equiv_pos_site_id
 _symmetry_equiv_pos_as_xyz
  1  'x, y, z'
loop_
 _atom_site_type_symbol
 _atom_site_label
 _atom_site_symmetry_multiplicity
 _atom_site_fract_x
 _atom_site_fract_y
 _atom_site_fract_z
 _atom_site_occupancy
 _atom_site_hle17_bader_spin_density
 _atom_site_hle17_ddec_charge
 _atom_site_hle17_ddec_spin_density
 _atom_site_hle17_ddec_sum_bond_order
 _atom_site_hle17_magmom
 _atom_site_hse06_10hf_bader_spin_density
 _atom_site_hse06_10hf_ddec_charge
 _atom_site_hse06_10hf_ddec_spin_density
 _atom_site_hse06_10hf_ddec_sum_bond_order
 _atom_site_hse06_10hf_magmom
 _atom_site_hse06_bader_spin_density
 _atom_site_hse06_ddec_charge
 _atom_site_hse06_ddec_spin_density
 _atom_site_hse06_ddec_sum_bond_order
 _atom_site_hse06_magmom
 _atom_site_pbe_bader_spin_density
 _atom_site_pbe_cm5_charge
 _atom_site_pbe_ddec_charge
 _atom_site_pbe_ddec_spin_density
 _atom_site_pbe_ddec_sum_bond_order
 _atom_site_pbe_magmom
Cd  Cd0  1  0.57119126  0.50016628  0.49998250  1  0  1.275929  0  1.513009  0  0  1.094722  0  1.959063  0  0  1.154078  0  1.897155  0  0  0.783717  1.052099  0  2.001909  0
H  H1  1  0.01872177  0.12443828  0.57483790  1  0  0.431309  0  0.872203  0  0  0.398733  0  0.937799  0  0  0.410388  0  0.921261  0  0  0.288101  0.390402  0  0.949605  0
H  H2  1  0.71820443  0.87567712  0.42511828  1  0  0.431258  0  0.872565  0  0  0.398776  0  0.93813  0  0  0.41046  0  0.921535  0  0  0.288003  0.390453  0  0.949924  0
H  H3  1  0.00338247  0.35727907  0.61065791  1  0  0.437323  0  0.864448  0  0  0.402352  0  0.934218  0  0  0.414008  0  0.917383  0  0  0.291263  0.394052  0  0.946181  0
H  H4  1  0.97172579  0.64274880  0.38944528  1  0  0.437438  0  0.864479  0  0  0.402245  0  0.934473  0  0  0.413915  0  0.917633  0  0  0.291117  0.393958  0  0.946414  0
H  H5  1  0.78904477  0.95352737  0.71898450  1  0  0.096338  0  0.953558  0  0  0.103761  0  1.022864  0  0  0.104014  0  1.024576  0  0  0.112842  0.103543  0  1.021824  0
H  H6  1  0.46098927  0.04671687  0.28093819  1  0  0.096378  0  0.953164  0  0  0.103881  0  1.022164  0  0  0.104197  0  1.023836  0  0  0.112985  0.103674  0  1.021148  0
H  H7  1  0.63838378  0.96358294  0.61266860  1  0  0.101966  0  0.923782  0  0  0.11292  0  0.986087  0  0  0.115089  0  0.984203  0  0  0.113233  0.111385  0  0.98751  0
H  H8  1  0.21426075  0.03680247  0.38728007  1  0  0.101453  0  0.924984  0  0  0.11206  0  0.987316  0  0  0.114238  0  0.985508  0  0  0.113106  0.110539  0  0.988726  0
H  H9  1  0.32210363  0.13232856  0.74453668  1  0  0.11506  0  0.954688  0  0  0.128163  0  1.010946  0  0  0.1317  0  1.009225  0  0  0.107631  0.125604  0  1.012385  0
H  H10  1  0.19867062  0.86794779  0.25552343  1  0  0.115456  0  0.954116  0  0  0.128748  0  1.010312  0  0  0.132362  0  1.008458  0  0  0.108149  0.126216  0  1.011712  0
H  H11  1  0.88504201  0.25129399  0.86096023  1  0  0.107615  0  0.931117  0  0  0.120568  0  0.986405  0  0  0.123414  0  0.984369  0  0  0.112527  0.118546  0  0.987833  0
H  H12  1  0.99738523  0.74856920  0.13912159  1  0  0.107855  0  0.930939  0  0  0.120669  0  0.986338  0  0  0.123499  0  0.984323  0  0  0.112521  0.118573  0  0.987927  0
H  H13  1  0.99342863  0.56799469  0.94229778  1  0  0.117762  0  0.941555  0  0  0.127375  0  1.001597  0  0  0.130674  0  0.999316  0  0  0.111309  0.12497  0  1.003319  0
H  H14  1  0.50328103  0.43165397  0.05772177  1  0  0.117243  0  0.942604  0  0  0.12697  0  1.002551  0  0  0.130363  0  1.000179  0  0  0.111164  0.124558  0  1.004253  0
H  H15  1  0.42988422  0.44655708  0.82226092  1  0  0.122592  0  0.950391  0  0  0.13105  0  1.012877  0  0  0.134931  0  1.010512  0  0  0.108542  0.128223  0  1.014785  0
H  H16  1  0.69813546  0.55353488  0.17766286  1  0  0.122319  0  0.951226  0  0  0.131508  0  1.012771  0  0  0.135376  0  1.010474  0  0  0.108851  0.128681  0  1.014711  0
C  C17  1  0.77067817  0.85133067  0.66630211  1  0  -0.084693  0  3.64997  0  0  -0.137097  0  3.90577  0  0  -0.135066  0  3.908412  0  0  -0.067958  -0.138547  0  3.903926  0
C  C18  1  0.28792807  0.14901566  0.33363752  1  0  -0.084928  0  3.650493  0  0  -0.136806  0  3.904435  0  0  -0.135017  0  3.907215  0  0  -0.067925  -0.13828  0  3.902673  0
C  C19  1  0.06058577  0.73275861  0.61168887  1  0  0.674485  0  3.859435  0  0  0.6167  0  4.164428  0  0  0.650199  0  4.15905  0  0  0.20907  0.59388  0  4.167329  0
C  C20  1  0.40508730  0.26722305  0.38824715  1  0  0.674604  0  3.861336  0  0  0.616835  0  4.16568  0  0  0.65041  0  4.160249  0  0  0.20858  0.594011  0  4.168609  0
C  C21  1  0.40569786  0.78003603  0.77618547  1  0  0.275306  0  3.788842  0  0  0.265773  0  4.050321  0  0  0.278191  0  4.066107  0  0  0.086427  0.257354  0  4.039557  0
C  C22  1  0.96146294  0.22013770  0.22383635  1  0  0.27528  0  3.789282  0  0  0.265671  0  4.0505  0  0  0.27805  0  4.066268  0  0  0.086292  0.257209  0  4.039779  0
C  C23  1  0.25095859  0.00725334  0.78604928  1  0  -0.192637  0  3.731481  0  0  -0.213813  0  3.987127  0  0  -0.220009  0  4.004803  0  0  -0.106045  -0.20981  0  3.975366  0
C  C24  1  0.04402078  0.99288796  0.21396953  1  0  -0.193496  0  3.730398  0  0  -0.215056  0  3.985807  0  0  -0.221313  0  4.003495  0  0  -0.106859  -0.211049  0  3.974013  0
C  C25  1  0.00278155  0.07503515  0.85214580  1  0  -0.02128  0  3.741434  0  0  -0.046375  0  3.994165  0  0  -0.041621  0  4.010042  0  0  -0.077292  -0.049302  0  3.98328  0
C  C26  1  0.92984580  0.92489849  0.14788317  1  0  -0.020937  0  3.740809  0  0  -0.045964  0  3.993601  0  0  -0.041216  0  4.009495  0  0  -0.077237  -0.048899  0  3.982835  0
C  C27  1  0.91099695  0.91691818  0.90794821  1  0  -0.151569  0  3.774608  0  0  -0.129884  0  4.031609  0  0  -0.138938  0  4.054974  0  0  -0.035864  -0.123893  0  4.015828  0
C  C28  1  0.73573064  0.08283260  0.09205832  1  0  -0.151398  0  3.774145  0  0  -0.129597  0  4.030963  0  0  -0.13864  0  4.054346  0  0  -0.035663  -0.123594  0  4.015136  0
C  C29  1  0.06414376  0.69020464  0.89741143  1  0  -0.029745  0  3.73017  0  0  -0.056003  0  3.980356  0  0  -0.052148  0  3.997796  0  0  -0.079115  -0.058321  0  3.968427  0
C  C30  1  0.65155341  0.30961231  0.10257884  1  0  -0.029825  0  3.730657  0  0  -0.056307  0  3.98114  0  0  -0.052539  0  3.998583  0  0  -0.079397  -0.058539  0  3.969159  0
C  C31  1  0.30933564  0.62227652  0.83074290  1  0  -0.159898  0  3.701054  0  0  -0.181739  0  3.957226  0  0  -0.187691  0  3.974729  0  0  -0.097573  -0.177907  0  3.945623  0
C  C32  1  0.76196406  0.37775862  0.16923981  1  0  -0.159464  0  3.700475  0  0  -0.182126  0  3.956993  0  0  -0.188076  0  3.974455  0  0  -0.097741  -0.178319  0  3.945417  0
S  S33  1  0.61263278  0.99972161  0.00000337  1  0  1.07144  0  5.2746  0  0  0.996119  0  5.768164  0  0  1.035984  0  5.757531  0  0  0.469473  0.967903  0  5.776181  0
O  O34  1  0.65512155  0.69576741  0.71511357  1  0  -0.260572  0  2.351401  0  0  -0.191114  0  2.585308  0  0  -0.208759  0  2.588629  0  0  -0.176698  -0.178671  0  2.582603  0
O  O35  1  0.06549131  0.30456250  0.28489537  1  0  -0.260419  0  2.351098  0  0  -0.190395  0  2.583974  0  0  -0.207794  0  2.587199  0  0  -0.176235  -0.177939  0  2.581351  0
O  O36  1  0.17505331  0.52160097  0.61569318  1  0  -0.644226  0  2.033091  0  0  -0.570321  0  2.274359  0  0  -0.600752  0  2.263864  0  0  -0.309628  -0.548999  0  2.280927  0
O  O37  1  0.31266792  0.47840645  0.38431744  1  0  -0.64486  0  2.034138  0  0  -0.57068  0  2.275122  0  0  -0.601175  0  2.264642  0  0  -0.309542  -0.549353  0  2.281682  0
O  O38  1  0.18401930  0.85318154  0.56109766  1  0  -0.647998  0  1.976112  0  0  -0.580085  0  2.210084  0  0  -0.609407  0  2.200708  0  0  -0.314231  -0.559475  0  2.21594  0
O  O39  1  0.59826383  0.14669873  0.43884326  1  0  -0.646917  0  1.977807  0  0  -0.579694  0  2.212077  0  0  -0.608994  0  2.202606  0  0  -0.313699  -0.559041  0  2.217844  0
O  O40  1  0.89414643  0.28023417  0.59100580  1  0  -0.872396  0  1.893275  0  0  -0.804166  0  2.114146  0  0  -0.829538  0  2.076542  0  0  -0.592792  -0.786153  0  2.140259  0
O  O41  1  0.76577540  0.71975096  0.40907363  1  0  -0.872713  0  1.89319  0  0  -0.804179  0  2.113806  0  0  -0.829594  0  2.076232  0  0  -0.592832  -0.786186  0  2.14002  0
O  O42  1  0.39402566  0.19557194  0.96294109  1  0  -0.58841  0  1.985359  0  0  -0.541868  0  2.23776  0  0  -0.563396  0  2.230811  0  0  -0.310176  -0.52653  0  2.242008  0
O  O43  1  0.55348841  0.80350873  0.03709212  1  0  -0.588027  0  1.986003  0  0  -0.54233  0  2.239161  0  0  -0.563857  0  2.232166  0  0  -0.310396  -0.527024  0  2.243605  0
