# generated using pymatgen
data_NiH12C16O9
_symmetry_space_group_name_H-M   'P 1'
_cell_length_a   7.65610468
_cell_length_b   10.58943745
_cell_length_c   21.49816024
_cell_angle_alpha   89.79044800
_cell_angle_beta   90.02028921
_cell_angle_gamma   102.15669940
_symmetry_Int_Tables_number   1
_chemical_formula_structural   NiH12C16O9
_chemical_formula_sum   'Ni4 H48 C64 O36'
_cell_volume   1703.84205429
_cell_formula_units_Z   4
loop_
 _symmetry_equiv_pos_site_id
 _symmetry_equiv_pos_as_xyz
  1  'x, y, z'
loop_
 _atom_site_type_symbol
 _atom_site_label
 _atom_site_symmetry_multiplicity
 _atom_site_fract_x
 _atom_site_fract_y
 _atom_site_fract_z
 _atom_site_occupancy
 _atom_site_pbe_bader_charge
 _atom_site_pbe_bader_spin_density
 _atom_site_pbe_cm5_charge
 _atom_site_pbe_ddec_charge
 _atom_site_pbe_ddec_spin_density
 _atom_site_pbe_ddec_sum_bond_order
 _atom_site_pbe_magmom
Ni  Ni0  1  0.31842632  0.01969174  0.24711389  1  1.205234  -1.556938  0.6111  0.96502  -1.830855  2.220506  -1.548
Ni  Ni1  1  0.18179461  0.98039463  0.74716083  1  1.173675  -0.038894  0.592873  0.929214  0.049432  2.251204  -0.038
Ni  Ni2  1  0.68164181  0.98033539  0.75287329  1  1.206056  -1.557116  0.611254  0.965216  -1.831075  2.220014  -1.548
Ni  Ni3  1  0.81827588  0.01960939  0.25280684  1  1.173803  -0.039172  0.593419  0.929618  0.04945  2.253061  -0.038
H  H4  1  0.54793117  0.65446261  0.23821100  1  0.137169  -5e-05  0.109936  0.121175  1.5e-05  1.028107  0.0
H  H5  1  0.95289649  0.34757879  0.73907039  1  0.148054  -1.2e-05  0.109974  0.121025  2.2e-05  1.024273  0.0
H  H6  1  0.45258467  0.34615669  0.76144495  1  0.140354  -5.1e-05  0.110132  0.1215  1.5e-05  1.026039  0.0
H  H7  1  0.04846218  0.65191734  0.26147321  1  0.146169  -1.3e-05  0.109818  0.120373  2.1e-05  1.025361  0.0
H  H8  1  0.37621377  0.42679109  0.24038885  1  0.09987  -8.2e-05  0.110123  0.115783  -3e-05  0.990858  0.0
H  H9  1  0.12380226  0.57549289  0.74064877  1  0.093162  -7.2e-05  0.110544  0.115659  -2.3e-05  0.990642  0.0
H  H10  1  0.62358736  0.57401459  0.75923293  1  0.094827  -8.3e-05  0.11053  0.116276  -2.9e-05  0.990816  0.0
H  H11  1  0.87718095  0.42401900  0.25991480  1  0.093737  -7.1e-05  0.110641  0.116594  -2.2e-05  0.989829  0.0
H  H12  1  0.65404507  0.22844370  0.53934740  1  0.087546  -0.000291  0.108549  0.111171  -0.000174  0.994465  0.0
H  H13  1  0.84554474  0.77194570  0.03934062  1  0.083914  -0.000307  0.108604  0.110716  -0.000177  0.994269  0.0
H  H14  1  0.34509376  0.77214340  0.46024895  1  0.081643  -0.000298  0.108196  0.11017  -0.000178  0.993998  0.0
H  H15  1  0.15403063  0.22713027  0.96111905  1  0.123947  -0.000293  0.10848  0.110508  -0.000171  0.993509  0.0
H  H16  1  0.83291008  0.32033422  0.63221613  1  0.128293  -0.000213  0.100903  0.107497  -0.000175  1.038127  0.0
H  H17  1  0.66689076  0.67923850  0.13227816  1  0.129615  -0.000198  0.10104  0.107919  -0.000143  1.038656  0.0
H  H18  1  0.16661430  0.67998181  0.36741538  1  0.121271  -0.000208  0.101218  0.10793  -0.000169  1.038763  0.0
H  H19  1  0.33241838  0.31978497  0.86808526  1  0.132629  -0.000205  0.101317  0.108328  -0.00015  1.038018  0.0
H  H20  1  0.96324634  0.55803975  0.63643877  1  0.096322  -7.2e-05  0.102953  0.101203  -4.8e-05  1.00375  0.0
H  H21  1  0.53657745  0.44142692  0.13688011  1  0.093772  -7.1e-05  0.103025  0.101237  -5.3e-05  1.004684  0.0
H  H22  1  0.03678089  0.44215585  0.36321799  1  0.093253  -7e-05  0.103072  0.101488  -4.7e-05  1.004871  0.0
H  H23  1  0.46263470  0.55755546  0.86338752  1  0.097692  -7.1e-05  0.102943  0.101578  -5.4e-05  1.002724  0.0
H  H24  1  0.91644481  0.69967162  0.54812218  1  0.135126  -8.3e-05  0.111403  0.119643  -6.1e-05  0.991441  0.0
H  H25  1  0.58367679  0.30057160  0.04879783  1  0.136823  -4.6e-05  0.111233  0.119435  -2.8e-05  0.99212  0.0
H  H26  1  0.08395563  0.30075449  0.45154742  1  0.078886  -8.6e-05  0.111365  0.119378  -6.1e-05  0.992245  0.0
H  H27  1  0.41577539  0.69853894  0.95149946  1  0.08567  -4.7e-05  0.11108  0.119105  -2.8e-05  0.99234  0.0
H  H28  1  0.60912547  0.09194142  0.17987257  1  0.656263  0.000153  0.293606  0.381964  0.000324  0.963508  0.0
H  H29  1  0.89022092  0.90683217  0.68006748  1  0.657531  1.4e-05  0.293792  0.383015  0.000277  0.961681  0.0
H  H30  1  0.39078674  0.90772764  0.82004654  1  0.656518  0.000161  0.293677  0.381927  0.000326  0.963635  0.0
H  H31  1  0.10986159  0.09385487  0.31968188  1  0.656091  1.1e-05  0.293385  0.38213  0.000271  0.963144  0.0
H  H32  1  0.53222962  0.92511955  0.18821033  1  0.658281  4.3e-05  0.293874  0.38165  0.000294  0.965351  0.0
H  H33  1  0.96711855  0.07362320  0.68822933  1  0.660946  9.2e-05  0.293888  0.381059  0.00027  0.966246  0.0
H  H34  1  0.46779174  0.07450717  0.81188838  1  0.659405  4.1e-05  0.293639  0.381475  0.000296  0.965558  0.0
H  H35  1  0.03333334  0.92677730  0.31180917  1  0.656046  8.2e-05  0.293746  0.380813  0.000272  0.966673  0.0
H  H36  1  0.14552295  0.16733692  0.18695885  1  0.67621  8.5e-05  0.29242  0.385095  -0.000149  0.962113  0.0
H  H37  1  0.35344574  0.83091089  0.68632411  1  0.658898  -0.00019  0.290196  0.382875  -0.000353  0.965483  0.0
H  H38  1  0.85419370  0.83235994  0.81307094  1  0.672898  8.4e-05  0.29201  0.384524  -0.000154  0.962841  0.0
H  H39  1  0.64649619  0.16894812  0.31394650  1  0.658916  -0.000186  0.290111  0.382655  -0.000345  0.965933  0.0
H  H40  1  0.26735421  0.12016609  0.13692760  1  0.62614  -0.000458  0.33095  0.414311  -0.000386  0.851807  0.0
H  H41  1  0.23103075  0.87867064  0.63649165  1  0.617161  -0.000757  0.329608  0.412305  -0.00062  0.854235  -0.001
H  H42  1  0.73127421  0.87902239  0.86291140  1  0.632573  -0.000431  0.330943  0.414066  -0.000386  0.852273  0.0
H  H43  1  0.76897429  0.12143912  0.36388990  1  0.610473  -0.000787  0.329391  0.411884  -0.000635  0.854643  -0.001
H  H44  1  0.48919384  0.87537670  0.31489699  1  0.674315  5.2e-05  0.294689  0.389452  -0.00025  0.952891  0.0
H  H45  1  0.01214432  0.12639106  0.81582307  1  0.6592  -0.000311  0.292796  0.387948  -0.000463  0.955417  0.0
H  H46  1  0.51136417  0.12506065  0.68508194  1  0.656946  4.4e-05  0.294881  0.389485  -0.000253  0.952965  0.0
H  H47  1  0.98792315  0.87391957  0.18381126  1  0.65926  -0.000309  0.292716  0.388195  -0.000457  0.955189  0.0
H  H48  1  0.36869451  0.94199116  0.35795809  1  0.625141  -0.000133  0.333046  0.409856  -0.000131  0.853706  0.0
H  H49  1  0.13327043  0.05920247  0.85855188  1  0.578428  -0.000555  0.331068  0.407025  -0.000434  0.857023  0.0
H  H50  1  0.63320730  0.05934980  0.64213547  1  0.58804  -0.000167  0.333017  0.410377  -0.000126  0.852019  0.0
H  H51  1  0.86759713  0.94160550  0.14094716  1  0.608281  -0.00053  0.331476  0.408718  -0.000444  0.854213  0.0
C  C52  1  0.65416432  0.64610255  0.33064362  1  0.000118  -0.003811  0.000871  -0.038352  -0.002298  3.925512  -0.003
C  C53  1  0.84601761  0.35542278  0.83137292  1  -0.084843  -0.00326  0.000827  -0.036479  -0.002018  3.920926  -0.003
C  C54  1  0.34617818  0.35421061  0.66901678  1  0.002274  -0.003838  0.001076  -0.036417  -0.002314  3.922028  -0.003
C  C55  1  0.15430899  0.64416203  0.16899145  1  -0.01556  -0.003304  0.000844  -0.036886  -0.002048  3.921557  -0.003
C  C56  1  0.55218839  0.59421973  0.27921198  1  -0.065929  0.000133  -0.072403  -0.080202  0.000204  3.927381  0.0
C  C57  1  0.94827010  0.40763080  0.77989670  1  0.009412  -0.001853  -0.072483  -0.082257  -0.001065  3.928349  -0.001
C  C58  1  0.44817354  0.40633798  0.72042122  1  -0.06672  0.000154  -0.072675  -0.082089  0.000221  3.927006  0.0
C  C59  1  0.05264565  0.59188723  0.22059290  1  -0.038157  -0.001841  -0.071907  -0.080785  -0.001057  3.928274  -0.001
C  C60  1  0.45669281  0.46674559  0.28037725  1  -0.015606  -0.002589  -0.07225  -0.086256  -0.00147  3.941039  -0.002
C  C61  1  0.04340445  0.53519822  0.78072069  1  -0.000291  -0.000215  -0.071025  -0.082251  -4e-05  3.93702  0.0
C  C62  1  0.54333837  0.53390918  0.71922933  1  -0.00097  -0.002599  -0.072571  -0.085892  -0.001477  3.940619  -0.002
C  C63  1  0.95726730  0.46437412  0.21978233  1  -0.01248  -0.000255  -0.071823  -0.085346  -6.4e-05  3.937481  0.0
C  C64  1  0.46589651  0.38797870  0.33208828  1  -0.079518  -0.003866  0.00733  -0.021124  -0.002314  3.921631  -0.003
C  C65  1  0.03385632  0.61380895  0.83220343  1  0.013192  -0.004022  0.00619  -0.023232  -0.002435  3.920434  -0.003
C  C66  1  0.53396454  0.61259031  0.66749975  1  0.016289  -0.003824  0.007453  -0.02216  -0.002286  3.921164  -0.003
C  C67  1  0.96620417  0.38599538  0.16818678  1  0.012509  -0.004012  0.007335  -0.020395  -0.002429  3.920771  -0.003
C  C68  1  0.71462738  0.33107775  0.54206637  1  -0.00752  -0.000452  -0.074277  -0.079933  -0.00032  3.937361  0.0
C  C69  1  0.78511523  0.66925765  0.04214638  1  0.064913  -0.000273  -0.073227  -0.077318  -0.000215  3.933122  0.0
C  C70  1  0.28483854  0.66945770  0.45756075  1  0.011743  -0.000453  -0.073652  -0.0776  -0.000322  3.932748  0.0
C  C71  1  0.21440088  0.32983015  0.95827049  1  -0.02486  -0.000287  -0.073053  -0.076649  -0.000217  3.932273  0.0
C  C72  1  0.81314781  0.38333174  0.59387702  1  -0.104052  -0.000142  -0.07884  -0.06484  -0.000135  3.952413  0.0
C  C73  1  0.68666942  0.61653392  0.09406009  1  -0.106802  -0.00033  -0.078311  -0.064203  -0.000246  3.951025  0.0
C  C74  1  0.18643898  0.61704124  0.40575351  1  -0.106325  -0.000133  -0.079512  -0.066381  -0.000128  3.953033  0.0
C  C75  1  0.31272259  0.38250487  0.90631867  1  -0.039877  -0.000337  -0.0792  -0.06636  -0.000252  3.95127  0.0
C  C76  1  0.88733574  0.51584760  0.59592798  1  -0.040236  -0.000387  -0.075827  -0.059597  -0.000212  3.961363  0.0
C  C77  1  0.61258516  0.48400345  0.09632953  1  0.025487  -0.000156  -0.076365  -0.061321  -9e-05  3.96351  0.0
C  C78  1  0.11257188  0.48449698  0.40371562  1  -0.046913  -0.000387  -0.07586  -0.060512  -0.000213  3.96334  0.0
C  C79  1  0.38678434  0.51504333  0.90398364  1  -0.039732  -0.000167  -0.076221  -0.060892  -9.6e-05  3.962364  0.0
C  C80  1  0.86266617  0.59607730  0.54658880  1  -0.013086  -3.7e-05  -0.070309  -0.075664  -2.1e-05  3.936444  0.0
C  C81  1  0.63737791  0.40419652  0.04713322  1  -0.08981  -0.000167  -0.070637  -0.074798  -9.4e-05  3.936805  0.0
C  C82  1  0.13743455  0.40438686  0.45306540  1  0.048536  -3.4e-05  -0.070598  -0.074639  -2.1e-05  3.93627  0.0
C  C83  1  0.36214865  0.59490035  0.95318177  1  -0.030182  -0.000163  -0.070519  -0.074543  -9.3e-05  3.937025  0.0
C  C84  1  0.73903966  0.63103530  0.44252867  1  0.879395  -0.000194  0.1554  0.338677  -8.3e-05  4.03508  0.0
C  C85  1  0.76093375  0.37000904  0.94317386  1  0.877152  -0.000539  0.15583  0.33946  -0.000272  4.031936  0.0
C  C86  1  0.26095392  0.36945992  0.55711619  1  0.881093  -0.000188  0.155038  0.33803  -7.9e-05  4.032277  0.0
C  C87  1  0.23921967  0.62933259  0.05715165  1  0.874167  -0.000543  0.155851  0.339912  -0.000275  4.032241  0.0
C  C88  1  0.59073758  0.35208381  0.43647913  1  0.880937  -0.001153  0.154822  0.346104  -0.000775  4.020967  -0.001
C  C89  1  0.90856567  0.64907546  0.93645283  1  0.881796  -0.000652  0.156155  0.347102  -0.000483  4.019185  0.0
C  C90  1  0.40856455  0.64852103  0.56323675  1  0.886595  -0.00115  0.156186  0.347234  -0.000773  4.018664  -0.001
C  C91  1  0.09144441  0.35027152  0.06402849  1  0.944111  -0.000682  0.156808  0.347402  -0.000504  4.015885  0.0
C  C92  1  0.69115170  0.41021309  0.49178305  1  -0.028194  -3.2e-05  -0.017345  -0.049035  3.4e-05  3.994506  0.0
C  C93  1  0.80867669  0.59056203  0.99197850  1  -0.096517  -0.000116  -0.017842  -0.049605  -3.5e-05  3.993565  0.0
C  C94  1  0.30849597  0.59042547  0.50786817  1  -0.044213  -3.3e-05  -0.017412  -0.04855  3.4e-05  3.992981  0.0
C  C95  1  0.19102503  0.40857972  0.00843135  1  -0.123757  -0.000115  -0.017965  -0.049411  -3.2e-05  3.992839  0.0
C  C96  1  0.76516576  0.54415363  0.49429369  1  -0.011879  -0.000274  -0.015009  -0.044408  -0.000137  3.986491  0.0
C  C97  1  0.73481834  0.45658676  0.99475208  1  -0.007163  -0.000128  -0.015086  -0.046115  -4.6e-05  3.98563  0.0
C  C98  1  0.23478067  0.45643919  0.50536457  1  -0.008065  -0.000275  -0.014827  -0.045176  -0.000137  3.984906  0.0
C  C99  1  0.26487989  0.54256102  0.00559729  1  -0.006795  -0.000135  -0.014564  -0.045715  -5e-05  3.987531  0.0
C  C100  1  0.65591915  0.57025582  0.38432381  1  -0.004407  -0.0002  -0.003668  -0.046221  -6.6e-05  3.945219  0.0
C  C101  1  0.84392186  0.43108299  0.88480502  1  0.004877  -0.002486  -0.00209  -0.044744  -0.001391  3.940022  -0.001
C  C102  1  0.34402078  0.43013207  0.61535650  1  -0.008059  -0.000174  -0.003456  -0.046148  -4.7e-05  3.942883  0.0
C  C103  1  0.15616066  0.56847122  0.11553843  1  -0.012004  -0.002482  -0.002392  -0.04486  -0.001386  3.941091  -0.001
C  C104  1  0.56770609  0.43902575  0.38405420  1  0.027037  -0.002258  -0.005933  -0.058766  -0.001299  3.949674  -0.001
C  C105  1  0.93198588  0.56238976  0.88425680  1  -0.07961  -0.000629  -0.007245  -0.060689  -0.000369  3.94936  0.0
C  C106  1  0.43199779  0.56144368  0.61559020  1  -0.080615  -0.002276  -0.006393  -0.059326  -0.001308  3.94942  -0.001
C  C107  1  0.06803952  0.43721464  0.11611963  1  -0.075948  -0.000668  -0.007336  -0.06131  -0.000394  3.951018  0.0
C  C108  1  0.36239338  0.25076079  0.32794323  1  1.618017  -0.000869  0.226498  0.598766  -0.000748  4.180603  0.0
C  C109  1  0.13808293  0.75085801  0.82795632  1  1.622468  -0.000545  0.2279  0.596189  -0.000597  4.177509  0.0
C  C110  1  0.63737982  0.74986065  0.67160429  1  1.635683  -0.000862  0.226741  0.600187  -0.000763  4.180995  0.0
C  C111  1  0.86172480  0.24906006  0.17232166  1  1.623966  -0.000552  0.227245  0.594417  -0.000607  4.178374  0.0
C  C112  1  0.77274171  0.77738314  0.32276696  1  1.58083  -0.000322  0.228239  0.598292  -0.000404  4.160736  0.0
C  C113  1  0.72846331  0.22367504  0.82384081  1  1.57871  -0.000976  0.227683  0.601022  -0.000765  4.163446  0.0
C  C114  1  0.22779125  0.22280878  0.67696193  1  1.576429  -0.000302  0.228429  0.597844  -0.000386  4.158329  0.0
C  C115  1  0.27164838  0.77597876  0.17648116  1  1.579834  -0.000955  0.228501  0.601408  -0.000745  4.1657  0.0
O  O116  1  0.53509709  0.23369844  0.43191081  1  -1.052686  -0.001692  -0.255178  -0.395812  -0.000853  2.103089  -0.001
O  O117  1  0.96343208  0.76755888  0.93144809  1  -1.05833  -0.001229  -0.256398  -0.397174  -0.000657  2.101772  -0.001
O  O118  1  0.46364563  0.76693159  0.56793899  1  -1.053037  -0.001696  -0.256008  -0.396423  -0.000857  2.101692  -0.001
O  O119  1  0.03694823  0.23177644  0.06920630  1  -1.062975  -0.001257  -0.2567  -0.397739  -0.000672  2.101605  -0.001
O  O120  1  0.77654713  0.74983907  0.44785367  1  -1.038397  -0.000305  -0.249487  -0.3723  -0.000147  2.081055  0.0
O  O121  1  0.72342743  0.25117726  0.94877635  1  -1.021155  -0.000958  -0.249787  -0.372242  -0.000502  2.081366  -0.001
O  O122  1  0.22351284  0.25066886  0.55173491  1  -1.030715  -0.000297  -0.249167  -0.37184  -0.000142  2.080427  0.0
O  O123  1  0.27698311  0.74814600  0.05148453  1  -1.012964  -0.000969  -0.249312  -0.371941  -0.00051  2.080828  -0.001
O  O124  1  0.93914963  0.78852795  0.32665206  1  -1.148423  -0.002835  -0.287718  -0.500389  -0.001527  2.221284  -0.003
O  O125  1  0.56172582  0.21223109  0.82730498  1  -1.140283  -0.000623  -0.289877  -0.50422  0.000121  2.217529  -0.001
O  O126  1  0.06134347  0.21169264  0.67317031  1  -1.145106  -0.00283  -0.28842  -0.501005  -0.001524  2.219124  -0.003
O  O127  1  0.43839940  0.78743317  0.17305745  1  -1.14177  -0.000605  -0.289948  -0.503809  0.000131  2.22035  0.0
O  O128  1  0.69526587  0.86901972  0.30529458  1  -1.153507  -0.017623  -0.308652  -0.570903  -0.010073  2.424683  -0.015
O  O129  1  0.80638273  0.13232655  0.80709603  1  -1.165761  -0.052339  -0.312006  -0.584219  -0.030843  2.409263  -0.048
O  O130  1  0.30518393  0.13112022  0.69440133  1  -1.152777  -0.017421  -0.308011  -0.570607  -0.009946  2.420815  -0.015
O  O131  1  0.19361027  0.86729681  0.19313107  1  -1.163409  -0.052395  -0.312381  -0.584434  -0.030888  2.409546  -0.048
O  O132  1  0.20296366  0.22340126  0.34595605  1  -1.147494  -0.000579  -0.287886  -0.490625  0.000169  2.178213  0.0
O  O133  1  0.29668037  0.77803844  0.84660216  1  -1.160778  -0.002897  -0.286106  -0.488429  -0.001563  2.179987  -0.003
O  O134  1  0.79658495  0.77750145  0.65337444  1  -1.161533  -0.000592  -0.288549  -0.492644  0.000164  2.177868  0.0
O  O135  1  0.70334259  0.22180764  0.15348891  1  -1.16084  -0.002877  -0.285924  -0.487792  -0.001551  2.181578  -0.003
O  O136  1  0.44290261  0.17402726  0.29808707  1  -1.153202  -0.055208  -0.31644  -0.586685  -0.032509  2.434426  -0.051
O  O137  1  0.05862665  0.82777531  0.79724245  1  -1.14335  -0.019604  -0.312639  -0.572251  -0.011136  2.44446  -0.017
O  O138  1  0.55704646  0.82640948  0.70170483  1  -1.159485  -0.055188  -0.316406  -0.586465  -0.032501  2.436302  -0.051
O  O139  1  0.94115640  0.17227669  0.20314287  1  -1.145453  -0.020008  -0.312586  -0.571649  -0.011357  2.447818  -0.017
O  O140  1  0.56870469  0.01441471  0.20983882  1  -1.23416  0.0088  -0.548016  -0.776299  0.01412  2.369249  0.004
O  O141  1  0.92977582  0.98436892  0.70996732  1  -1.23716  0.011964  -0.54824  -0.776735  0.016347  2.368257  0.008
O  O142  1  0.43127471  0.98538546  0.79014251  1  -1.236017  0.008641  -0.548112  -0.776228  0.013993  2.369037  0.004
O  O143  1  0.07039594  0.01591824  0.28996846  1  -1.231646  0.012087  -0.547761  -0.775999  0.016452  2.370358  0.008
O  O144  1  0.26976107  0.15281383  0.17929456  1  -1.238539  -0.058859  -0.561274  -0.739603  -0.034811  2.093205  -0.052
O  O145  1  0.22889024  0.84552653  0.67887674  1  -1.213809  -0.058228  -0.560703  -0.736631  -0.034037  2.081814  -0.049
O  O146  1  0.72971142  0.84666090  0.82051632  1  -1.242343  -0.058928  -0.560833  -0.738877  -0.034847  2.093889  -0.052
O  O147  1  0.77087169  0.15431984  0.32146410  1  -1.20816  -0.057891  -0.560766  -0.736547  -0.033826  2.080472  -0.049
O  O148  1  0.36497345  0.89285735  0.31956905  1  -1.237948  -0.059229  -0.555191  -0.729599  -0.034827  2.087927  -0.052
O  O149  1  0.13661538  0.10885464  0.82016210  1  -1.177705  -0.056321  -0.55456  -0.726587  -0.033133  2.077596  -0.047
O  O150  1  0.63583194  0.10787542  0.68066593  1  -1.18413  -0.059231  -0.555599  -0.730501  -0.034869  2.087014  -0.052
O  O151  1  0.86378645  0.89171922  0.17927852  1  -1.208301  -0.056041  -0.555148  -0.728956  -0.032884  2.071894  -0.047
