# generated using pymatgen
data_ZnH22C22N2O5
_symmetry_space_group_name_H-M   'P 1'
_cell_length_a   8.37448565
_cell_length_b   11.47104387
_cell_length_c   24.65284303
_cell_angle_alpha   89.99980022
_cell_angle_beta   90.00066967
_cell_angle_gamma   103.52189701
_symmetry_Int_Tables_number   1
_chemical_formula_structural   ZnH22C22N2O5
_chemical_formula_sum   'Zn4 H88 C88 N8 O20'
_cell_volume   2302.60651398
_cell_formula_units_Z   4
loop_
 _symmetry_equiv_pos_site_id
 _symmetry_equiv_pos_as_xyz
  1  'x, y, z'
loop_
 _atom_site_type_symbol
 _atom_site_label
 _atom_site_symmetry_multiplicity
 _atom_site_fract_x
 _atom_site_fract_y
 _atom_site_fract_z
 _atom_site_occupancy
 _atom_site_pbe_bader_charge
 _atom_site_pbe_bader_spin_density
 _atom_site_pbe_cm5_charge
 _atom_site_pbe_ddec_charge
 _atom_site_pbe_ddec_spin_density
 _atom_site_pbe_ddec_sum_bond_order
 _atom_site_pbe_magmom
Zn  Zn0  1  0.74164642  0.63285882  0.70063130  1  1.331872  0  0.674177  0.843704  0  2.337189  0
Zn  Zn1  1  0.75835320  0.36713957  0.20062634  1  1.3316  0  0.674239  0.84374  0  2.337165  0
Zn  Zn2  1  0.25835494  0.36714152  0.29937339  1  1.331753  0  0.674282  0.84395  0  2.337058  0
Zn  Zn3  1  0.24164485  0.63286164  0.79937348  1  1.331669  0  0.674244  0.843877  0  2.337127  0
H  H4  1  0.91050178  0.45900297  0.76222426  1  0.138064  0  0.120372  0.100874  0  1.028861  0
H  H5  1  0.58950002  0.54099174  0.26222078  1  0.138  0  0.120372  0.100829  0  1.028953  0
H  H6  1  0.08950437  0.54099740  0.23777231  1  0.138561  0  0.12037  0.100843  0  1.028915  0
H  H7  1  0.41049121  0.45900674  0.73777620  1  0.138287  0  0.120398  0.100862  0  1.028931  0
H  H8  1  0.94059028  0.25026851  0.75806595  1  0.075928  0  0.101227  0.098352  0  1.059467  0
H  H9  1  0.55941406  0.74972712  0.25806363  1  0.076066  0  0.101245  0.09836  0  1.059476  0
H  H10  1  0.05941707  0.74973187  0.24193063  1  0.075885  0  0.101202  0.098367  0  1.059406  0
H  H11  1  0.44058132  0.25027318  0.74193254  1  0.075941  0  0.10121  0.09835  0  1.059456  0
H  H12  1  0.57364906  0.18670655  0.63125231  1  0.07842  0  0.109278  0.112235  0  1.020776  0
H  H13  1  0.92635363  0.81329021  0.13125175  1  0.078347  0  0.10927  0.112266  0  1.020783  0
H  H14  1  0.42635295  0.81329201  0.36874832  1  0.078383  0  0.109257  0.11225  0  1.020757  0
H  H15  1  0.07364718  0.18670834  0.86874685  1  0.078393  0  0.109278  0.112284  0  1.020746  0
H  H16  1  0.56921948  0.40127749  0.63785340  1  0.12872  0  0.12442  0.101813  0  0.987515  0
H  H17  1  0.93077929  0.59871743  0.13785279  1  0.12868  0  0.124415  0.10182  0  0.987601  0
H  H18  1  0.43077866  0.59872014  0.36214642  1  0.128682  0  0.124413  0.101842  0  0.987506  0
H  H19  1  0.06922032  0.40128111  0.86214743  1  0.1287  0  0.124397  0.101789  0  0.987529  0
H  H20  1  0.85982692  0.06795933  0.77684835  1  0.03891  0  0.104764  0.107614  0  1.035984  0
H  H21  1  0.64018091  0.93204166  0.27684687  1  0.038953  0  0.104713  0.107466  0  1.035907  0
H  H22  1  0.14019185  0.93205097  0.22314984  1  0.039008  0  0.104747  0.107451  0  1.036014  0
H  H23  1  0.35982339  0.06796049  0.72315133  1  0.03895  0  0.104783  0.107598  0  1.035971  0
H  H24  1  0.84973386  0.84982481  0.77546773  1  0.11286  0  0.11986  0.093192  0  0.999364  0
H  H25  1  0.65027576  0.15017441  0.27546310  1  0.112708  0  0.119863  0.093241  0  0.999424  0
H  H26  1  0.15028730  0.15018550  0.22453574  1  0.112662  0  0.119813  0.093202  0  0.999398  0
H  H27  1  0.34973545  0.84982690  0.72453550  1  0.11297  0  0.119867  0.093232  0  0.99932  0
H  H28  1  0.65233818  0.81078562  0.62132450  1  0.111215  0  0.122462  0.094064  0  0.990712  0
H  H29  1  0.84766214  0.18920845  0.12132019  1  0.111215  0  0.122454  0.093998  0  0.990734  0
H  H30  1  0.34765029  0.18920390  0.37868221  1  0.111307  0  0.122429  0.093949  0  0.990775  0
H  H31  1  0.15234787  0.81079284  0.87867882  1  0.111185  0  0.122466  0.094061  0  0.990698  0
H  H32  1  0.65806846  0.02830307  0.61447970  1  0.064054  0  0.111676  0.117158  0  1.005294  0
H  H33  1  0.84193909  0.97169196  0.11447935  1  0.063895  0  0.111642  0.117102  0  1.005385  0
H  H34  1  0.34192093  0.97168556  0.38552215  1  0.063834  0  0.111626  0.117104  0  1.005357  0
H  H35  1  0.15807092  0.02830934  0.88552006  1  0.063896  0  0.11166  0.117108  0  1.005359  0
H  H36  1  0.79944265  0.21073198  0.83832460  1  0.001206  0  0.080996  0.067025  0  1.091995  0
H  H37  1  0.70056313  0.78926710  0.33832318  1  0.001111  0  0.081026  0.067068  0  1.091877  0
H  H38  1  0.20056442  0.78926751  0.16167441  1  0.001115  0  0.080992  0.066975  0  1.09203  0
H  H39  1  0.29944330  0.21074580  0.66167177  1  0.001113  0  0.080936  0.066952  0  1.092025  0
H  H40  1  0.68336374  0.38924961  0.84645675  1  0.068501  0  0.090187  0.0868  0  1.03816  0
H  H41  1  0.81663698  0.61074762  0.34645730  1  0.068478  0  0.090161  0.086804  0  1.038173  0
H  H42  1  0.31664011  0.61074717  0.15354307  1  0.06849  0  0.090156  0.086759  0  1.038177  0
H  H43  1  0.18336264  0.38926255  0.65354008  1  0.068448  0  0.090176  0.086809  0  1.038273  0
H  H44  1  0.47111689  0.39504017  0.91781159  1  0.097607  0  0.104051  0.113185  0  1.002748  0
H  H45  1  0.02888444  0.60495473  0.41781385  1  0.097507  0  0.104089  0.113266  0  1.002802  0
H  H46  1  0.52888051  0.60495120  0.08218620  1  0.097616  0  0.104084  0.113285  0  1.002812  0
H  H47  1  0.97110100  0.39504819  0.58218678  1  0.096907  0  0.104183  0.11338  0  1.002902  0
H  H48  1  0.36615944  0.21634005  0.97460984  1  0.040458  0  0.098259  0.094216  0  1.010377  0
H  H49  1  0.13384797  0.78365658  0.47460979  1  0.040373  0  0.098281  0.094307  0  1.010433  0
H  H50  1  0.63383888  0.78365043  0.02538876  1  0.040352  0  0.098239  0.094231  0  1.01048  0
H  H51  1  0.86613811  0.21634456  0.52539165  1  0.040226  0  0.098305  0.094362  0  1.010427  0
H  H52  1  0.47566089  0.03413949  0.96384228  1  0.038404  0  0.09353  0.089918  0  1.039415  0
H  H53  1  0.02435306  0.96585631  0.46384190  1  0.038522  0  0.093532  0.089972  0  1.039354  0
H  H54  1  0.52434783  0.96585375  0.03615551  1  0.038529  0  0.093531  0.08995  0  1.039353  0
H  H55  1  0.97563984  0.03414755  0.53615872  1  0.038683  0  0.093487  0.089932  0  1.039352  0
H  H56  1  0.84007199  0.02781026  0.87449915  1  0.00179  0  0.079318  0.064725  0  1.031819  0
H  H57  1  0.65993566  0.97218697  0.37449849  1  0.001639  0  0.07931  0.064666  0  1.031868  0
H  H58  1  0.15992458  0.97217842  0.12549661  1  0.001874  0  0.079326  0.064686  0  1.031846  0
H  H59  1  0.34006635  0.02782322  0.62550052  1  0.001568  0  0.079302  0.064693  0  1.031848  0
H  H60  1  0.77081292  0.99076419  0.94115018  1  0.014962  0  0.0906  0.088387  0  0.976492  0
H  H61  1  0.72920207  0.00923387  0.44114934  1  0.015093  0  0.090572  0.0883  0  0.97657  0
H  H62  1  0.22919783  0.00923174  0.05884680  1  0.014954  0  0.090571  0.08833  0  0.976508  0
H  H63  1  0.27079856  0.99077184  0.55885048  1  0.015069  0  0.090615  0.088393  0  0.976483  0
H  H64  1  0.59007462  0.89357570  0.83663092  1  0.01616  0  0.082071  0.080145  0  1.011015  0
H  H65  1  0.90993313  0.10642608  0.33663023  1  0.016114  0  0.082037  0.080101  0  1.010997  0
H  H66  1  0.40992435  0.10641299  0.16336890  1  0.016038  0  0.082053  0.080153  0  1.011006  0
H  H67  1  0.09007054  0.89358949  0.66337081  1  0.015963  0  0.082041  0.080118  0  1.01101  0
H  H68  1  0.50107284  0.86859604  0.90159447  1  0.035061  0  0.092205  0.094135  0  0.990873  0
H  H69  1  0.99893012  0.13141006  0.40159490  1  0.035015  0  0.092209  0.094092  0  0.990909  0
H  H70  1  0.49891950  0.13140603  0.09840454  1  0.035095  0  0.092229  0.094184  0  0.990858  0
H  H71  1  0.00106766  0.86860189  0.59840735  1  0.035051  0  0.092195  0.094098  0  0.990922  0
H  H72  1  0.72413843  0.77535950  0.93321365  1  0.055418  0  0.094188  0.091261  0  0.992822  0
H  H73  1  0.77585502  0.22463932  0.43320980  1  0.055241  0  0.094219  0.09132  0  0.992785  0
H  H74  1  0.27583927  0.22462995  0.06679063  1  0.05526  0  0.094225  0.091226  0  0.992901  0
H  H75  1  0.22413595  0.77536990  0.56679123  1  0.055319  0  0.094226  0.091224  0  0.992898  0
H  H76  1  0.82081021  0.79937864  0.86896930  1  -0.003349  0  0.079789  0.063273  0  1.024014  0
H  H77  1  0.67918979  0.20061766  0.36896390  1  -0.003347  0  0.07974  0.063184  0  1.024027  0
H  H78  1  0.17917982  0.20060821  0.13103741  1  -0.003112  0  0.079808  0.063243  0  1.023885  0
H  H79  1  0.32080743  0.79939249  0.63103592  1  -0.002949  0  0.079753  0.063203  0  1.023952  0
H  H80  1  0.66211515  0.59093649  0.88708715  1  0.067728  0  0.1072  0.112019  0  0.97982  0
H  H81  1  0.83788631  0.40906247  0.38708365  1  0.067908  0  0.107219  0.112084  0  0.97975  0
H  H82  1  0.33787894  0.40905575  0.11291388  1  0.067913  0  0.107251  0.112111  0  0.979799  0
H  H83  1  0.16210944  0.59094679  0.61291616  1  0.068001  0  0.107283  0.112153  0  0.979774  0
H  H84  1  0.51075517  0.59935796  0.62746770  1  0.641624  0  0.32218  0.406669  0  0.873712  0
H  H85  1  0.98925862  0.40064424  0.12746401  1  0.641683  0  0.322191  0.406677  0  0.873683  0
H  H86  1  0.48926349  0.40064428  0.37253455  1  0.641713  0  0.322225  0.406733  0  0.873648  0
H  H87  1  0.01075057  0.59935437  0.87253581  1  0.641684  0  0.322199  0.406712  0  0.873643  0
H  H88  1  0.39302539  0.60808509  0.67946512  1  0.648221  0  0.289283  0.386703  0  0.959929  0
H  H89  1  0.10697547  0.39191562  0.17946479  1  0.648236  0  0.289282  0.386778  0  0.959839  0
H  H90  1  0.60697744  0.39191616  0.32053389  1  0.648208  0  0.289267  0.386767  0  0.959851  0
H  H91  1  0.89302239  0.60808112  0.82053706  1  0.648258  0  0.289263  0.386765  0  0.959861  0
C  C92  1  0.83808701  0.39593072  0.73358366  1  0.48567  0  0.050539  0.101556  0  3.908625  0
C  C93  1  0.66191116  0.60406313  0.23358361  1  0.485373  0  0.05065  0.101695  0  3.908306  0
C  C94  1  0.16192117  0.60407235  0.26641494  1  0.48505  0  0.050527  0.101543  0  3.90901  0
C  C95  1  0.33808017  0.39593178  0.76641621  1  0.485193  0  0.050562  0.101594  0  3.908815  0
C  C96  1  0.85184958  0.27770814  0.73173045  1  -0.041489  0  -0.077658  -0.158764  0  3.938106  0
C  C97  1  0.64815708  0.72229024  0.23172853  1  -0.041515  0  -0.077713  -0.158905  0  3.93816  0
C  C98  1  0.14815307  0.72228863  0.26826693  1  -0.041051  0  -0.077608  -0.158829  0  3.938028  0
C  C99  1  0.35184539  0.27771368  0.76826886  1  -0.041363  0  -0.077639  -0.158826  0  3.938068  0
C  C100  1  0.75420762  0.19664567  0.69577909  1  -0.020624  0  0.013959  0.099666  0  3.98315  0
C  C101  1  0.74579459  0.80335006  0.19577864  1  -0.020474  0  0.013987  0.099936  0  3.983056  0
C  C102  1  0.24579521  0.80335557  0.30422113  1  -0.020855  0  0.013998  0.099876  0  3.983005  0
C  C103  1  0.25420235  0.19664756  0.80422118  1  -0.020553  0  0.013977  0.09986  0  3.983042  0
C  C104  1  0.65210457  0.24313569  0.66088795  1  -0.043035  0  -0.079679  -0.182105  0  3.960373  0
C  C105  1  0.84789738  0.75685921  0.16088676  1  -0.042818  0  -0.07969  -0.182298  0  3.960398  0
C  C106  1  0.34789329  0.75686105  0.33911065  1  -0.042891  0  -0.079688  -0.182304  0  3.960605  0
C  C107  1  0.15210518  0.24314114  0.83911103  1  -0.042822  0  -0.079658  -0.182266  0  3.960559  0
C  C108  1  0.64802040  0.36343717  0.66435195  1  0.489168  0  0.05541  0.106399  0  3.925013  0
C  C109  1  0.85197504  0.63655947  0.16435056  1  0.489178  0  0.05539  0.106375  0  3.925266  0
C  C110  1  0.35198032  0.63656495  0.33564828  1  0.489164  0  0.055354  0.106357  0  3.924852  0
C  C111  1  0.14802191  0.36343816  0.83564844  1  0.489014  0  0.055364  0.106381  0  3.925023  0
C  C112  1  0.75610125  0.06832619  0.69587453  1  -0.027368  0  0.015157  0.10975  0  3.964984  0
C  C113  1  0.74390484  0.93167046  0.19587386  1  -0.027415  0  0.015235  0.109787  0  3.96512  0
C  C114  1  0.24389956  0.93167236  0.30412529  1  -0.027373  0  0.015184  0.109823  0  3.964941  0
C  C115  1  0.25610159  0.06833081  0.80412474  1  -0.027433  0  0.015169  0.109746  0  3.965049  0
C  C116  1  0.81300401  0.01541328  0.74107069  1  -0.011777  0  -0.07902  -0.167214  0  3.921787  0
C  C117  1  0.68700656  0.98458512  0.24106849  1  -0.011557  0  -0.078993  -0.167039  0  3.921822  0
C  C118  1  0.18701180  0.98459522  0.25892954  1  -0.011615  0  -0.078974  -0.166981  0  3.921938  0
C  C119  1  0.31299784  0.01541346  0.75893011  1  -0.011673  0  -0.079069  -0.167251  0  3.922086  0
C  C120  1  0.80581164  0.89324580  0.74106468  1  0.535678  0  0.053214  0.104995  0  3.934437  0
C  C121  1  0.69419654  0.10675258  0.24106273  1  0.535677  0  0.053154  0.104715  0  3.934489  0
C  C122  1  0.19420279  0.10675821  0.25893798  1  0.535746  0  0.053115  0.104679  0  3.934794  0
C  C123  1  0.30581311  0.89325140  0.75893628  1  0.535334  0  0.053252  0.104944  0  3.934316  0
C  C124  1  0.69377620  0.87129621  0.65523543  1  0.520822  0  0.05451  0.095684  0  3.950377  0
C  C125  1  0.80622850  0.12870051  0.15523267  1  0.521032  0  0.054579  0.095791  0  3.950198  0
C  C126  1  0.30621964  0.12869783  0.34476926  1  0.52143  0  0.054652  0.095936  0  3.950282  0
C  C127  1  0.19378206  0.87130258  0.84476674  1  0.52125  0  0.054604  0.095703  0  3.950316  0
C  C128  1  0.69748883  0.99289989  0.65182721  1  -0.022948  0  -0.07807  -0.172888  0  3.943766  0
C  C129  1  0.80251787  0.00709596  0.15182464  1  -0.022351  0  -0.078144  -0.173007  0  3.943813  0
C  C130  1  0.30250636  0.00709594  0.34817545  1  -0.022861  0  -0.078092  -0.172988  0  3.943787  0
C  C131  1  0.19749159  0.99290354  0.84817396  1  -0.022784  0  -0.078094  -0.17284  0  3.943655  0
C  C132  1  0.70242084  0.21054242  0.86785366  1  -0.085252  0  -0.11091  -0.162586  0  4.014108  0
C  C133  1  0.79759101  0.78945754  0.36785181  1  -0.085207  0  -0.110852  -0.162387  0  4.013913  0
C  C134  1  0.29759046  0.78945531  0.13214576  1  -0.085202  0  -0.110864  -0.162358  0  4.014113  0
C  C135  1  0.20240944  0.21055532  0.63214517  1  -0.085173  0  -0.110896  -0.162485  0  4.01397  0
C  C136  1  0.63739659  0.31191015  0.87262531  1  -0.049661  0  -0.102472  -0.08683  0  4.032553  0
C  C137  1  0.86260980  0.68808708  0.37262510  1  -0.049681  0  -0.102584  -0.087138  0  4.03266  0
C  C138  1  0.36260992  0.68808754  0.12737451  1  -0.049625  0  -0.102495  -0.08689  0  4.032726  0
C  C139  1  0.13738751  0.31191950  0.62737269  1  -0.049746  0  -0.102506  -0.087022  0  4.032998  0
C  C140  1  0.51699920  0.31470169  0.91137516  1  -0.042782  0  -0.089925  -0.072546  0  3.968212  0
C  C141  1  0.98300557  0.68529366  0.41137463  1  -0.042871  0  -0.089799  -0.072376  0  3.967976  0
C  C142  1  0.48300179  0.68528970  0.08862384  1  -0.043232  0  -0.089804  -0.07254  0  3.968057  0
C  C143  1  0.01698456  0.31471287  0.58862519  1  -0.042269  0  -0.08986  -0.072363  0  3.968051  0
C  C144  1  0.45809799  0.21353311  0.94364443  1  -0.010766  0  -0.090559  -0.062561  0  4.013348  0
C  C145  1  0.04191168  0.78646270  0.44364523  1  -0.010409  0  -0.090645  -0.062815  0  4.013328  0
C  C146  1  0.54190447  0.78645919  0.05635336  1  -0.010199  0  -0.090597  -0.06267  0  4.013397  0
C  C147  1  0.95807772  0.21353757  0.55635581  1  -0.010608  0  -0.090683  -0.063083  0  4.013539  0
C  C148  1  0.52190356  0.11229500  0.93817022  1  -0.060299  0  -0.102985  -0.158239  0  3.993719  0
C  C149  1  0.97810414  0.88770301  0.43816852  1  -0.060397  0  -0.102919  -0.158109  0  3.993842  0
C  C150  1  0.47810240  0.88770090  0.06182960  1  -0.060622  0  -0.103015  -0.158241  0  3.993935  0
C  C151  1  0.02188571  0.11230262  0.56183373  1  -0.060226  0  -0.102951  -0.158063  0  3.994037  0
C  C152  1  0.64855782  0.11020659  0.90113377  1  -0.026808  0  -0.019016  0.113058  0  3.980504  0
C  C153  1  0.85145516  0.88979331  0.40113238  1  -0.038  0  -0.019147  0.112805  0  3.980832  0
C  C154  1  0.35145136  0.88979201  0.09886564  1  -0.026655  0  -0.019082  0.112882  0  3.980691  0
C  C155  1  0.14854308  0.11021237  0.59886663  1  -0.026804  0  -0.019062  0.113005  0  3.980465  0
C  C156  1  0.72848854  0.00505477  0.89976825  1  -0.001024  0  -0.160992  -0.185462  0  3.975041  0
C  C157  1  0.77152319  0.99494513  0.39976718  1  0.010283  0  -0.160925  -0.185207  0  3.9751  0
C  C158  1  0.27151447  0.99493932  0.10023035  1  -0.001076  0  -0.160915  -0.185233  0  3.97504  0
C  C159  1  0.22847974  0.00506417  0.60023345  1  -0.000835  0  -0.160927  -0.185384  0  3.975067  0
C  C160  1  0.61902948  0.88628984  0.87988644  1  -0.014563  0  -0.171563  -0.145491  0  3.918587  0
C  C161  1  0.88097495  0.11371184  0.37988562  1  -0.014624  0  -0.171549  -0.145477  0  3.918537  0
C  C162  1  0.38096663  0.11370510  0.12011378  1  -0.014395  0  -0.1716  -0.145645  0  3.918503  0
C  C163  1  0.11902319  0.88629743  0.62011501  1  -0.014448  0  -0.17152  -0.145467  0  3.918394  0
C  C164  1  0.70053572  0.78198693  0.88954642  1  -0.007228  0  -0.158441  -0.13313  0  3.920914  0
C  C165  1  0.79946223  0.21801200  0.38954268  1  -0.006991  0  -0.158449  -0.133096  0  3.920852  0
C  C166  1  0.29945146  0.21800616  0.11045786  1  -0.007367  0  -0.158511  -0.133002  0  3.920754  0
C  C167  1  0.20053417  0.78199546  0.61045917  1  -0.007452  0  -0.158537  -0.133066  0  3.920664  0
C  C168  1  0.59716421  0.65725210  0.87184248  1  -0.043604  0  -0.096706  -0.275285  0  3.856954  0
C  C169  1  0.90283618  0.34274509  0.37183935  1  -0.04366  0  -0.096718  -0.275328  0  3.856904  0
C  C170  1  0.40282841  0.34273924  0.12815896  1  -0.043685  0  -0.096762  -0.275378  0  3.85691  0
C  C171  1  0.09715782  0.65726236  0.62816209  1  -0.043972  0  -0.096737  -0.275234  0  3.856701  0
C  C172  1  0.43208551  0.63234411  0.90424047  1  1.61984  0  0.188774  0.602101  0  4.207657  0
C  C173  1  0.06791150  0.36764989  0.40423840  1  1.619741  0  0.188839  0.602115  0  4.207495  0
C  C174  1  0.56790232  0.36763556  0.09576097  1  1.619824  0  0.188655  0.601856  0  4.207241  0
C  C175  1  0.93208057  0.63236291  0.59576588  1  1.619882  0  0.188666  0.60168  0  4.207566  0
C  C176  1  0.59994938  0.65046823  0.81030882  1  1.529894  0  0.211771  0.610167  0  4.113737  0
C  C177  1  0.90003777  0.34953167  0.31030688  1  1.52985  0  0.211801  0.610141  0  4.113482  0
C  C178  1  0.40004728  0.34952850  0.18969343  1  1.529987  0  0.211827  0.610165  0  4.113513  0
C  C179  1  0.09995954  0.65047491  0.68969497  1  1.529945  0  0.21178  0.609968  0  4.113196  0
N  N180  1  0.73661432  0.43883801  0.70089146  1  -1.218956  0  -0.311447  -0.225973  0  3.473292  0
N  N181  1  0.76338926  0.56115772  0.20088782  1  -1.218967  0  -0.311456  -0.225903  0  3.473126  0
N  N182  1  0.26338556  0.56116142  0.29910674  1  -1.21906  0  -0.311385  -0.225849  0  3.473118  0
N  N183  1  0.23661182  0.43884172  0.79910916  1  -1.218959  0  -0.31144  -0.225919  0  3.473202  0
N  N184  1  0.74464358  0.82148870  0.69933880  1  -1.224977  0  -0.312668  -0.216359  0  3.525612  0
N  N185  1  0.75536171  0.17850884  0.19933454  1  -1.225612  0  -0.312671  -0.216168  0  3.525413  0
N  N186  1  0.25536073  0.17851346  0.30066670  1  -1.225756  0  -0.312683  -0.216295  0  3.525571  0
N  N187  1  0.24464831  0.82149245  0.80066487  1  -1.225195  0  -0.312798  -0.216405  0  3.525517  0
O  O188  1  0.49445888  0.58391669  0.66612732  1  -1.273543  0  -0.570229  -0.765761  0  2.179256  0
O  O189  1  0.00554106  0.41607866  0.16612453  1  -1.273578  0  -0.570257  -0.765891  0  2.17926  0
O  O190  1  0.50554257  0.41608007  0.33387493  1  -1.273572  0  -0.570263  -0.765923  0  2.179215  0
O  O191  1  0.99445975  0.58391989  0.83387489  1  -1.273589  0  -0.570261  -0.765917  0  2.179228  0
O  O192  1  0.72721432  0.62334413  0.78881867  1  -1.188531  0  -0.310561  -0.563594  0  2.346652  0
O  O193  1  0.77278452  0.37664962  0.28881537  1  -1.188623  0  -0.310528  -0.563521  0  2.346932  0
O  O194  1  0.27278363  0.37664903  0.21118358  1  -1.188545  0  -0.310541  -0.563587  0  2.346726  0
O  O195  1  0.22721463  0.62335518  0.71118404  1  -1.188553  0  -0.310544  -0.563508  0  2.347019  0
O  O196  1  0.49051600  0.67558693  0.78040655  1  -1.192831  0  -0.31429  -0.545095  0  2.392692  0
O  O197  1  0.00949217  0.32441454  0.28040190  1  -1.192792  0  -0.31437  -0.545171  0  2.392243  0
O  O198  1  0.50948398  0.32440893  0.21959529  1  -1.193062  0  -0.31438  -0.545144  0  2.392704  0
O  O199  1  0.99051398  0.67559747  0.71960198  1  -1.19295  0  -0.314307  -0.545034  0  2.392025  0
O  O200  1  0.29550281  0.63508181  0.88023039  1  -1.207029  0  -0.361354  -0.631141  0  2.363353  0
O  O201  1  0.20449789  0.36492300  0.38023049  1  -1.207038  0  -0.361406  -0.631112  0  2.363352  0
O  O202  1  0.70448934  0.36491579  0.11976740  1  -1.20683  0  -0.36134  -0.630925  0  2.363057  0
O  O203  1  0.79549795  0.63508267  0.61977298  1  -1.20723  0  -0.361301  -0.630851  0  2.363556  0
O  O204  1  0.44666112  0.61461974  0.95339752  1  -1.169751  0  -0.3369  -0.539891  0  2.083015  0
O  O205  1  0.05333184  0.38536341  0.45339861  1  -1.169636  0  -0.336943  -0.539965  0  2.082795  0
O  O206  1  0.55331251  0.38532942  0.04659581  1  -1.169729  0  -0.336761  -0.539797  0  2.082696  0
O  O207  1  0.94666299  0.61465836  0.54660039  1  -1.169386  0  -0.336841  -0.539794  0  2.082609  0
