# generated using pymatgen
data_ErH9C14(NO5)2
_symmetry_space_group_name_H-M   'P 1'
_cell_length_a   9.07378482
_cell_length_b   9.20992448
_cell_length_c   9.49607589
_cell_angle_alpha   86.23420244
_cell_angle_beta   86.93033769
_cell_angle_gamma   86.30679379
_symmetry_Int_Tables_number   1
_chemical_formula_structural   ErH9C14(NO5)2
_chemical_formula_sum   'Er2 H18 C28 N4 O20'
_cell_volume   789.24857066
_cell_formula_units_Z   2
loop_
 _symmetry_equiv_pos_site_id
 _symmetry_equiv_pos_as_xyz
  1  'x, y, z'
loop_
 _atom_site_type_symbol
 _atom_site_label
 _atom_site_symmetry_multiplicity
 _atom_site_fract_x
 _atom_site_fract_y
 _atom_site_fract_z
 _atom_site_occupancy
 _atom_site_pbe_bader_spin_density
 _atom_site_pbe_cm5_charge
 _atom_site_pbe_ddec_charge
 _atom_site_pbe_ddec_spin_density
 _atom_site_pbe_ddec_sum_bond_order
 _atom_site_pbe_magmom
Er  Er0  1  0.36472159  0.41479614  0.14124784  1  0  1.500554  1.968543  0  2.164218  0
Er  Er1  1  0.63527765  0.58520363  0.85874941  1  0  1.500617  1.96858  0  2.164183  0
H  H2  1  0.46601139  0.53582940  0.37749682  1  0  0.318128  0.405735  0  0.901212  0
H  H3  1  0.53398519  0.46417692  0.62249704  1  0  0.318131  0.40576  0  0.901188  0
H  H4  1  0.31577258  0.47967650  0.44184541  1  0  0.307867  0.409259  0  0.91283  0
H  H5  1  0.68422850  0.52032874  0.55815036  1  0  0.307893  0.40931  0  0.912756  0
H  H6  1  0.29396162  0.19976277  0.94687489  1  0  0.311627  0.398328  0  0.911829  0
H  H7  1  0.70603332  0.80023587  0.05312794  1  0  0.311645  0.398317  0  0.91178  0
H  H8  1  0.40311148  0.13018730  0.05487122  1  0  0.303796  0.399608  0  0.930902  0
H  H9  1  0.59688783  0.86981137  0.94512714  1  0  0.303788  0.399581  0  0.930936  0
H  H10  1  0.66092936  0.87574278  0.38669782  1  0  0.325835  0.398345  0  0.888182  0
H  H11  1  0.33907891  0.12425479  0.61330746  1  0  0.325881  0.398399  0  0.888216  0
H  H12  1  0.97668114  0.06544582  0.41819842  1  0  0.108924  0.114515  0  1.043207  0
H  H13  1  0.02332013  0.93455721  0.58180273  1  0  0.108911  0.114489  0  1.043153  0
H  H14  1  0.74618474  0.20130802  0.33292216  1  0  0.127054  0.143333  0  0.961418  0
H  H15  1  0.25381570  0.79869065  0.66707825  1  0  0.127031  0.143324  0  0.961422  0
H  H16  1  0.90266565  0.95996881  0.19464738  1  0  0.11565  0.113373  0  1.018016  0
H  H17  1  0.09733481  0.04002985  0.80535513  1  0  0.115642  0.11334  0  1.018022  0
H  H18  1  0.15863017  0.98691653  0.07801366  1  0  0.113324  0.132011  0  1.02921  0
H  H19  1  0.84136809  0.01308107  0.92198167  1  0  0.113293  0.131945  0  1.029253  0
C  C20  1  0.26747148  0.16356823  0.36986274  1  0  0.207985  0.563852  0  4.246348  0
C  C21  1  0.73252880  0.83643366  0.63014591  1  0  0.208034  0.563862  0  4.246558  0
C  C22  1  0.11741468  0.23234350  0.32857163  1  0  0.121144  0.130141  0  3.966057  0
C  C23  1  0.88258542  0.76766060  0.67143058  1  0  0.121151  0.130174  0  3.966146  0
C  C24  1  0.98200332  0.17166101  0.36184197  1  0  -0.069722  -0.121848  0  3.917672  0
C  C25  1  0.01799590  0.82833982  0.63816154  1  0  -0.069746  -0.121838  0  3.917747  0
C  C26  1  0.85365057  0.24826513  0.31720443  1  0  -0.049754  -0.024262  0  3.862679  0
C  C27  1  0.14634848  0.75173789  0.68279580  1  0  -0.049678  -0.024242  0  3.862637  0
C  C28  1  0.86107513  0.38841667  0.25137905  1  0  0.001114  -0.087601  0  3.877495  0
C  C29  1  0.13892170  0.61158636  0.74862025  1  0  0.001115  -0.087575  0  3.877524  0
C  C30  1  0.00001471  0.44930642  0.23751968  1  0  0.14442  0.194459  0  3.910767  0
C  C31  1  0.99998031  0.55069456  0.76247739  1  0  0.144412  0.19445  0  3.910814  0
C  C32  1  0.02960787  0.60425184  0.19814277  1  0  0.153874  0.213761  0  3.880703  0
C  C33  1  0.97039031  0.39574686  0.80185144  1  0  0.153863  0.21365  0  3.880575  0
C  C34  1  0.93241934  0.72724258  0.22367150  1  0  0.002515  -0.10052  0  3.884949  0
C  C35  1  0.06758011  0.27275392  0.77632593  1  0  0.00239  -0.100606  0  3.884854  0
C  C36  1  0.97794266  0.86541525  0.17674628  1  0  -0.056359  -0.037428  0  3.918476  0
C  C37  1  0.02205894  0.13458234  0.82325202  1  0  -0.056327  -0.037371  0  3.918254  0
C  C38  1  0.11777571  0.88106345  0.11281162  1  0  -0.065682  -0.112953  0  3.895571  0
C  C39  1  0.88222269  0.11893197  0.88718277  1  0  -0.065672  -0.112835  0  3.895258  0
C  C40  1  0.21009637  0.75545867  0.10032679  1  0  0.129026  0.137473  0  3.951028  0
C  C41  1  0.78990069  0.24454003  0.89966538  1  0  0.129047  0.137326  0  3.950893  0
C  C42  1  0.36413911  0.76205904  0.03399768  1  0  0.227901  0.578348  0  4.175858  0
C  C43  1  0.63585941  0.23793525  0.96600309  1  0  0.227954  0.578541  0  4.175573  0
C  C44  1  0.79547681  0.72371874  0.31809238  1  0  0.241973  0.591221  0  4.119698  0
C  C45  1  0.20452835  0.27627557  0.68191012  1  0  0.242049  0.591257  0  4.119704  0
C  C46  1  0.72626352  0.45943700  0.18429233  1  0  0.222583  0.627721  0  4.196599  0
C  C47  1  0.27373094  0.54056821  0.81570383  1  0  0.2227  0.627859  0  4.196406  0
N  N48  1  0.16674831  0.62212214  0.14208926  1  0  -0.357209  -0.351024  0  3.495106  0
N  N49  1  0.83324758  0.37787764  0.85790397  1  0  -0.357192  -0.350859  0  3.494878  0
N  N50  1  0.12397355  0.36675569  0.26553711  1  0  -0.384118  -0.388576  0  3.521558  0
N  N51  1  0.87602336  0.63324624  0.73446330  1  0  -0.384125  -0.388558  0  3.521601  0
O  O52  1  0.35996033  0.54046311  0.36331980  1  0  -0.612033  -0.803058  0  2.018861  0
O  O53  1  0.64003729  0.45954430  0.63667499  1  0  -0.61206  -0.803121  0  2.018784  0
O  O54  1  0.30544610  0.18665110  0.04856668  1  0  -0.61947  -0.812967  0  2.130541  0
O  O55  1  0.69455338  0.81334538  0.95143391  1  0  -0.619485  -0.812921  0  2.130504  0
O  O56  1  0.37965889  0.22381015  0.31111506  1  0  -0.40394  -0.636408  0  2.289619  0
O  O57  1  0.62034924  0.77619064  0.68890057  1  0  -0.403985  -0.636398  0  2.289862  0
O  O58  1  0.26918222  0.06116176  0.46468270  1  0  -0.322979  -0.550771  0  2.122454  0
O  O59  1  0.73081463  0.93884229  0.53532813  1  0  -0.322986  -0.550775  0  2.122446  0
O  O60  1  0.44531533  0.64032116  0.04206694  1  0  -0.440117  -0.746923  0  2.460715  0
O  O61  1  0.55468728  0.35967858  0.95793749  1  0  -0.440162  -0.747045  0  2.460504  0
O  O62  1  0.40233236  0.87859444  0.97317291  1  0  -0.276632  -0.486193  0  2.1523  0
O  O63  1  0.59767589  0.12140315  0.02682921  1  0  -0.276616  -0.486236  0  2.152354  0
O  O64  1  0.70035198  0.83833385  0.29286303  1  0  -0.320866  -0.477612  0  2.26882  0
O  O65  1  0.29965399  0.16166483  0.70713916  1  0  -0.320933  -0.477669  0  2.268981  0
O  O66  1  0.77903530  0.63028282  0.41559183  1  0  -0.260755  -0.486416  0  2.229225  0
O  O67  1  0.22097194  0.36971367  0.58441358  1  0  -0.260782  -0.486427  0  2.229285  0
O  O68  1  0.74880689  0.54726225  0.07759100  1  0  -0.374827  -0.661962  0  2.379481  0
O  O69  1  0.25118089  0.45274402  0.92240653  1  0  -0.374846  -0.662008  0  2.379354  0
O  O70  1  0.60106207  0.42003135  0.23312588  1  0  -0.370863  -0.633554  0  2.310396  0
O  O71  1  0.39893581  0.57997276  0.76687540  1  0  -0.370918  -0.633635  0  2.310268  0
