# generated using pymatgen
data_CdH16C20N2(ClO)2
_symmetry_space_group_name_H-M   'P 1'
_cell_length_a   8.42193119
_cell_length_b   12.17508939
_cell_length_c   12.80410001
_cell_angle_alpha   95.22568287
_cell_angle_beta   97.22396609
_cell_angle_gamma   103.01341601
_symmetry_Int_Tables_number   1
_chemical_formula_structural   CdH16C20N2(ClO)2
_chemical_formula_sum   'Cd2 H32 C40 N4 Cl4 O4'
_cell_volume   1259.31250227
_cell_formula_units_Z   2
loop_
 _symmetry_equiv_pos_site_id
 _symmetry_equiv_pos_as_xyz
  1  'x, y, z'
loop_
 _atom_site_type_symbol
 _atom_site_label
 _atom_site_symmetry_multiplicity
 _atom_site_fract_x
 _atom_site_fract_y
 _atom_site_fract_z
 _atom_site_occupancy
 _atom_site_hle17_bader_spin_density
 _atom_site_hle17_ddec_charge
 _atom_site_hle17_ddec_spin_density
 _atom_site_hle17_ddec_sum_bond_order
 _atom_site_hle17_magmom
 _atom_site_hse06_10hf_bader_spin_density
 _atom_site_hse06_10hf_ddec_charge
 _atom_site_hse06_10hf_ddec_spin_density
 _atom_site_hse06_10hf_ddec_sum_bond_order
 _atom_site_hse06_10hf_magmom
 _atom_site_hse06_bader_spin_density
 _atom_site_hse06_ddec_charge
 _atom_site_hse06_ddec_spin_density
 _atom_site_hse06_ddec_sum_bond_order
 _atom_site_hse06_magmom
 _atom_site_pbe_bader_spin_density
 _atom_site_pbe_cm5_charge
 _atom_site_pbe_ddec_charge
 _atom_site_pbe_ddec_spin_density
 _atom_site_pbe_ddec_sum_bond_order
 _atom_site_pbe_magmom
Cd  Cd0  1  0.98388767  0.13431077  0.94260742  1  0  1.011749  0  1.89453  0  0  0.848118  0  2.362379  0  0  0.898928  0  2.314844  0  0  0.613219  0.812008  0  2.395061  0
Cd  Cd1  1  0.01611729  0.86569324  0.05739648  1  0  1.011773  0  1.894494  0  0  0.84815  0  2.362343  0  0  0.89896  0  2.31481  0  0  0.613236  0.81204  0  2.395029  0
H  H2  1  0.57737581  0.08618286  0.90934352  1  0  0.080495  0  0.936627  0  0  0.087111  0  1.002163  0  0  0.089829  0  0.999386  0  0  0.106977  0.085236  0  1.003925  0
H  H3  1  0.42262679  0.91381772  0.09065916  1  0  0.080424  0  0.936707  0  0  0.087071  0  1.002216  0  0  0.089789  0  0.999439  0  0  0.106958  0.085191  0  1.003975  0
H  H4  1  0.94541737  0.38190369  0.94686779  1  0  0.076932  0  0.947447  0  0  0.083902  0  1.0158  0  0  0.08649  0  1.013588  0  0  0.106557  0.081978  0  1.017457  0
H  H5  1  0.05458322  0.61809423  0.05312986  1  0  0.076899  0  0.947339  0  0  0.083863  0  1.015695  0  0  0.08645  0  1.013483  0  0  0.106534  0.08194  0  1.017351  0
H  H6  1  0.35690855  0.19028709  0.86802710  1  0  0.117887  0  0.967932  0  0  0.123837  0  1.034521  0  0  0.127108  0  1.033635  0  0  0.09914  0.12142  0  1.035392  0
H  H7  1  0.64309385  0.80971251  0.13197004  1  0  0.117855  0  0.967938  0  0  0.123821  0  1.034514  0  0  0.12709  0  1.033632  0  0  0.099147  0.121403  0  1.035386  0
H  H8  1  0.74419114  0.50030154  0.90909135  1  0  0.108143  0  1.004752  0  0  0.115543  0  1.071232  0  0  0.11906  0  1.069795  0  0  0.090006  0.112855  0  1.072546  0
H  H9  1  0.25580988  0.49969704  0.09089856  1  0  0.108145  0  1.00478  0  0  0.115466  0  1.071342  0  0  0.118981  0  1.069908  0  0  0.089972  0.112787  0  1.072643  0
H  H10  1  0.27773422  0.36015385  0.83453139  1  0  0.115091  0  0.98889  0  0  0.122251  0  1.056013  0  0  0.126368  0  1.052451  0  0  0.104765  0.119317  0  1.058513  0
H  H11  1  0.72226935  0.63984240  0.16546721  1  0  0.115002  0  0.988956  0  0  0.122213  0  1.05605  0  0  0.126297  0  1.052528  0  0  0.104741  0.119279  0  1.05855  0
H  H12  1  0.55852547  0.58057480  0.88105484  1  0  0.101903  0  1.014696  0  0  0.111859  0  1.077443  0  0  0.115371  0  1.076031  0  0  0.087391  0.109292  0  1.078588  0
H  H13  1  0.44147800  0.41942498  0.11894944  1  0  0.101885  0  1.014713  0  0  0.111836  0  1.07747  0  0  0.115351  0  1.076052  0  0  0.087377  0.109268  0  1.078617  0
H  H14  1  0.09144393  0.45396142  0.78586761  1  0  0.132818  0  0.940114  0  0  0.14145  0  0.999104  0  0  0.145481  0  0.997475  0  0  0.119506  0.138542  0  1.000444  0
H  H15  1  0.90855701  0.54603390  0.21412756  1  0  0.132861  0  0.940128  0  0  0.141506  0  0.999102  0  0  0.145539  0  0.997471  0  0  0.119549  0.138601  0  1.000438  0
H  H16  1  0.49937668  0.75235855  0.85897825  1  0  0.132817  0  0.937377  0  0  0.140525  0  0.996531  0  0  0.144414  0  0.995133  0  0  0.11517  0.137741  0  0.997717  0
H  H17  1  0.50062872  0.24763933  0.14101828  1  0  0.132807  0  0.937449  0  0  0.140505  0  0.996606  0  0  0.144395  0  0.995209  0  0  0.115168  0.13772  0  0.997792  0
H  H18  1  0.91146757  0.58244290  0.73086133  1  0  0.102087  0  0.919429  0  0  0.114522  0  0.974212  0  0  0.117408  0  0.971351  0  0  0.133292  0.112376  0  0.976367  0
H  H19  1  0.08853301  0.41755166  0.26913767  1  0  0.102097  0  0.919383  0  0  0.114537  0  0.974163  0  0  0.117422  0  0.971303  0  0  0.133318  0.112393  0  0.976316  0
H  H20  1  0.29990608  0.86852088  0.80014556  1  0  0.108558  0  0.929788  0  0  0.118951  0  0.988226  0  0  0.122011  0  0.98478  0  0  0.129646  0.116767  0  0.99056  0
H  H21  1  0.70009605  0.13147446  0.19985050  1  0  0.108658  0  0.929742  0  0  0.119022  0  0.988192  0  0  0.122089  0  0.984738  0  0  0.129707  0.116837  0  0.990526  0
H  H22  1  0.03086509  0.88213171  0.76816591  1  0  0.109842  0  0.94457  0  0  0.118367  0  1.015619  0  0  0.120239  0  1.014138  0  0  0.108878  0.116834  0  1.016915  0
H  H23  1  0.96913564  0.11786390  0.23184098  1  0  0.109948  0  0.944588  0  0  0.11848  0  1.01562  0  0  0.120374  0  1.014116  0  0  0.108911  0.116944  0  1.01692  0
H  H24  1  0.86854168  0.75912949  0.73141328  1  0  0.100975  0  0.928136  0  0  0.11384  0  0.988498  0  0  0.116082  0  0.985975  0  0  0.110567  0.112181  0  0.990315  0
H  H25  1  0.13145848  0.24086778  0.26859210  1  0  0.10102  0  0.928196  0  0  0.113917  0  0.988523  0  0  0.116158  0  0.986004  0  0  0.110608  0.112258  0  0.990341  0
H  H26  1  0.80875227  0.66174355  0.54562131  1  0  0.08687  0  0.944956  0  0  0.099431  0  1.000714  0  0  0.102438  0  0.999799  0  0  0.097791  0.097284  0  1.001457  0
H  H27  1  0.19125482  0.33825617  0.45438096  1  0  0.086924  0  0.944952  0  0  0.099499  0  1.000688  0  0  0.102507  0  0.999772  0  0  0.097823  0.097353  0  1.001431  0
H  H28  1  0.19843043  0.96551957  0.63558386  1  0  0.09527  0  0.93805  0  0  0.108975  0  0.992393  0  0  0.11169  0  0.991819  0  0  0.103535  0.106982  0  0.992995  0
H  H29  1  0.80156101  0.03448369  0.36442262  1  0  0.09517  0  0.938151  0  0  0.108872  0  0.992498  0  0  0.111586  0  0.991928  0  0  0.103515  0.10688  0  0.9931  0
H  H30  1  0.82678840  0.68132761  0.35505193  1  0  0.093056  0  0.963269  0  0  0.102514  0  1.025994  0  0  0.105605  0  1.02422  0  0  0.099289  0.100355  0  1.027178  0
H  H31  1  0.17321361  0.31867466  0.64495002  1  0  0.093046  0  0.963316  0  0  0.102501  0  1.026036  0  0  0.105592  0  1.024262  0  0  0.099301  0.100347  0  1.027212  0
H  H32  1  0.21353631  0.98406489  0.44393111  1  0  0.104775  0  0.93329  0  0  0.115192  0  0.98951  0  0  0.118906  0  0.987195  0  0  0.106895  0.11251  0  0.991229  0
H  H33  1  0.78645599  0.01594434  0.55607660  1  0  0.104794  0  0.933246  0  0  0.115173  0  0.989516  0  0  0.118886  0  0.987201  0  0  0.106895  0.11249  0  0.991234  0
C  C34  1  0.60809131  0.17772425  0.90651668  1  0  0.131242  0  3.71733  0  0  0.101249  0  3.971431  0  0  0.108114  0  3.990526  0  0  0.043626  0.096807  0  3.958318  0
C  C35  1  0.39191223  0.82227543  0.09348369  1  0  0.131285  0  3.717304  0  0  0.10127  0  3.971412  0  0  0.108136  0  3.990504  0  0  0.043663  0.09684  0  3.958288  0
C  C36  1  0.81325220  0.34362383  0.92775205  1  0  0.116436  0  3.737149  0  0  0.085989  0  3.993143  0  0  0.092113  0  4.013315  0  0  0.03403  0.082015  0  3.979335  0
C  C37  1  0.18675225  0.65637836  0.07224700  1  0  0.116481  0  3.737073  0  0  0.086058  0  3.993028  0  0  0.092182  0  4.013198  0  0  0.034048  0.082083  0  3.979226  0
C  C38  1  0.48615509  0.23596941  0.88332802  1  0  -0.152061  0  3.666571  0  0  -0.169609  0  3.909148  0  0  -0.177641  0  3.930725  0  0  -0.07983  -0.164526  0  3.894846  0
C  C39  1  0.51384549  0.76402853  0.11667040  1  0  -0.151974  0  3.666667  0  0  -0.169534  0  3.909285  0  0  -0.177562  0  3.930863  0  0  -0.079831  -0.164451  0  3.894982  0
C  C40  1  0.70015213  0.40842774  0.90605927  1  0  -0.1663  0  3.690587  0  0  -0.180406  0  3.927742  0  0  -0.188776  0  3.950295  0  0  -0.08812  -0.174666  0  3.912444  0
C  C41  1  0.29984995  0.59157104  0.09393857  1  0  -0.166344  0  3.690592  0  0  -0.180373  0  3.927769  0  0  -0.188738  0  3.950324  0  0  -0.088125  -0.174639  0  3.912464  0
C  C42  1  0.53100870  0.35423436  0.88209758  1  0  0.134017  0  3.775519  0  0  0.151961  0  4.003776  0  0  0.156046  0  4.026688  0  0  0.007348  0.149395  0  3.988089  0
C  C43  1  0.46899068  0.64576359  0.11790073  1  0  0.133984  0  3.775578  0  0  0.151883  0  4.003919  0  0  0.155961  0  4.026837  0  0  0.007339  0.149318  0  3.988236  0
C  C44  1  0.40264968  0.41422730  0.85592721  1  0  -0.058966  0  3.640901  0  0  -0.084534  0  3.892396  0  0  -0.084413  0  3.91031  0  0  -0.066261  -0.084524  0  3.880158  0
C  C45  1  0.59735062  0.58576978  0.14407035  1  0  -0.058815  0  3.640931  0  0  -0.084411  0  3.892458  0  0  -0.084265  0  3.910396  0  0  -0.06621  -0.084403  0  3.880221  0
C  C46  1  0.43314903  0.52836873  0.85643159  1  0  -0.131377  0  3.711555  0  0  -0.148605  0  3.959417  0  0  -0.157011  0  3.982014  0  0  -0.089938  -0.142917  0  3.944024  0
C  C47  1  0.56685035  0.47162921  0.14356672  1  0  -0.131333  0  3.711448  0  0  -0.148591  0  3.959364  0  0  -0.156995  0  3.981953  0  0  -0.089929  -0.1429  0  3.943973  0
C  C48  1  0.31369891  0.59258598  0.82538553  1  0  0.168213  0  3.766388  0  0  0.178843  0  4.000583  0  0  0.189186  0  4.020136  0  0  0.023199  0.172251  0  3.987079  0
C  C49  1  0.68630315  0.40741281  0.17461309  1  0  0.168165  0  3.766388  0  0  0.178852  0  4.000516  0  0  0.189196  0  4.02007  0  0  0.023228  0.172258  0  3.987015  0
C  C50  1  0.14415590  0.54497983  0.78939231  1  0  -0.15232  0  3.663436  0  0  -0.166984  0  3.910263  0  0  -0.176223  0  3.92925  0  0  -0.06789  -0.160976  0  3.897422  0
C  C51  1  0.85584649  0.45501639  0.21060540  1  0  -0.152307  0  3.663538  0  0  -0.166999  0  3.910369  0  0  -0.176239  0  3.929355  0  0  -0.067896  -0.160986  0  3.897523  0
C  C52  1  0.37023560  0.71154979  0.82955279  1  0  -0.145197  0  3.657504  0  0  -0.161469  0  3.904897  0  0  -0.170777  0  3.923923  0  0  -0.067563  -0.155938  0  3.892548  0
C  C53  1  0.62976321  0.28844642  0.17044380  1  0  -0.145219  0  3.657538  0  0  -0.161478  0  3.90489  0  0  -0.170787  0  3.923915  0  0  -0.067572  -0.155947  0  3.892539  0
C  C54  1  0.04280173  0.61424464  0.75819212  1  0  0.093643  0  3.642417  0  0  0.04745  0  3.89895  0  0  0.056928  0  3.914053  0  0  0.060969  0.041268  0  3.888709  0
C  C55  1  0.95720251  0.38575321  0.24180273  1  0  0.093623  0  3.642317  0  0  0.04741  0  3.89888  0  0  0.056887  0  3.913982  0  0  0.060877  0.041213  0  3.888665  0
C  C56  1  0.26330389  0.77658831  0.79692269  1  0  0.104672  0  3.607565  0  0  0.060976  0  3.860061  0  0  0.070853  0  3.874723  0  0  0.066559  0.054658  0  3.850228  0
C  C57  1  0.73669519  0.22340879  0.20307554  1  0  0.104641  0  3.607448  0  0  0.060966  0  3.859943  0  0  0.070837  0  3.874604  0  0  0.066521  0.05465  0  3.850108  0
C  C58  1  0.99329363  0.79961397  0.71844947  1  0  -0.06835  0  3.608953  0  0  -0.136861  0  3.859432  0  0  -0.132676  0  3.868174  0  0  -0.051757  -0.139432  0  3.853417  0
C  C59  1  0.00670779  0.20038320  0.28155211  1  0  -0.068502  0  3.60906  0  0  -0.137061  0  3.85957  0  0  -0.13289  0  3.868298  0  0  -0.051793  -0.13963  0  3.853552  0
C  C60  1  0.00442050  0.81137641  0.60332026  1  0  0.077073  0  3.755396  0  0  0.09399  0  4.001785  0  0  0.094138  0  4.026603  0  0  -0.013821  0.094056  0  3.984752  0
C  C61  1  0.99557130  0.18862760  0.39668240  1  0  0.077188  0  3.755206  0  0  0.094099  0  4.001625  0  0  0.094245  0  4.026447  0  0  -0.013711  0.094165  0  3.984586  0
C  C62  1  0.89980440  0.73168003  0.52382026  1  0  -0.133218  0  3.781808  0  0  -0.151727  0  4.029183  0  0  -0.156256  0  4.051692  0  0  -0.099368  -0.148726  0  4.013829  0
C  C63  1  0.10019668  0.26832313  0.47618322  1  0  -0.133328  0  3.781855  0  0  -0.151853  0  4.029249  0  0  -0.156382  0  4.051759  0  0  -0.099422  -0.148853  0  4.013896  0
C  C64  1  0.11907245  0.90157781  0.57425324  1  0  -0.114955  0  3.741351  0  0  -0.136989  0  3.995728  0  0  -0.141209  0  4.018193  0  0  -0.089075  -0.134211  0  3.980432  0
C  C65  1  0.88091599  0.09843052  0.42575250  1  0  -0.114742  0  3.741409  0  0  -0.136757  0  3.995788  0  0  -0.140974  0  4.018247  0  0  -0.089037  -0.133982  0  3.980492  0
C  C66  1  0.90928030  0.74217481  0.41727026  1  0  -0.073161  0  3.76396  0  0  -0.0937  0  4.006301  0  0  -0.093364  0  4.027377  0  0  -0.089364  -0.093668  0  3.991891  0
C  C67  1  0.09072051  0.25782746  0.58273158  1  0  -0.073115  0  3.764125  0  0  -0.093701  0  4.006439  0  0  -0.093367  0  4.027514  0  0  -0.089373  -0.093671  0  3.992024  0
C  C68  1  0.12805906  0.91258151  0.46761370  1  0  -0.060289  0  3.738355  0  0  -0.083126  0  3.98609  0  0  -0.082755  0  4.006899  0  0  -0.080955  -0.083118  0  3.971865  0
C  C69  1  0.87192672  0.08742594  0.53239017  1  0  -0.06047  0  3.738385  0  0  -0.083347  0  3.986122  0  0  -0.082977  0  4.00693  0  0  -0.081102  -0.083337  0  3.971898  0
C  C70  1  0.02302593  0.83304340  0.38824346  1  0  -0.054331  0  3.751662  0  0  -0.03099  0  3.980542  0  0  -0.039377  0  4.004314  0  0  -0.017987  -0.025605  0  3.964547  0
C  C71  1  0.97696831  0.16696056  0.61175708  1  0  -0.054378  0  3.751552  0  0  -0.030853  0  3.980226  0  0  -0.03924  0  4.003993  0  0  -0.017952  -0.025476  0  3.964232  0
C  C72  1  0.02609704  0.84684518  0.27301555  1  0  0.622518  0  3.94008  0  0  0.576216  0  4.229363  0  0  0.610623  0  4.223386  0  0  0.185277  0.552952  0  4.232462  0
C  C73  1  0.97390163  0.15315800  0.72698848  1  0  0.622636  0  3.939906  0  0  0.576267  0  4.229212  0  0  0.610675  0  4.223226  0  0  0.185278  0.553006  0  4.232307  0
N  N74  1  0.76901835  0.23017141  0.92771848  1  0  -0.326483  0  3.280446  0  0  -0.25382  0  3.544455  0  0  -0.273911  0  3.566469  0  0  -0.332569  -0.240011  0  3.529377  0
N  N75  1  0.23098460  0.76982995  0.07228116  1  0  -0.326496  0  3.280333  0  0  -0.25383  0  3.54433  0  0  -0.273923  0  3.566347  0  0  -0.332565  -0.24002  0  3.52925  0
N  N76  1  0.10240431  0.72796482  0.76038812  1  0  -0.007739  0  3.541904  0  0  0.090214  0  3.751677  0  0  0.075266  0  3.778606  0  0  -0.207971  0.099983  0  3.733491  0
N  N77  1  0.89759598  0.27203226  0.23960945  1  0  -0.00784  0  3.541675  0  0  0.090128  0  3.751466  0  0  0.075178  0  3.7784  0  0  -0.208011  0.099898  0  3.733276  0
Cl  Cl78  1  0.18037389  0.29025011  0.07376686  1  0  -0.623872  0  0.887584  0  0  -0.573123  0  1.145112  0  0  -0.589598  0  1.124951  0  0  -0.336675  -0.560584  0  1.158913  0
Cl  Cl79  1  0.81963439  0.70975301  0.92623574  1  0  -0.623857  0  0.887568  0  0  -0.573146  0  1.145148  0  0  -0.589619  0  1.124985  0  0  -0.33667  -0.560607  0  1.158951  0
Cl  Cl80  1  0.80472940  0.99675212  0.05229439  1  0  -0.583796  0  0.98715  0  0  -0.520802  0  1.26592  0  0  -0.540466  0  1.242289  0  0  -0.293717  -0.506711  0  1.281926  0
Cl  Cl81  1  0.19527329  0.00324834  0.94770283  1  0  -0.583783  0  0.987099  0  0  -0.520774  0  1.265837  0  0  -0.540433  0  1.2422  0  0  -0.293717  -0.506683  0  1.281842  0
O  O82  1  0.93909969  0.76519089  0.20463545  1  0  -0.651905  0  1.99888  0  0  -0.592993  0  2.242708  0  0  -0.621653  0  2.233843  0  0  -0.339528  -0.572933  0  2.248014  0
O  O83  1  0.06090556  0.23481058  0.79536910  1  0  -0.651899  0  1.998803  0  0  -0.592959  0  2.242642  0  0  -0.621627  0  2.233778  0  0  -0.339486  -0.572901  0  2.247947  0
O  O84  1  0.11083477  0.93791885  0.24742075  1  0  -0.6228  0  1.901033  0  0  -0.567582  0  2.121455  0  0  -0.594632  0  2.112717  0  0  -0.341263  -0.548561  0  2.126628  0
O  O85  1  0.88916184  0.06208512  0.75258080  1  0  -0.622873  0  1.901045  0  0  -0.567653  0  2.121506  0  0  -0.594703  0  2.11276  0  0  -0.341289  -0.548635  0  2.126678  0
