# generated using pymatgen
data_CdH18C26(N3O4)2
_symmetry_space_group_name_H-M   'P 1'
_cell_length_a   8.51741384
_cell_length_b   11.65053896
_cell_length_c   14.91600000
_cell_angle_alpha   98.79880841
_cell_angle_beta   100.27333336
_cell_angle_gamma   104.67897254
_symmetry_Int_Tables_number   1
_chemical_formula_structural   CdH18C26(N3O4)2
_chemical_formula_sum   'Cd2 H36 C52 N12 O16'
_cell_volume   1378.01696469
_cell_formula_units_Z   2
loop_
 _symmetry_equiv_pos_site_id
 _symmetry_equiv_pos_as_xyz
  1  'x, y, z'
loop_
 _atom_site_type_symbol
 _atom_site_label
 _atom_site_symmetry_multiplicity
 _atom_site_fract_x
 _atom_site_fract_y
 _atom_site_fract_z
 _atom_site_occupancy
 _atom_site_hle17_bader_spin_density
 _atom_site_hle17_ddec_charge
 _atom_site_hle17_ddec_spin_density
 _atom_site_hle17_ddec_sum_bond_order
 _atom_site_hle17_magmom
 _atom_site_hse06_10hf_bader_spin_density
 _atom_site_hse06_10hf_ddec_charge
 _atom_site_hse06_10hf_ddec_spin_density
 _atom_site_hse06_10hf_ddec_sum_bond_order
 _atom_site_hse06_10hf_magmom
 _atom_site_hse06_bader_spin_density
 _atom_site_hse06_ddec_charge
 _atom_site_hse06_ddec_spin_density
 _atom_site_hse06_ddec_sum_bond_order
 _atom_site_hse06_magmom
 _atom_site_pbe_bader_charge
 _atom_site_pbe_bader_spin_density
 _atom_site_pbe_cm5_charge
 _atom_site_pbe_ddec_charge
 _atom_site_pbe_ddec_spin_density
 _atom_site_pbe_ddec_sum_bond_order
 _atom_site_pbe_magmom
Cd  Cd0  1  0.11871659  0.41834579  0.41833401  1  0  1.113694  0  1.721892  0  0  0.920586  0  2.176086  0  0  0.979202  0  2.123924  0  1.278194  0  0.784238  0.878694  0  2.211792  0
Cd  Cd1  1  0.88128005  0.58165194  0.58166605  1  0  1.113686  0  1.721877  0  0  0.920576  0  2.176074  0  0  0.979193  0  2.12391  0  1.278181  0  0.784228  0.87869  0  2.211773  0
H  H2  1  0.75906473  0.31832171  0.28169373  1  0  0.080489  0  0.940366  0  0  0.091102  0  1.002341  0  0  0.092754  0  1.001619  0  0.112248  0  0.116812  0.089771  0  1.002993  0
H  H3  1  0.24093263  0.68167784  0.71830327  1  0  0.080525  0  0.940407  0  0  0.091132  0  1.002386  0  0  0.092784  0  1.001664  0  0.112294  0  0.116837  0.0898  0  1.003039  0
H  H4  1  0.61610819  0.32800479  0.12077330  1  0  0.111333  0  0.948712  0  0  0.118491  0  1.014837  0  0  0.122048  0  1.012426  0  0.13272  0  0.110786  0.11591  0  1.016776  0
H  H5  1  0.38389347  0.67199657  0.87922301  1  0  0.111346  0  0.948666  0  0  0.118471  0  1.014832  0  0  0.12203  0  1.012417  0  0.132757  0  0.110772  0.115889  0  1.016772  0
H  H6  1  0.04860050  0.61966309  0.12338460  1  0  0.114711  0  0.947381  0  0  0.120121  0  1.014493  0  0  0.123488  0  1.013589  0  0.114726  0  0.108271  0.117719  0  1.015283  0
H  H7  1  0.95140474  0.38033827  0.87661610  1  0  0.114699  0  0.94739  0  0  0.120127  0  1.014479  0  0  0.123495  0  1.013575  0  0.114364  0  0.108289  0.117726  0  1.015269  0
H  H8  1  0.17497165  0.59467340  0.28115994  1  0  0.088474  0  0.956374  0  0  0.091644  0  1.028217  0  0  0.094664  0  1.025004  0  0.159236  0  0.115328  0.089398  0  1.03061  0
H  H9  1  0.82502810  0.40532615  0.71884199  1  0  0.088434  0  0.956412  0  0  0.091609  0  1.028252  0  0  0.094628  0  1.025041  0  0.159246  0  0.115313  0.089364  0  1.030644  0
H  H10  1  0.81418559  0.55569067  0.98531147  1  0  0.082592  0  0.917254  0  0  0.091957  0  0.98105  0  0  0.095926  0  0.976594  0  0.113061  0  0.119706  0.089092  0  0.9843  0
H  H11  1  0.18581798  0.44431250  0.01468726  1  0  0.082599  0  0.917169  0  0  0.091983  0  0.980984  0  0  0.095956  0  0.976522  0  0.113136  0  0.119705  0.089112  0  0.984242  0
H  H12  1  0.37607473  0.26279500  0.85474282  1  0  0.071025  0  0.909815  0  0  0.080854  0  0.972838  0  0  0.085141  0  0.96763  0  0.094712  0  0.115398  0.077738  0  0.976707  0
H  H13  1  0.62392693  0.73720636  0.14525885  1  0  0.071029  0  0.909804  0  0  0.080857  0  0.972828  0  0  0.085143  0  0.967621  0  0.094702  0  0.115394  0.07774  0  0.9767  0
H  H14  1  0.44592602  0.52863899  0.57595858  1  0  0.088139  0  0.942431  0  0  0.097533  0  1.004844  0  0  0.099598  0  1.003212  0  0.117521  0  0.119396  0.095941  0  1.006216  0
H  H15  1  0.55407373  0.47136055  0.42404134  1  0  0.088112  0  0.942452  0  0  0.097506  0  1.004877  0  0  0.099571  0  1.003246  0  0.117508  0  0.119384  0.095914  0  1.006249  0
H  H16  1  0.57358145  0.51080865  0.73378151  1  0  0.128882  0  0.954792  0  0  0.132219  0  1.024034  0  0  0.136917  0  1.020256  0  0.166418  0  0.113609  0.128845  0  1.026879  0
H  H17  1  0.42641830  0.48919089  0.26621774  1  0  0.128867  0  0.954793  0  0  0.132216  0  1.024026  0  0  0.136914  0  1.020247  0  0.166419  0  0.113609  0.128841  0  1.026871  0
H  H18  1  0.14991126  0.19938231  0.70811107  1  0  0.107969  0  0.955238  0  0  0.118465  0  1.014969  0  0  0.121361  0  1.01435  0  0.094394  0  0.107382  0.11641  0  1.015571  0
H  H19  1  0.85008885  0.80061814  0.29189033  1  0  0.10799  0  0.955216  0  0  0.11849  0  1.014942  0  0  0.121385  0  1.014324  0  0.094407  0  0.107395  0.116435  0  1.015544  0
H  H20  1  0.03729235  0.23198040  0.55059648  1  0  0.086382  0  0.93163  0  0  0.096781  0  0.991362  0  0  0.09905  0  0.989299  0  0.097451  0  0.118844  0.095086  0  0.992943  0
H  H21  1  0.96270704  0.76801824  0.44940464  1  0  0.086385  0  0.931632  0  0  0.096792  0  0.99136  0  0  0.099061  0  0.989297  0  0.097454  0  0.118846  0.095098  0  0.992941  0
H  H22  1  0.39606955  0.23941644  0.19872573  1  0  0.109617  0  0.940616  0  0  0.119528  0  0.999159  0  0  0.123278  0  0.997048  0  0.089071  0  0.109371  0.116816  0  1.000783  0
H  H23  1  0.60393056  0.76058402  0.80127366  1  0  0.109617  0  0.940634  0  0  0.11953  0  0.999173  0  0  0.12328  0  0.997062  0  0.089075  0  0.109368  0.116819  0  1.000796  0
H  H24  1  0.41038531  0.07971174  0.06724892  1  0  0.124948  0  0.949565  0  0  0.13002  0  1.01467  0  0  0.13439  0  1.010683  0  0.148638  0  0.112263  0.126875  0  1.017588  0
H  H25  1  0.58961682  0.92028781  0.93275124  1  0  0.124979  0  0.949556  0  0  0.130053  0  1.014657  0  0  0.134422  0  1.010671  0  0.148648  0  0.11228  0.126907  0  1.017575  0
H  H26  1  0.94975458  0.84533597  0.09513975  1  0  0.113167  0  0.942781  0  0  0.121265  0  1.004165  0  0  0.125451  0  1.000916  0  0.111053  0  0.111112  0.118235  0  1.006609  0
H  H27  1  0.05024755  0.15466358  0.90486176  1  0  0.11316  0  0.942782  0  0  0.121249  0  1.004176  0  0  0.125433  0  1.000926  0  0.110982  0  0.111107  0.118218  0  1.00662  0
H  H28  1  0.93787542  0.00636286  0.22667352  1  0  0.106819  0  0.937762  0  0  0.116709  0  0.996687  0  0  0.120843  0  0.993656  0  0.103792  0  0.106597  0.113662  0  0.999026  0
H  H29  1  0.06212588  0.99363759  0.77332801  1  0  0.106832  0  0.937829  0  0  0.11672  0  0.996751  0  0  0.120853  0  0.993722  0  0.103786  0  0.1066  0.113668  0  0.999096  0
H  H30  1  0.57597668  0.77219936  0.48465910  1  0  0.109374  0  0.958143  0  0  0.114612  0  1.023372  0  0  0.117858  0  1.022721  0  0.12584  0  0.106181  0.112299  0  1.023911  0
H  H31  1  0.42401996  0.22779837  0.51534029  1  0  0.109315  0  0.958114  0  0  0.114573  0  1.023338  0  0  0.117817  0  1.022685  0  0.125847  0  0.106169  0.112261  0  1.023876  0
H  H32  1  0.77209617  0.97688497  0.56702285  1  0  0.117556  0  0.933523  0  0  0.126387  0  0.991109  0  0  0.130445  0  0.98841  0  0.126197  0  0.114738  0.123503  0  0.993106  0
H  H33  1  0.22790166  0.02311277  0.43297666  1  0  0.11759  0  0.93355  0  0  0.126389  0  0.991179  0  0  0.130446  0  0.98848  0  0.126161  0  0.11473  0.123504  0  0.993176  0
H  H34  1  0.39726169  0.04820860  0.70806899  1  0  0.113761  0  0.942588  0  0  0.120676  0  1.003509  0  0  0.124537  0  1.000827  0  0.105449  0  0.111787  0.117887  0  1.005533  0
H  H35  1  0.60273770  0.95179004  0.29193212  1  0  0.113708  0  0.942642  0  0  0.120658  0  1.003527  0  0  0.124518  0  1.000846  0  0.105454  0  0.111785  0.117869  0  1.00555  0
H  H36  1  0.20147883  0.84416028  0.62605889  1  0  0.126467  0  0.975424  0  0  0.130522  0  1.043605  0  0  0.135149  0  1.039662  0  0.183486  0  0.106968  0.127153  0  1.046564  0
H  H37  1  0.79851937  0.15583836  0.37394143  1  0  0.126469  0  0.975415  0  0  0.130528  0  1.04359  0  0  0.135155  0  1.039647  0  0.183529  0  0.106975  0.127159  0  1.046549  0
C  C38  1  0.81744566  0.38315684  0.24333539  1  0  0.129267  0  3.703671  0  0  0.099699  0  3.952661  0  0  0.106242  0  3.972674  0  0.469186  0  0.0457  0.095484  0  3.93911  0
C  C39  1  0.18255289  0.61684271  0.75666173  1  0  0.129221  0  3.703693  0  0  0.099658  0  3.952668  0  0  0.1062  0  3.972685  0  0.46949  0  0.045689  0.095444  0  3.939117  0
C  C40  1  0.73886406  0.38897268  0.15531290  1  0  -0.125911  0  3.691056  0  0  -0.151682  0  3.946637  0  0  -0.157943  0  3.966512  0  -0.004644  0  -0.072653  -0.147713  0  3.933379  0
C  C41  1  0.26113759  0.61102869  0.84468408  1  0  -0.125786  0  3.690969  0  0  -0.15155  0  3.946532  0  0  -0.157807  0  3.966397  0  -0.0048  0  -0.072605  -0.147581  0  3.933274  0
C  C42  1  0.82174693  0.47421087  0.10955245  1  0  0.090723  0  3.805177  0  0  0.10512  0  4.038087  0  0  0.107536  0  4.061766  0  0.008744  0  0.008896  0.103755  0  4.021835  0
C  C43  1  0.17825831  0.52579049  0.89044690  1  0  0.090586  0  3.805317  0  0  0.105057  0  4.03815  0  0  0.107471  0  4.061834  0  0.00876  0  0.00889  0.103692  0  4.021898  0
C  C44  1  0.98006205  0.55129999  0.15568402  1  0  -0.148628  0  3.683033  0  0  -0.168588  0  3.933284  0  0  -0.177049  0  3.954988  0  0.022317  0  -0.077084  -0.163072  0  3.918667  0
C  C45  1  0.01994163  0.44870046  0.84431641  1  0  -0.14861  0  3.682999  0  0  -0.168597  0  3.933225  0  0  -0.177058  0  3.954928  0  0.022428  0  -0.077106  -0.163083  0  3.918613  0
C  C46  1  0.05110629  0.53819235  0.24352707  1  0  0.140558  0  3.696236  0  0  0.107016  0  3.951528  0  0  0.115348  0  3.968732  0  0.39996  0  0.047822  0.101597  0  3.939837  0
C  C47  1  0.94889537  0.46180901  0.75647393  1  0  0.140625  0  3.696215  0  0  0.107068  0  3.951523  0  0  0.1154  0  3.968728  0  0.39999  0  0.047842  0.101649  0  3.93983  0
C  C48  1  0.74956936  0.48205513  0.01559157  1  0  0.099419  0  3.6434  0  0  0.065055  0  3.906715  0  0  0.071193  0  3.918655  0  0.591851  0  0.082449  0.060984  0  3.898466  0
C  C49  1  0.25043624  0.51794714  0.98440726  1  0  0.09944  0  3.643301  0  0  0.064992  0  3.906651  0  0  0.071128  0  3.918594  0  0.591444  0  0.082422  0.060927  0  3.898402  0
C  C50  1  0.43785927  0.34143085  0.82829483  1  0  0.097013  0  3.664997  0  0  0.063107  0  3.928748  0  0  0.068924  0  3.940274  0  0.651149  0  0.080354  0.059175  0  3.92085  0
C  C51  1  0.56214119  0.65857052  0.17170538  1  0  0.097037  0  3.665031  0  0  0.063132  0  3.928778  0  0  0.068951  0  3.940303  0  0.651191  0  0.080394  0.059201  0  3.920881  0
C  C52  1  0.38389882  0.45704004  0.60764001  1  0  0.144849  0  3.68257  0  0  0.112229  0  3.936993  0  0  0.120093  0  3.953867  0  0.543381  0  0.050471  0.106986  0  3.925692  0
C  C53  1  0.61610056  0.54295860  0.39236043  1  0  0.144898  0  3.682674  0  0  0.112276  0  3.937109  0  0  0.120139  0  3.953986  0  0.543363  0  0.050519  0.107031  0  3.925808  0
C  C54  1  0.45518268  0.44656590  0.69576660  1  0  -0.117643  0  3.646769  0  0  -0.138755  0  3.895037  0  0  -0.145003  0  3.913569  0  -0.021622  0  -0.069535  -0.134818  0  3.882849  0
C  C55  1  0.54481862  0.55343455  0.30423358  1  0  -0.11762  0  3.646846  0  0  -0.138758  0  3.89515  0  0  -0.145004  0  3.913682  0  -0.021607  0  -0.069573  -0.13482  0  3.882962  0
C  C56  1  0.37189968  0.35300084  0.73426724  1  0  0.087556  0  3.806182  0  0  0.102012  0  4.03879  0  0  0.104271  0  4.063369  0  -0.020803  0  0.009797  0.10075  0  4.021979  0
C  C57  1  0.62810043  0.64699962  0.26573349  1  0  0.087489  0  3.806237  0  0  0.101951  0  4.038855  0  0  0.104209  0  4.063434  0  -0.020777  0  0.009794  0.100689  0  4.022045  0
C  C58  1  0.22052548  0.27249079  0.68079101  1  0  -0.158197  0  3.707016  0  0  -0.175647  0  3.951043  0  0  -0.184205  0  3.974431  0  -0.037984  0  -0.081518  -0.170066  0  3.93532  0
C  C59  1  0.77947462  0.72750966  0.31921039  1  0  -0.158173  0  3.707004  0  0  -0.17562  0  3.95103  0  0  -0.184177  0  3.974417  0  -0.037971  0  -0.081519  -0.170039  0  3.935307  0
C  C60  1  0.15669005  0.29017871  0.59323229  1  0  0.136892  0  3.704834  0  0  0.106112  0  3.954523  0  0  0.113449  0  3.973589  0  0.480747  0  0.046569  0.101336  0  3.941528  0
C  C61  1  0.84330970  0.70982084  0.40676897  1  0  0.136782  0  3.704917  0  0  0.105985  0  3.954617  0  0  0.113322  0  3.973684  0  0.480743  0  0.046478  0.10121  0  3.941621  0
C  C62  1  0.15787710  0.22657460  0.29726973  1  0  0.618797  0  3.958963  0  0  0.571488  0  4.251217  0  0  0.605047  0  4.246179  0  1.579962  0  0.188042  0.548876  0  4.253405  0
C  C63  1  0.84212456  0.77342676  0.70273060  1  0  0.618787  0  3.959068  0  0  0.571434  0  4.251353  0  0  0.604993  0  4.246314  0  1.579933  0  0.187999  0.548822  0  4.253542  0
C  C64  1  0.16689269  0.13081057  0.21981406  1  0  -0.021286  0  3.705459  0  0  -0.003259  0  3.940376  0  0  -0.008047  0  3.961516  0  0.006616  0  -0.003654  -0.000187  0  3.926064  0
C  C65  1  0.83310825  0.86918898  0.78018464  1  0  -0.021182  0  3.70536  0  0  -0.003103  0  3.940227  0  0  -0.00789  0  3.961368  0  0.006639  0  -0.003598  -3.1e-05  0  3.925915  0
C  C66  1  0.29995815  0.15249727  0.17523101  1  0  -0.054545  0  3.698607  0  0  -0.075959  0  3.943949  0  0  -0.077557  0  3.96402  0  0.009234  0  -0.074585  -0.074831  0  3.930298  0
C  C67  1  0.70004077  0.84750319  0.82476894  1  0  -0.054594  0  3.698518  0  0  -0.07602  0  3.943855  0  0  -0.077619  0  3.963926  0  0.009268  0  -0.074609  -0.074892  0  3.930205  0
C  C68  1  0.30789648  0.06513177  0.10262455  1  0  -0.09943  0  3.711924  0  0  -0.123007  0  3.964422  0  0  -0.124137  0  3.983765  0  -0.032974  0  -0.07824  -0.122017  0  3.951111  0
C  C69  1  0.69210482  0.93486868  0.89737564  1  0  -0.099445  0  3.711926  0  0  -0.123026  0  3.964432  0  0  -0.124157  0  3.983778  0  -0.033223  0  -0.078233  -0.122035  0  3.951121  0
C  C70  1  0.18014741  0.95583056  0.07571347  1  0  0.065196  0  3.717005  0  0  0.058159  0  3.972841  0  0  0.055469  0  3.9974  0  0.127887  0  0.073442  0.059858  0  3.956158  0
C  C71  1  0.81985353  0.04416899  0.92428724  1  0  0.065229  0  3.716985  0  0  0.058182  0  3.972824  0  0  0.055491  0  3.997383  0  0.12812  0  0.073425  0.059881  0  3.956142  0
C  C72  1  0.04628961  0.93179067  0.11901754  1  0  -0.103008  0  3.746605  0  0  -0.132339  0  4.010923  0  0  -0.133627  0  4.031317  0  -0.022875  0  -0.084163  -0.1313  0  3.997  0
C  C73  1  0.95371289  0.06820979  0.88098411  1  0  -0.102977  0  3.746512  0  0  -0.132283  0  4.010805  0  0  -0.133569  0  4.031201  0  -0.022836  0  -0.084137  -0.131243  0  3.996881  0
C  C74  1  0.04039257  0.02029692  0.19122213  1  0  -0.06257  0  3.720621  0  0  -0.088467  0  3.976964  0  0  -0.09033  0  3.997385  0  -0.004486  0  -0.081697  -0.087119  0  3.963137  0
C  C75  1  0.95961028  0.97970444  0.80877899  1  0  -0.062607  0  3.720591  0  0  -0.088525  0  3.976915  0  0  -0.09039  0  3.997334  0  -0.004485  0  -0.081691  -0.087174  0  3.96309  0
C  C76  1  0.26820477  0.67124997  0.50397325  1  0  0.639172  0  3.930388  0  0  0.586787  0  4.226942  0  0  0.621895  0  4.219145  0  1.565601  0  0.201815  0.562974  0  4.231239  0
C  C77  1  0.73179104  0.32874867  0.49602549  1  0  0.639114  0  3.930494  0  0  0.586745  0  4.227027  0  0  0.621853  0  4.219231  0  1.565618  0  0.201804  0.562931  0  4.231323  0
C  C78  1  0.37860604  0.79669647  0.55032648  1  0  -0.029998  0  3.699825  0  0  -0.013884  0  3.938754  0  0  -0.019377  0  3.959296  0  0.007165  0  -0.004638  -0.010324  0  3.924921  0
C  C79  1  0.62139132  0.20330308  0.44967253  1  0  -0.029987  0  3.699839  0  0  -0.013866  0  3.938774  0  0  -0.019365  0  3.959318  0  0.007165  0  -0.00461  -0.010306  0  3.924939  0
C  C80  1  0.53828154  0.83407351  0.53301439  1  0  -0.049605  0  3.694508  0  0  -0.073479  0  3.948196  0  0  -0.074674  0  3.968324  0  -0.069529  0  -0.075991  -0.072596  0  3.934565  0
C  C81  1  0.46171510  0.16592423  0.46698500  1  0  -0.04954  0  3.694334  0  0  -0.07344  0  3.948052  0  0  -0.074624  0  3.968169  0  -0.069532  0  -0.076004  -0.072556  0  3.93442  0
C  C82  1  0.64683598  0.94682875  0.57828202  1  0  -0.09265  0  3.728961  0  0  -0.118508  0  3.988625  0  0  -0.120038  0  4.008946  0  0.002729  0  -0.075223  -0.117361  0  3.97481  0
C  C83  1  0.35316066  0.05316898  0.42171737  1  0  -0.092701  0  3.728931  0  0  -0.118542  0  3.988624  0  0  -0.120077  0  4.008944  0  0.002729  0  -0.075211  -0.117394  0  3.974808  0
C  C84  1  0.59245156  0.02129027  0.64090003  1  0  0.060959  0  3.732271  0  0  0.053649  0  3.988041  0  0  0.050626  0  4.013293  0  0.148859  0  0.076369  0.055592  0  3.970935  0
C  C85  1  0.40754627  0.97870746  0.35910015  1  0  0.061021  0  3.732188  0  0  0.053714  0  3.987964  0  0  0.050691  0  4.013217  0  0.148813  0  0.076372  0.055657  0  3.970859  0
C  C86  1  0.43357903  0.98670141  0.65872477  1  0  -0.09419  0  3.731124  0  0  -0.116816  0  3.983611  0  0  -0.118255  0  4.0039  0  0.049212  0  -0.077298  -0.115634  0  3.96968  0
C  C87  1  0.56641916  0.01329723  0.34127556  1  0  -0.094151  0  3.731062  0  0  -0.116808  0  3.983569  0  0  -0.118248  0  4.003858  0  0.049167  0  -0.077273  -0.115626  0  3.969638  0
C  C88  1  0.32593643  0.87352251  0.61287120  1  0  -0.069348  0  3.69043  0  0  -0.089115  0  3.936049  0  0  -0.090911  0  3.955503  0  -0.077313  0  -0.077522  -0.087793  0  3.922851  0
C  C89  1  0.67406093  0.12647704  0.38712915  1  0  -0.069322  0  3.690351  0  0  -0.089092  0  3.935983  0  0  -0.090889  0  3.955442  0  -0.077307  0  -0.077526  -0.08777  0  3.922783  0
N  N90  1  0.97139274  0.45585346  0.28651420  1  0  -0.323172  0  3.248999  0  0  -0.239608  0  3.504346  0  0  -0.260896  0  3.524965  0  -1.230593  0  -0.326193  -0.225127  0  3.490079  0
N  N91  1  0.02860498  0.54414699  0.71348495  1  0  -0.323227  0  3.248985  0  0  -0.239636  0  3.504293  0  0  -0.260923  0  3.52491  0  -1.230634  0  -0.326218  -0.225155  0  3.490026  0
N  N92  1  0.61346089  0.40209573  0.96761282  1  0  -0.197604  0  3.031909  0  0  -0.174654  0  3.325713  0  0  -0.183164  0  3.341566  0  -0.746062  0  -0.21042  -0.168726  0  3.314768  0
N  N93  1  0.38654351  0.59790653  0.03238723  1  0  -0.19762  0  3.031803  0  0  -0.174643  0  3.325613  0  0  -0.183154  0  3.34147  0  -0.745572  0  -0.210421  -0.168714  0  3.314664  0
N  N94  1  0.56684807  0.42444467  0.88005330  1  0  -0.186242  0  3.051507  0  0  -0.157592  0  3.341643  0  0  -0.165665  0  3.358336  0  -0.76063  0  -0.202249  -0.151881  0  3.33008  0
N  N95  1  0.43315395  0.57555760  0.11994650  1  0  -0.186202  0  3.051625  0  0  -0.15755  0  3.341745  0  0  -0.165623  0  3.35844  0  -0.760836  0  -0.202219  -0.151839  0  3.330181  0
N  N96  1  0.23669747  0.38116742  0.55738269  1  0  -0.336627  0  3.269126  0  0  -0.255194  0  3.534416  0  0  -0.276308  0  3.553558  0  -1.261329  0  -0.330567  -0.240721  0  3.521093  0
N  N97  1  0.76330073  0.61883122  0.44261764  1  0  -0.336586  0  3.269235  0  0  -0.255144  0  3.534527  0  0  -0.276256  0  3.553667  0  -1.261349  0  -0.330539  -0.240672  0  3.521204  0
N  N98  1  0.18497558  0.86286059  0.99845011  1  0  0.506761  0  3.897692  0  0  0.537025  0  4.193703  0  0  0.55798  0  4.20169  0  0.371994  0  0.060659  0.522999  0  4.188212  0
N  N99  1  0.81502417  0.13713895  0.00155048  1  0  0.506589  0  3.897708  0  0  0.536838  0  4.193747  0  0  0.557794  0  4.201733  0  0.371942  0  0.060564  0.522812  0  4.188255  0
N  N100  1  0.70731151  0.13908120  0.69055707  1  0  0.502506  0  3.900112  0  0  0.532183  0  4.19725  0  0  0.553408  0  4.205016  0  0.356066  0  0.058047  0.517947  0  4.191918  0
N  N101  1  0.29268752  0.86091654  0.30944323  1  0  0.502398  0  3.90008  0  0  0.532068  0  4.197232  0  0  0.553293  0  4.205  0  0.356148  0  0.057988  0.517831  0  4.191901  0
O  O102  1  0.03664648  0.20226891  0.33719270  1  0  -0.646061  0  1.942752  0  0  -0.591667  0  2.178073  0  0  -0.619274  0  2.1688  0  -1.17937  0  -0.337103  -0.572125  0  2.183525  0
O  O103  1  0.96335482  0.79773154  0.66280816  1  0  -0.646041  0  1.942796  0  0  -0.591643  0  2.178142  0  0  -0.61925  0  2.16887  0  -1.179373  0  -0.337079  -0.572101  0  2.183593  0
O  O104  1  0.27055993  0.32800389  0.31802521  1  0  -0.632289  0  1.955573  0  0  -0.575711  0  2.194949  0  0  -0.603966  0  2.187281  0  -1.157484  0  -0.328097  -0.555696  0  2.19936  0
O  O105  1  0.72944137  0.67199657  0.68197430  1  0  -0.632364  0  1.95555  0  0  -0.575766  0  2.194931  0  0  -0.604026  0  2.187271  0  -1.157452  0  -0.328133  -0.555751  0  2.199344  0
O  O106  1  0.29394649  0.89003474  0.95371882  1  0  -0.366577  0  1.727259  0  0  -0.350059  0  1.92544  0  0  -0.362329  0  1.921584  0  -0.464352  0  -0.131685  -0.341782  0  1.92817  0
O  O107  1  0.70605290  0.10996390  0.04628162  1  0  -0.366533  0  1.727291  0  0  -0.350014  0  1.925478  0  0  -0.362284  0  1.921622  0  -0.464317  0  -0.131676  -0.341738  0  1.928207  0
O  O108  1  0.07881036  0.76229584  0.98157309  1  0  -0.36631  0  1.729333  0  0  -0.350326  0  1.929174  0  0  -0.36239  0  1.926659  0  -0.473483  0  -0.133229  -0.342259  0  1.93106  0
O  O109  1  0.92118975  0.23770462  0.01842832  1  0  -0.36621  0  1.729275  0  0  -0.350193  0  1.929087  0  0  -0.362257  0  1.926574  0  -0.473479  0  -0.133145  -0.342126  0  1.930971  0
O  O110  1  0.31766587  0.61010066  0.44227689  1  0  -0.625598  0  1.991698  0  0  -0.565326  0  2.239751  0  0  -0.59373  0  2.231283  0  -1.147874  0  -0.320233  -0.545255  0  2.244756  0
O  O111  1  0.68232636  0.38989799  0.55772082  1  0  -0.625628  0  1.991746  0  0  -0.565385  0  2.239817  0  0  -0.593789  0  2.231347  0  -1.147881  0  -0.32024  -0.545323  0  2.244843  0
O  O112  1  0.13492860  0.62973535  0.53011866  1  0  -0.670339  0  2.07154  0  0  -0.607385  0  2.347122  0  0  -0.636893  0  2.334787  0  -1.197479  0  -0.333067  -0.586332  0  2.35464  0
O  O113  1  0.86506912  0.37026511  0.46988251  1  0  -0.670304  0  2.071553  0  0  -0.60735  0  2.34713  0  0  -0.636857  0  2.334796  0  -1.19738  0  -0.333084  -0.586294  0  2.354646  0
O  O114  1  0.84282341  0.17275065  0.66809463  1  0  -0.376298  0  1.775647  0  0  -0.358378  0  1.992468  0  0  -0.37175  0  1.990709  0  -0.486471  0  -0.126167  -0.349337  0  1.993768  0
O  O115  1  0.15717764  0.82724618  0.33190644  1  0  -0.37631  0  1.775738  0  0  -0.358367  0  1.992541  0  0  -0.371738  0  1.990781  0  -0.486493  0  -0.126156  -0.349327  0  1.993841  0
O  O116  1  0.66480557  0.19957463  0.75308987  1  0  -0.360938  0  1.742065  0  0  -0.343723  0  1.946471  0  0  -0.356072  0  1.944564  0  -0.46954  0  -0.126407  -0.335288  0  1.94783  0
O  O117  1  0.33519263  0.80042401  0.24690979  1  0  -0.360841  0  1.741978  0  0  -0.343628  0  1.946389  0  0  -0.355977  0  1.944483  0  -0.469563  0  -0.126361  -0.335191  0  1.947744  0
