# generated using pymatgen
data_CuH6C5BrN2
_symmetry_space_group_name_H-M   'P 1'
_cell_length_a   3.94225680
_cell_length_b   10.73554750
_cell_length_c   15.44934286
_cell_angle_alpha   89.99617547
_cell_angle_beta   89.99972419
_cell_angle_gamma   90.00192688
_symmetry_Int_Tables_number   1
_chemical_formula_structural   CuH6C5BrN2
_chemical_formula_sum   'Cu4 H24 C20 Br4 N8'
_cell_volume   653.85149189
_cell_formula_units_Z   4
loop_
 _symmetry_equiv_pos_site_id
 _symmetry_equiv_pos_as_xyz
  1  'x, y, z'
loop_
 _atom_site_type_symbol
 _atom_site_label
 _atom_site_symmetry_multiplicity
 _atom_site_fract_x
 _atom_site_fract_y
 _atom_site_fract_z
 _atom_site_occupancy
 _atom_site_hle17_bader_spin_density
 _atom_site_hle17_ddec_charge
 _atom_site_hle17_ddec_spin_density
 _atom_site_hle17_ddec_sum_bond_order
 _atom_site_hle17_magmom
 _atom_site_hse06_10hf_bader_spin_density
 _atom_site_hse06_10hf_ddec_charge
 _atom_site_hse06_10hf_ddec_spin_density
 _atom_site_hse06_10hf_ddec_sum_bond_order
 _atom_site_hse06_10hf_magmom
 _atom_site_hse06_bader_spin_density
 _atom_site_hse06_ddec_charge
 _atom_site_hse06_ddec_spin_density
 _atom_site_hse06_ddec_sum_bond_order
 _atom_site_hse06_magmom
 _atom_site_pbe_bader_spin_density
 _atom_site_pbe_cm5_charge
 _atom_site_pbe_ddec_charge
 _atom_site_pbe_ddec_spin_density
 _atom_site_pbe_ddec_sum_bond_order
 _atom_site_pbe_magmom
Cu  Cu0  1  0.81833333  0.51316265  0.80561210  1  0  0.304695  0  2.050616  0  0  0.20809  0  2.554419  0  0  0.226898  0  2.487373  0  0  0.279501  0.196915  0  2.599506  0
Cu  Cu1  1  0.31819561  0.48691996  0.69436696  1  0  0.305103  0  2.050754  0  0  0.208649  0  2.554339  0  0  0.227446  0  2.487303  0  0  0.279731  0.197495  0  2.599456  0
Cu  Cu2  1  0.18167678  0.98682760  0.30561220  1  0  0.304893  0  2.051015  0  0  0.208315  0  2.554909  0  0  0.227119  0  2.487849  0  0  0.279751  0.197154  0  2.600003  0
Cu  Cu3  1  0.68180419  0.01310041  0.19438993  1  0  0.305017  0  2.051011  0  0  0.208572  0  2.554723  0  0  0.22735  0  2.487675  0  0  0.279727  0.197418  0  2.599796  0
H  H4  1  0.68383836  0.70259137  0.93797660  1  0  0.0674  0  0.965726  0  0  0.074321  0  1.036857  0  0  0.076564  0  1.034957  0  0  0.098952  0.072554  0  1.038483  0
H  H5  1  0.18359344  0.29742602  0.56202663  1  0  0.067501  0  0.965588  0  0  0.074528  0  1.036673  0  0  0.076779  0  1.034761  0  0  0.098841  0.072753  0  1.0383  0
H  H6  1  0.31616247  0.79741398  0.43799553  1  0  0.067506  0  0.965835  0  0  0.074395  0  1.036947  0  0  0.07662  0  1.035086  0  0  0.098947  0.072633  0  1.038576  0
H  H7  1  0.81641056  0.20257180  0.06202515  1  0  0.067521  0  0.965817  0  0  0.074555  0  1.036869  0  0  0.076812  0  1.03493  0  0  0.098869  0.072783  0  1.038494  0
H  H8  1  0.80184083  0.73520339  0.09490818  1  0  0.108212  0  0.982489  0  0  0.116308  0  1.051002  0  0  0.119604  0  1.049901  0  0  0.095688  0.113936  0  1.052006  0
H  H9  1  0.30169300  0.26474027  0.40509440  1  0  0.108517  0  0.98191  0  0  0.116561  0  1.050524  0  0  0.11986  0  1.049425  0  0  0.09575  0.114177  0  1.051529  0
H  H10  1  0.19816686  0.76478215  0.59493962  1  0  0.108343  0  0.98202  0  0  0.116448  0  1.050512  0  0  0.119756  0  1.049382  0  0  0.095749  0.114067  0  1.051533  0
H  H11  1  0.69831176  0.23527083  0.90509207  1  0  0.108502  0  0.981752  0  0  0.116547  0  1.050387  0  0  0.119851  0  1.049279  0  0  0.095791  0.114166  0  1.05139  0
H  H12  1  0.30319568  0.51743759  0.22467186  1  0  0.300263  0  0.949334  0  0  0.284228  0  1.012299  0  0  0.291343  0  1.007286  0  0  0.287025  0.279256  0  1.015696  0
H  H13  1  0.80326033  0.48250330  0.27532425  1  0  0.300457  0  0.949104  0  0  0.28439  0  1.012147  0  0  0.291506  0  1.007136  0  0  0.286977  0.279415  0  1.015546  0
H  H14  1  0.69677233  0.98258473  0.72466335  1  0  0.30028  0  0.949539  0  0  0.28424  0  1.012469  0  0  0.291358  0  1.00745  0  0  0.286972  0.279268  0  1.015869  0
H  H15  1  0.19674352  0.01749618  0.77535604  1  0  0.300368  0  0.94934  0  0  0.284371  0  1.012217  0  0  0.291475  0  1.007224  0  0  0.287024  0.279403  0  1.015616  0
H  H16  1  0.11562102  0.66077157  0.21920894  1  0  0.306273  0  0.928118  0  0  0.291896  0  0.99385  0  0  0.297988  0  0.989373  0  0  0.27415  0.287383  0  0.997342  0
H  H17  1  0.61557532  0.33912943  0.28080042  1  0  0.306163  0  0.928263  0  0  0.291765  0  0.994011  0  0  0.297857  0  0.989544  0  0  0.274037  0.287247  0  0.997501  0
H  H18  1  0.88437242  0.83922241  0.71922095  1  0  0.3063  0  0.927759  0  0  0.291926  0  0.993479  0  0  0.298025  0  0.989007  0  0  0.274078  0.287409  0  0.996968  0
H  H19  1  0.38438027  0.16087697  0.78080849  1  0  0.306025  0  0.928215  0  0  0.291666  0  0.993973  0  0  0.297759  0  0.989501  0  0  0.273967  0.287151  0  0.997469  0
H  H20  1  0.29776503  0.37534206  0.09582305  1  0  0.114924  0  0.955597  0  0  0.124799  0  1.017211  0  0  0.12829  0  1.016632  0  0  0.098996  0.12225  0  1.017937  0
H  H21  1  0.79782664  0.62463135  0.40414977  1  0  0.114811  0  0.955326  0  0  0.124678  0  1.016974  0  0  0.128173  0  1.016389  0  0  0.098971  0.122131  0  1.017702  0
H  H22  1  0.70220050  0.12467297  0.59579925  1  0  0.115036  0  0.955363  0  0  0.124895  0  1.01702  0  0  0.12839  0  1.016435  0  0  0.098965  0.122345  0  1.017752  0
H  H23  1  0.20224057  0.87536424  0.90418454  1  0  0.114966  0  0.955426  0  0  0.124864  0  1.016982  0  0  0.128366  0  1.016393  0  0  0.099041  0.122307  0  1.017712  0
H  H24  1  0.17023827  0.36053343  0.93905029  1  0  0.066478  0  0.956254  0  0  0.074546  0  1.027196  0  0  0.076972  0  1.024431  0  0  0.105372  0.072675  0  1.029415  0
H  H25  1  0.67011259  0.63946886  0.56092190  1  0  0.066463  0  0.956232  0  0  0.074508  0  1.027259  0  0  0.076935  0  1.024481  0  0  0.105281  0.072638  0  1.029489  0
H  H26  1  0.82975845  0.13945295  0.43901738  1  0  0.066445  0  0.956288  0  0  0.074448  0  1.027302  0  0  0.076878  0  1.024527  0  0  0.105322  0.072575  0  1.029523  0
H  H27  1  0.32994118  0.86052370  0.06095862  1  0  0.066295  0  0.956431  0  0  0.074448  0  1.027332  0  0  0.076876  0  1.024558  0  0  0.105277  0.072574  0  1.029548  0
C  C28  1  0.82200495  0.63281392  0.97536609  1  0  0.136998  0  3.739412  0  0  0.107345  0  3.986204  0  0  0.116483  0  4.005538  0  0  0.030017  0.101469  0  3.973256  0
C  C29  1  0.32183452  0.36719608  0.52464469  1  0  0.136728  0  3.739479  0  0  0.106909  0  3.986197  0  0  0.116053  0  4.005526  0  0  0.030034  0.101047  0  3.973248  0
C  C30  1  0.17797258  0.86718594  0.47536197  1  0  0.136893  0  3.739325  0  0  0.107249  0  3.986082  0  0  0.116392  0  4.005412  0  0  0.029989  0.101366  0  3.973157  0
C  C31  1  0.67818264  0.13280722  0.02465634  1  0  0.136566  0  3.739167  0  0  0.106778  0  3.985887  0  0  0.115926  0  4.005222  0  0  0.029965  0.100918  0  3.972946  0
C  C32  1  0.88754240  0.65081397  0.06231643  1  0  -0.251497  0  3.722565  0  0  -0.262999  0  3.96765  0  0  -0.275322  0  3.989257  0  0  -0.107217  -0.255086  0  3.953374  0
C  C33  1  0.38740086  0.34914952  0.43768860  1  0  -0.251555  0  3.721334  0  0  -0.26304  0  3.966402  0  0  -0.27538  0  3.988022  0  0  -0.107099  -0.2551  0  3.952116  0
C  C34  1  0.11244794  0.84919243  0.56232277  1  0  -0.251669  0  3.722265  0  0  -0.263144  0  3.967355  0  0  -0.275471  0  3.988968  0  0  -0.107321  -0.255213  0  3.953082  0
C  C35  1  0.61262379  0.15085191  0.93769288  1  0  -0.251185  0  3.721215  0  0  -0.262665  0  3.966386  0  0  -0.275  0  3.988004  0  0  -0.1071  -0.25473  0  3.952092  0
C  C36  1  0.06036502  0.55788841  0.10945911  1  0  0.363971  0  3.828012  0  0  0.353926  0  4.073667  0  0  0.370239  0  4.090026  0  0  0.111878  0.342992  0  4.062287  0
C  C37  1  0.56036668  0.44206397  0.39054257  1  0  0.363737  0  3.827238  0  0  0.353817  0  4.072769  0  0  0.370138  0  4.089131  0  0  0.111842  0.342865  0  4.06142  0
C  C38  1  0.93959175  0.94210317  0.60945012  1  0  0.363949  0  3.827786  0  0  0.353904  0  4.073422  0  0  0.370221  0  4.089785  0  0  0.11196  0.342968  0  4.062056  0
C  C39  1  0.43964080  0.05795413  0.89056370  1  0  0.363554  0  3.827257  0  0  0.353474  0  4.073071  0  0  0.369785  0  4.089441  0  0  0.111945  0.342538  0  4.061695  0
C  C40  1  0.16033931  0.45034023  0.06358770  1  0  -0.246908  0  3.707638  0  0  -0.259836  0  3.953741  0  0  -0.271822  0  3.974748  0  0  -0.105951  -0.251998  0  3.939709  0
C  C41  1  0.66031086  0.54963871  0.43640670  1  0  -0.2468  0  3.707012  0  0  -0.259773  0  3.953169  0  0  -0.271758  0  3.974165  0  0  -0.106038  -0.251932  0  3.939164  0
C  C42  1  0.83965453  0.04967606  0.56357036  1  0  -0.246954  0  3.706776  0  0  -0.25995  0  3.952961  0  0  -0.271933  0  3.973953  0  0  -0.105857  -0.252111  0  3.938951  0
C  C43  1  0.33975340  0.95034910  0.93642679  1  0  -0.24689  0  3.706658  0  0  -0.259814  0  3.952861  0  0  -0.271801  0  3.973851  0  0  -0.106015  -0.251972  0  3.938846  0
C  C44  1  0.08781131  0.44153950  0.97614587  1  0  0.133834  0  3.738461  0  0  0.104682  0  3.98936  0  0  0.114133  0  4.007133  0  0  0.032117  0.098534  0  3.977429  0
C  C45  1  0.58773041  0.55844208  0.52384652  1  0  0.133778  0  3.73747  0  0  0.104569  0  3.988373  0  0  0.11402  0  4.006152  0  0  0.032124  0.098425  0  3.976447  0
C  C46  1  0.91214182  0.05843770  0.47611525  1  0  0.134015  0  3.737798  0  0  0.104915  0  3.988729  0  0  0.114358  0  4.006511  0  0  0.03223  0.09878  0  3.976791  0
C  C47  1  0.41229339  0.94156247  0.02387874  1  0  0.134168  0  3.737598  0  0  0.104897  0  3.988505  0  0  0.114341  0  4.006295  0  0  0.032174  0.098773  0  3.976553  0
Br  Br48  1  0.41954322  0.67954269  0.76562503  1  0  -0.446266  0  1.484824  0  0  -0.379337  0  1.893849  0  0  -0.394389  0  1.849256  0  0  -0.22754  -0.369115  0  1.924668  0
Br  Br49  1  0.91945604  0.32051712  0.73435128  1  0  -0.44637  0  1.484704  0  0  -0.37946  0  1.893715  0  0  -0.3945  0  1.849121  0  0  -0.227594  -0.369234  0  1.924523  0
Br  Br50  1  0.58028983  0.82043281  0.26560493  1  0  -0.446358  0  1.48471  0  0  -0.379427  0  1.893637  0  0  -0.394462  0  1.849034  0  0  -0.227553  -0.369211  0  1.924444  0
Br  Br51  1  0.08063965  0.17948167  0.23433329  1  0  -0.44636  0  1.484806  0  0  -0.379463  0  1.893805  0  0  -0.394491  0  1.84918  0  0  -0.227595  -0.369249  0  1.924604  0
N  N52  1  0.91860572  0.52999851  0.93121180  1  0  -0.312509  0  3.3914  0  0  -0.236858  0  3.682387  0  0  -0.255846  0  3.694288  0  0  -0.383346  -0.22474  0  3.674265  0
N  N53  1  0.41841244  0.47000819  0.56880918  1  0  -0.312507  0  3.391241  0  0  -0.236712  0  3.682114  0  0  -0.255698  0  3.694003  0  0  -0.383417  -0.224604  0  3.674049  0
N  N54  1  0.08140534  0.96999260  0.43118241  1  0  -0.31264  0  3.391446  0  0  -0.236958  0  3.682412  0  0  -0.255944  0  3.694295  0  0  -0.383568  -0.224839  0  3.674327  0
N  N55  1  0.58163460  0.02998430  0.06882830  1  0  -0.312695  0  3.391454  0  0  -0.236975  0  3.682461  0  0  -0.255955  0  3.694342  0  0  -0.383583  -0.22489  0  3.674391  0
N  N56  1  0.11916128  0.57153925  0.19636018  1  0  -0.645946  0  3.149345  0  0  -0.60124  0  3.365452  0  0  -0.621274  0  3.364076  0  0  -0.589643  -0.587173  0  3.366115  0
N  N57  1  0.61919339  0.42837857  0.30363882  1  0  -0.645966  0  3.148963  0  0  -0.601276  0  3.365036  0  0  -0.62132  0  3.363681  0  0  -0.589461  -0.587199  0  3.365699  0
N  N58  1  0.88080962  0.92847558  0.69636162  1  0  -0.646058  0  3.148954  0  0  -0.601309  0  3.364926  0  0  -0.621339  0  3.363524  0  0  -0.58956  -0.587236  0  3.365608  0
N  N59  1  0.38081264  0.07161909  0.80364647  1  0  -0.645813  0  3.148742  0  0  -0.601184  0  3.364948  0  0  -0.621236  0  3.363634  0  0  -0.589565  -0.587122  0  3.365618  0
