# generated using pymatgen
data_CuH12C18(N3O2)2
_symmetry_space_group_name_H-M   'P 1'
_cell_length_a   7.83136796
_cell_length_b   10.22931649
_cell_length_c   12.98637129
_cell_angle_alpha   86.06508683
_cell_angle_beta   74.78776513
_cell_angle_gamma   78.23720750
_symmetry_Int_Tables_number   1
_chemical_formula_structural   CuH12C18(N3O2)2
_chemical_formula_sum   'Cu2 H24 C36 N12 O8'
_cell_volume   982.67194854
_cell_formula_units_Z   2
loop_
 _symmetry_equiv_pos_site_id
 _symmetry_equiv_pos_as_xyz
  1  'x, y, z'
loop_
 _atom_site_type_symbol
 _atom_site_label
 _atom_site_symmetry_multiplicity
 _atom_site_fract_x
 _atom_site_fract_y
 _atom_site_fract_z
 _atom_site_occupancy
 _atom_site_pbe_cm5_charge
 _atom_site_pbe_ddec_charge
 _atom_site_pbe_ddec_spin_density
 _atom_site_pbe_ddec_sum_bond_order
 _atom_site_pbe_magmom
Cu  Cu0  1  0.81470232  0.37656357  0.55780004  1  0.751764  0.828738  0.744415  2.252874  0.588
Cu  Cu1  1  0.18529904  0.62343376  0.44219930  1  0.751779  0.828765  0.744422  2.252963  0.588
H  H2  1  0.03247437  0.19769217  0.35489756  1  0.143495  0.115356  -5e-05  0.987404  0.0
H  H3  1  0.96753154  0.80230813  0.64510092  1  0.143473  0.115301  -5e-05  0.987382  0.0
H  H4  1  0.66400144  0.56424052  0.37389033  1  0.151748  0.150743  8.5e-05  1.032166  0.0
H  H5  1  0.33599885  0.43575582  0.62610845  1  0.151772  0.150778  8.5e-05  1.032157  0.0
H  H6  1  0.62615037  0.68165303  0.23615095  1  0.11098  0.129054  -3.6e-05  1.06176  0.0
H  H7  1  0.37384519  0.31834633  0.76384919  1  0.110998  0.129096  -3.6e-05  1.061722  0.0
H  H8  1  0.53672391  0.79265037  0.07739371  1  0.111833  0.112184  -1e-06  0.969412  0.0
H  H9  1  0.46328042  0.20735094  0.92260496  1  0.111859  0.112186  -1e-06  0.969382  0.0
H  H10  1  0.61768468  0.67422794  0.90647827  1  0.11076  0.118969  -1.2e-05  1.00164  0.0
H  H11  1  0.38232552  0.32577634  0.09351779  1  0.110755  0.118933  -1.2e-05  1.001727  0.0
H  H12  1  0.88781472  0.32715086  0.05109690  1  0.118248  0.137749  0.000196  1.021511  0.0
H  H13  1  0.11218083  0.67284848  0.94890479  1  0.118236  0.137737  0.000196  1.021517  0.0
H  H14  1  0.66756349  0.55692259  0.76732875  1  0.146182  0.121738  -1.3e-05  1.006405  0.0
H  H15  1  0.33242620  0.44307379  0.23267400  1  0.14614  0.121699  -1.3e-05  1.006484  0.0
H  H16  1  0.98177176  0.17153239  0.72477630  1  0.148314  0.123138  -4.1e-05  0.959024  0.0
H  H17  1  0.01823174  0.82846691  0.27522491  1  0.148337  0.123192  -4e-05  0.958992  0.0
H  H18  1  0.32558349  0.13500141  0.70878499  1  0.100375  0.098864  -3.7e-05  1.030133  0.0
H  H19  1  0.67441420  0.86499990  0.29121857  1  0.10039  0.098863  -3.7e-05  1.030132  0.0
H  H20  1  0.21807171  0.91865303  0.75767807  1  0.096535  0.095351  0.000169  1.011157  0.0
H  H21  1  0.78193204  0.08134526  0.24232469  1  0.096522  0.09534  0.000169  1.011093  0.0
H  H22  1  0.41778472  0.70699353  0.67921106  1  0.095661  0.089283  0.000308  1.062667  0.0
H  H23  1  0.58221694  0.29300776  0.32079266  1  0.095666  0.089292  0.000308  1.062571  0.0
H  H24  1  0.82540328  0.92424827  0.51301100  1  0.107386  0.122676  0.000363  1.010526  0.0
H  H25  1  0.17459367  0.07575608  0.48698714  1  0.107381  0.122642  0.000363  1.010599  0.0
C  C26  1  0.94978264  0.28750615  0.33189758  1  0.156188  0.154075  -0.000474  3.967443  0.001
C  C27  1  0.05022270  0.71249118  0.66809959  1  0.156242  0.154213  -0.000474  3.96741  0.001
C  C28  1  0.76238556  0.47448729  0.34485122  1  0.180698  0.124592  -0.001877  3.78812  -0.001
C  C29  1  0.23761315  0.52551006  0.65514775  1  0.180707  0.124572  -0.001878  3.788139  -0.001
C  C30  1  0.76505397  0.49904864  0.15177639  1  0.100531  0.162049  0.000535  4.014349  0.001
C  C31  1  0.23494398  0.50095170  0.84822332  1  0.100552  0.162061  0.000535  4.014264  0.001
C  C32  1  0.66565189  0.62957121  0.16055009  1  -0.091215  -0.179056  -0.000845  3.959068  0.0
C  C33  1  0.33434896  0.37042812  0.83944922  1  -0.091256  -0.179176  -0.000846  3.959045  0.0
C  C34  1  0.61353939  0.69065714  0.07147046  1  -0.081066  -0.034826  6.5e-05  4.003579  0.0
C  C35  1  0.38646336  0.30934519  0.92852687  1  -0.08107  -0.03478  6.5e-05  4.003494  0.0
C  C36  1  0.65813879  0.62379469  0.97530192  1  -0.091949  -0.18307  -0.000737  3.992965  0.0
C  C37  1  0.34186951  0.37620659  0.02469613  1  -0.091962  -0.183024  -0.000737  3.992838  0.0
C  C38  1  0.75513370  0.49236145  0.96944288  1  0.099032  0.157277  0.000493  4.028439  0.001
C  C39  1  0.24486558  0.50763888  0.03055740  1  0.099081  0.157356  0.000493  4.028426  0.001
C  C40  1  0.81049393  0.42868508  0.05695072  1  -0.085439  -0.240429  0.000394  3.934757  0.0
C  C41  1  0.18950295  0.57131426  0.94304921  1  -0.085446  -0.240457  0.000394  3.934704  0.0
C  C42  1  0.74860975  0.46184404  0.78187593  1  0.168025  0.100803  -0.001838  3.870951  -0.001
C  C43  1  0.25138473  0.53815431  0.21812597  1  0.168074  0.100869  -0.001838  3.870996  -0.001
C  C44  1  0.90846158  0.26487069  0.76258560  1  0.159921  0.162039  -0.000355  3.944396  0.001
C  C45  1  0.09154035  0.73512962  0.23741427  1  0.159906  0.162012  -0.000354  3.944249  0.001
C  C46  1  0.64423145  0.17379194  0.59039663  1  0.193307  0.551245  -0.00236  4.228223  -0.004
C  C47  1  0.35576575  0.82621140  0.40960229  1  0.193324  0.551254  -0.00236  4.228027  -0.004
C  C48  1  0.58366528  0.04241723  0.61183381  1  -0.018583  -0.025854  0.007028  3.967438  0.008
C  C49  1  0.41633110  0.95758411  0.38816765  1  -0.018584  -0.025882  0.007027  3.967299  0.008
C  C50  1  0.41121049  0.04061648  0.67863898  1  -0.084116  -0.08738  -0.00046  3.965114  0.0
C  C51  1  0.58879144  0.95938383  0.32136089  1  -0.084118  -0.087348  -0.00046  3.964843  0.0
C  C52  1  0.35112433  0.92053242  0.70469452  1  -0.099859  -0.094949  0.000696  4.037478  0.001
C  C53  1  0.64887362  0.07946789  0.29530905  1  -0.099894  -0.095027  0.000696  4.037537  0.001
C  C54  1  0.46158194  0.80210714  0.66146006  1  -0.0928  -0.091963  -0.001079  3.975847  -0.001
C  C55  1  0.53842023  0.19789217  0.33854059  1  -0.092779  -0.091882  -0.001079  3.975789  -0.001
C  C56  1  0.63078458  0.80311512  0.59098266  1  -0.023073  -0.040664  0.007899  3.97356  0.009
C  C57  1  0.36921577  0.19688620  0.40901741  1  -0.023068  -0.040669  0.007898  3.97357  0.009
C  C58  1  0.69288308  0.92355789  0.56715755  1  -0.076344  -0.109075  0.000192  3.916289  0.0
C  C59  1  0.30711437  0.07644444  0.43284292  1  -0.076346  -0.109024  0.000192  3.916349  0.0
C  C60  1  0.74486490  0.67543631  0.54066493  1  0.202781  0.582557  -0.001119  4.213061  -0.002
C  C61  1  0.25513488  0.32456202  0.45933537  1  0.202753  0.582463  -0.001119  4.213126  -0.002
N  N62  1  0.84330068  0.38216281  0.40307035  1  -0.364325  -0.311506  0.047449  3.615087  0.062
N  N63  1  0.15670093  0.61783353  0.59692899  1  -0.364403  -0.311608  0.047446  3.615081  0.062
N  N64  1  0.94026644  0.31628837  0.23245915  1  -0.224134  -0.269423  0.004573  3.097562  0.005
N  N65  1  0.05973467  0.68370997  0.76753863  1  -0.224143  -0.269478  0.004573  3.097602  0.005
N  N66  1  0.81983806  0.43556737  0.24176335  1  -0.120476  0.124063  0.001486  3.730093  0.002
N  N67  1  0.18016173  0.56443097  0.75823541  1  -0.120419  0.124172  0.001486  3.729997  0.002
N  N68  1  0.81697482  0.36501430  0.71094935  1  -0.357139  -0.285831  0.044761  3.584024  0.058
N  N69  1  0.18302363  0.63498403  0.28905193  1  -0.35712  -0.285848  0.04476  3.583961  0.058
N  N70  1  0.79802869  0.42137090  0.87289535  1  -0.116189  0.130707  0.001472  3.752279  0.002
N  N71  1  0.20197110  0.57862744  0.12710418  1  -0.116238  0.130655  0.001472  3.752252  0.002
N  N72  1  0.90004880  0.29477084  0.86170355  1  -0.221743  -0.264628  0.004084  3.078837  0.005
N  N73  1  0.09995287  0.70523048  0.13829553  1  -0.22178  -0.264694  0.004084  3.078722  0.005
O  O74  1  0.81508062  0.17260528  0.55911569  1  -0.320407  -0.53326  0.076103  2.228147  0.108
O  O75  1  0.18491651  0.82739306  0.44088502  1  -0.320397  -0.533239  0.076099  2.228096  0.108
O  O76  1  0.52741832  0.28023707  0.60677731  1  -0.325084  -0.575729  -0.000272  2.2675  0.002
O  O77  1  0.47258312  0.71976528  0.39321869  1  -0.325084  -0.575719  -0.000272  2.267309  0.002
O  O78  1  0.69426617  0.56762373  0.58473009  1  -0.330952  -0.570068  0.066307  2.370336  0.096
O  O79  1  0.30573576  0.43237660  0.41526901  1  -0.33096  -0.570069  0.066312  2.370373  0.096
O  O80  1  0.87744225  0.68105661  0.46276619  1  -0.328873  -0.595544  0.00253  2.333215  0.006
O  O81  1  0.12255703  0.31894372  0.53723409  1  -0.328876  -0.595524  0.00253  2.333241  0.006
