# generated using pymatgen
data_NaH9C4O7
_symmetry_space_group_name_H-M   'P 1'
_cell_length_a   6.00728842
_cell_length_b   6.29931174
_cell_length_c   11.07582351
_cell_angle_alpha   104.68775034
_cell_angle_beta   89.06896798
_cell_angle_gamma   103.72882292
_symmetry_Int_Tables_number   1
_chemical_formula_structural   NaH9C4O7
_chemical_formula_sum   'Na2 H18 C8 O14'
_cell_volume   393.41879922
_cell_formula_units_Z   2
loop_
 _symmetry_equiv_pos_site_id
 _symmetry_equiv_pos_as_xyz
  1  'x, y, z'
loop_
 _atom_site_type_symbol
 _atom_site_label
 _atom_site_symmetry_multiplicity
 _atom_site_fract_x
 _atom_site_fract_y
 _atom_site_fract_z
 _atom_site_occupancy
 _atom_site_hle17_bader_spin_density
 _atom_site_hle17_ddec_charge
 _atom_site_hle17_ddec_spin_density
 _atom_site_hle17_ddec_sum_bond_order
 _atom_site_hle17_magmom
 _atom_site_hse06_10hf_bader_spin_density
 _atom_site_hse06_10hf_ddec_charge
 _atom_site_hse06_10hf_ddec_spin_density
 _atom_site_hse06_10hf_ddec_sum_bond_order
 _atom_site_hse06_10hf_magmom
 _atom_site_hse06_bader_spin_density
 _atom_site_hse06_ddec_charge
 _atom_site_hse06_ddec_spin_density
 _atom_site_hse06_ddec_sum_bond_order
 _atom_site_hse06_magmom
 _atom_site_pbe_bader_spin_density
 _atom_site_pbe_cm5_charge
 _atom_site_pbe_ddec_charge
 _atom_site_pbe_ddec_spin_density
 _atom_site_pbe_ddec_sum_bond_order
 _atom_site_pbe_magmom
Na  Na0  1  0.26180358  0.03742552  0.43247376  1  0  0.891611  0  0.384788  0  0  0.847514  0  0.538856  0  0  0.857061  0  0.516751  0  0  0.649196  0.840572  0  0.554632  0
Na  Na1  1  0.73820229  0.96257326  0.56751392  1  0  0.891607  0  0.384783  0  0  0.847513  0  0.538832  0  0  0.857061  0  0.516727  0  0  0.649185  0.840572  0  0.55461  0
H  H2  1  0.55853913  0.73680934  0.97839526  1  0  0.383946  0  0.938461  0  0  0.350899  0  1.016021  0  0  0.363337  0  0.999304  0  0  0.294628  0.342283  0  1.026477  0
H  H3  1  0.44147709  0.26317626  0.02159238  1  0  0.38399  0  0.9385  0  0  0.350913  0  1.01603  0  0  0.363355  0  0.999308  0  0  0.294654  0.342297  0  1.026571  0
H  H4  1  0.08816113  0.83045361  0.16029547  1  0  0.125974  0  0.953147  0  0  0.129488  0  1.022392  0  0  0.134524  0  1.018574  0  0  0.115952  0.125829  0  1.025325  0
H  H5  1  0.91184750  0.16954696  0.83971775  1  0  0.125911  0  0.953084  0  0  0.129522  0  1.022262  0  0  0.134561  0  1.018436  0  0  0.115927  0.125846  0  1.025216  0
H  H6  1  0.96332800  0.75379379  0.95215079  1  0  0.124467  0  0.942878  0  0  0.133787  0  1.001127  0  0  0.137342  0  0.999949  0  0  0.112279  0.131304  0  1.002003  0
H  H7  1  0.03665672  0.24620280  0.04785460  1  0  0.124431  0  0.942799  0  0  0.1337  0  1.001151  0  0  0.137252  0  0.999978  0  0  0.112284  0.131215  0  1.002019  0
H  H8  1  0.26307639  0.16045135  0.68131542  1  0  0.420844  0  0.880401  0  0  0.390356  0  0.944078  0  0  0.40152  0  0.927597  0  0  0.292194  0.382439  0  0.955751  0
H  H9  1  0.73694918  0.83955466  0.31867875  1  0  0.420785  0  0.88047  0  0  0.390285  0  0.944172  0  0  0.401448  0  0.927691  0  0  0.292157  0.382368  0  0.955846  0
H  H10  1  0.13581314  0.34175024  0.66592539  1  0  0.416309  0  0.883823  0  0  0.387838  0  0.943544  0  0  0.397493  0  0.929277  0  0  0.295272  0.381046  0  0.953585  0
H  H11  1  0.86418780  0.65825011  0.33406973  1  0  0.416294  0  0.883849  0  0  0.387854  0  0.943522  0  0  0.397505  0  0.92926  0  0  0.295289  0.381061  0  0.953563  0
H  H12  1  0.10839939  0.33973364  0.30049478  1  0  0.419205  0  0.886252  0  0  0.386076  0  0.952904  0  0  0.396708  0  0.937379  0  0  0.291364  0.378555  0  0.963857  0
H  H13  1  0.89156739  0.66026248  0.69949785  1  0  0.419195  0  0.886349  0  0  0.386036  0  0.953054  0  0  0.396672  0  0.937522  0  0  0.291359  0.37851  0  0.964016  0
H  H14  1  0.36775242  0.34251512  0.27796034  1  0  0.417157  0  0.887849  0  0  0.381591  0  0.959065  0  0  0.392641  0  0.942852  0  0  0.289792  0.373746  0  0.970561  0
H  H15  1  0.63221338  0.65747762  0.72203813  1  0  0.417093  0  0.887865  0  0  0.381443  0  0.959228  0  0  0.392494  0  0.943013  0  0  0.2897  0.373598  0  0.97073  0
H  H16  1  0.27927787  0.71211076  0.59625687  1  0  0.415397  0  0.880968  0  0  0.388217  0  0.938124  0  0  0.398004  0  0.923707  0  0  0.296278  0.381268  0  0.948379  0
H  H17  1  0.72071996  0.28788951  0.40373190  1  0  0.415419  0  0.880938  0  0  0.388258  0  0.938064  0  0  0.398043  0  0.92365  0  0  0.296278  0.381311  0  0.948312  0
H  H18  1  0.31184199  0.59659741  0.45531309  1  0  0.42549  0  0.877197  0  0  0.398188  0  0.934915  0  0  0.408686  0  0.919429  0  0  0.288388  0.390756  0  0.945875  0
H  H19  1  0.68814514  0.40339250  0.54467691  1  0  0.425532  0  0.877147  0  0  0.398182  0  0.934909  0  0  0.408676  0  0.919432  0  0  0.2884  0.390753  0  0.945864  0
C  C20  1  0.43930499  0.80636684  0.14600218  1  0  0.695029  0  3.821504  0  0  0.644024  0  4.124738  0  0  0.678067  0  4.114566  0  0  0.228584  0.620875  0  4.131202  0
C  C21  1  0.56072113  0.19362071  0.85399932  1  0  0.69511  0  3.821513  0  0  0.644095  0  4.124767  0  0  0.67814  0  4.114595  0  0  0.228595  0.620953  0  4.131228  0
C  C22  1  0.21264795  0.79530507  0.08949591  1  0  -0.172675  0  3.631343  0  0  -0.191626  0  3.892718  0  0  -0.197622  0  3.906648  0  0  -0.073238  -0.18763  0  3.883464  0
C  C23  1  0.78735349  0.20470035  0.91051618  1  0  -0.17276  0  3.631769  0  0  -0.191822  0  3.893125  0  0  -0.197825  0  3.907061  0  0  -0.073266  -0.187821  0  3.883889  0
C  C24  1  0.14050626  0.75037937  0.96896432  1  0  -0.156986  0  3.629162  0  0  -0.179234  0  3.893775  0  0  -0.184276  0  3.908834  0  0  -0.075872  -0.17596  0  3.883576  0
C  C25  1  0.85948910  0.24962758  0.03104165  1  0  -0.156785  0  3.629096  0  0  -0.178941  0  3.893764  0  0  -0.183971  0  3.90881  0  0  -0.075819  -0.17565  0  3.883543  0
C  C26  1  0.26408677  0.69236001  0.85181533  1  0  0.699229  0  3.85388  0  0  0.641343  0  4.158563  0  0  0.675786  0  4.149252  0  0  0.22484  0.618136  0  4.164079  0
C  C27  1  0.73591970  0.30765396  0.14820249  1  0  0.69926  0  3.85368  0  0  0.641328  0  4.158442  0  0  0.675779  0  4.149131  0  0  0.225019  0.618116  0  4.163952  0
O  O28  1  0.46368707  0.85133434  0.26194811  1  0  -0.598953  0  1.957519  0  0  -0.54576  0  2.182241  0  0  -0.568008  0  2.171704  0  0  -0.315674  -0.530432  0  2.189267  0
O  O29  1  0.53634046  0.14868182  0.73805473  1  0  -0.598942  0  1.957465  0  0  -0.545767  0  2.182219  0  0  -0.568016  0  2.171684  0  0  -0.315658  -0.53044  0  2.189245  0
O  O30  1  0.61143348  0.77141857  0.07505398  1  0  -0.561406  0  2.096958  0  0  -0.508667  0  2.320524  0  0  -0.532944  0  2.306075  0  0  -0.329636  -0.491824  0  2.329399  0
O  O31  1  0.38857906  0.22857536  0.92494839  1  0  -0.561481  0  2.097015  0  0  -0.508651  0  2.320484  0  0  -0.532914  0  2.306002  0  0  -0.329651  -0.491804  0  2.329416  0
O  O32  1  0.15112606  0.64158331  0.74843497  1  0  -0.634332  0  1.998423  0  0  -0.560129  0  2.205606  0  0  -0.58589  0  2.194156  0  0  -0.286943  -0.542163  0  2.213029  0
O  O33  1  0.84884898  0.35842985  0.25157273  1  0  -0.634174  0  1.998871  0  0  -0.559995  0  2.206129  0  0  -0.585749  0  2.194674  0  0  -0.286988  -0.542053  0  2.213566  0
O  O34  1  0.47767047  0.69393714  0.85736733  1  0  -0.614383  0  2.075683  0  0  -0.543473  0  2.290966  0  0  -0.570829  0  2.280969  0  0  -0.297212  -0.524619  0  2.297108  0
O  O35  1  0.52230664  0.30607103  0.14264418  1  0  -0.614576  0  2.075171  0  0  -0.54377  0  2.290646  0  0  -0.571123  0  2.280591  0  0  -0.297411  -0.524896  0  2.296782  0
O  O36  1  0.12797487  0.17876489  0.63788792  1  0  -0.90702  0  1.769541  0  0  -0.862767  0  1.940042  0  0  -0.878718  0  1.905914  0  0  -0.67938  -0.851537  0  1.963971  0
O  O37  1  0.87203813  0.82123744  0.36210841  1  0  -0.90698  0  1.76959  0  0  -0.862704  0  1.940016  0  0  -0.878654  0  1.905901  0  0  -0.679376  -0.851479  0  1.963945  0
O  O38  1  0.25314338  0.34202150  0.34339832  1  0  -0.879787  0  1.828548  0  0  -0.825192  0  2.001912  0  0  -0.843717  0  1.968147  0  0  -0.636056  -0.812015  0  2.025536  0
O  O39  1  0.74686054  0.65796212  0.65659444  1  0  -0.879665  0  1.82859  0  0  -0.825019  0  2.001999  0  0  -0.843547  0  1.968256  0  0  -0.635935  -0.811833  0  2.025626  0
O  O40  1  0.33598744  0.74627629  0.51802859  1  0  -0.909149  0  1.765567  0  0  -0.862459  0  1.931712  0  0  -0.879162  0  1.899753  0  0  -0.684741  -0.850617  0  1.954052  0
O  O41  1  0.66401183  0.25370889  0.48196437  1  0  -0.909231  0  1.765548  0  0  -0.862475  0  1.931761  0  0  -0.879189  0  1.899831  0  0  -0.684758  -0.850637  0  1.954098  0
