# generated using pymatgen
data_Mn2H26C16O9
_symmetry_space_group_name_H-M   'P 1'
_cell_length_a   7.53917073
_cell_length_b   9.06692200
_cell_length_c   13.81942637
_cell_angle_alpha   104.64917353
_cell_angle_beta   105.81197904
_cell_angle_gamma   90.00488098
_symmetry_Int_Tables_number   1
_chemical_formula_structural   Mn2H26C16O9
_chemical_formula_sum   'Mn4 H52 C32 O18'
_cell_volume   876.94558063
_cell_formula_units_Z   2
loop_
 _symmetry_equiv_pos_site_id
 _symmetry_equiv_pos_as_xyz
  1  'x, y, z'
loop_
 _atom_site_type_symbol
 _atom_site_label
 _atom_site_symmetry_multiplicity
 _atom_site_fract_x
 _atom_site_fract_y
 _atom_site_fract_z
 _atom_site_occupancy
 _atom_site_pbe_cm5_charge
 _atom_site_pbe_ddec_charge
 _atom_site_pbe_ddec_spin_density
 _atom_site_pbe_ddec_sum_bond_order
 _atom_site_pbe_magmom
Mn  Mn0  1  0.22308667  0.45756733  0.03612057  1  0.609939  1.057287  -4.682406  2.19621  -4.494
Mn  Mn1  1  0.81298913  0.95756726  0.03611024  1  0.609272  1.056267  -4.681907  2.197092  -4.494
Mn  Mn2  1  0.77691847  0.54243047  0.96388128  1  0.609927  1.057306  -4.682374  2.196197  -4.494
Mn  Mn3  1  0.18700933  0.04243283  0.96389026  1  0.609299  1.056326  -4.681907  2.196951  -4.494
H  H4  1  0.31611293  0.70047537  0.24565388  1  0.103575  0.119611  -0.001166  1.021667  -0.001
H  H5  1  0.92941199  0.20072867  0.24572424  1  0.103699  0.11992  -0.001169  1.022474  -0.001
H  H6  1  0.68388851  0.29952702  0.75434601  1  0.103545  0.11955  -0.001166  1.021742  -0.001
H  H7  1  0.07058360  0.79927027  0.75427636  1  0.103678  0.119864  -0.001169  1.022473  -0.001
H  H8  1  0.12220269  0.61621314  0.26140369  1  0.105775  0.124105  -0.000255  1.010884  -0.001
H  H9  1  0.13896175  0.11639361  0.26156039  1  0.106112  0.124625  -0.000245  1.01071  -0.001
H  H10  1  0.87780013  0.38378925  0.73859568  1  0.105783  0.124121  -0.000255  1.010897  -0.001
H  H11  1  0.86103394  0.88360648  0.73844114  1  0.106105  0.124565  -0.000245  1.010761  -0.001
H  H12  1  0.26423851  0.95522557  0.35068503  1  0.088014  0.079386  5.6e-05  1.008336  0.0
H  H13  1  0.08631348  0.45545860  0.35075880  1  0.087713  0.078457  5.4e-05  1.009475  0.0
H  H14  1  0.73576292  0.04477681  0.64931485  1  0.087998  0.079376  5.6e-05  1.008354  0.0
H  H15  1  0.91368096  0.54454264  0.64923985  1  0.087718  0.078474  5.4e-05  1.009477  0.0
H  H16  1  0.04705247  0.88734505  0.35195237  1  0.088157  0.07799  4.8e-05  1.009718  0.0
H  H17  1  0.30473465  0.38754271  0.35199402  1  0.087667  0.077456  5.7e-05  1.00995  0.0
H  H18  1  0.95295173  0.11265733  0.64804721  1  0.088131  0.077972  4.8e-05  1.00971  0.0
H  H19  1  0.69525830  0.61245739  0.64800566  1  0.087646  0.07746  5.7e-05  1.009966  0.0
H  H20  1  0.19754714  0.70664926  0.45451916  1  0.084455  0.071479  -8e-06  1.026625  0.0
H  H21  1  0.25670726  0.20687145  0.45458992  1  0.084506  0.071424  -1e-05  1.025796  0.0
H  H22  1  0.80245409  0.29335084  0.54547958  1  0.084449  0.071463  -8e-06  1.026625  0.0
H  H23  1  0.74328578  0.79312978  0.54541069  1  0.084537  0.071456  -1e-05  1.025714  0.0
H  H24  1  0.41639543  0.76978648  0.45273358  1  0.086019  0.079166  -1.5e-05  1.007452  0.0
H  H25  1  0.03614743  0.27010090  0.45290534  1  0.086275  0.079226  -1.8e-05  1.007723  0.0
H  H26  1  0.58360463  0.23021591  0.54726537  1  0.086026  0.079177  -1.5e-05  1.00746  0.0
H  H27  1  0.96384592  0.72990376  0.54709733  1  0.086288  0.079219  -1.8e-05  1.007751  0.0
H  H28  1  0.37541433  0.03421525  0.55121659  1  0.085556  0.075587  9e-06  1.017066  0.0
H  H29  1  0.17569972  0.53445822  0.55140725  1  0.085673  0.075166  1.1e-05  1.017382  0.0
H  H30  1  0.62458413  0.96578484  0.44878319  1  0.08555  0.075584  9e-06  1.017056  0.0
H  H31  1  0.82429915  0.46554644  0.44859480  1  0.085668  0.075138  1.1e-05  1.017399  0.0
H  H32  1  0.15282765  0.97524837  0.55076602  1  0.086131  0.07694  -1.1e-05  1.003631  0.0
H  H33  1  0.39776292  0.47550795  0.55077298  1  0.086162  0.076931  -1.3e-05  1.002957  0.0
H  H34  1  0.84717220  0.02475172  0.44923397  1  0.086127  0.07693  -1.1e-05  1.003638  0.0
H  H35  1  0.60223300  0.52449444  0.44922535  1  0.086157  0.076919  -1.3e-05  1.002901  0.0
H  H36  1  0.28511838  0.79254193  0.65455386  1  0.08753  0.075347  -1.3e-05  1.021074  0.0
H  H37  1  0.36940987  0.29275968  0.65460958  1  0.087159  0.075023  -1.7e-05  1.021024  0.0
H  H38  1  0.71488285  0.20745817  0.34544562  1  0.087526  0.075347  -1.3e-05  1.021056  0.0
H  H39  1  0.63059126  0.70723928  0.34538824  1  0.087155  0.075011  -1.7e-05  1.021049  0.0
H  H40  1  0.50917011  0.84123664  0.65117354  1  0.08955  0.082966  2.6e-05  0.998494  0.0
H  H41  1  0.14209290  0.34151062  0.65143142  1  0.089567  0.08382  3e-05  0.998553  0.0
H  H42  1  0.49082984  0.15876460  0.34882665  1  0.089542  0.082961  2.6e-05  0.998469  0.0
H  H43  1  0.85791118  0.65849061  0.34857011  1  0.08957  0.083814  3e-05  0.998556  0.0
H  H44  1  0.48984202  0.11197535  0.74966320  1  0.096365  0.113044  4.5e-05  1.015479  0.0
H  H45  1  0.26012320  0.61227552  0.74984173  1  0.096273  0.113322  4.5e-05  1.015937  0.0
H  H46  1  0.51015783  0.88802474  0.25033679  1  0.096364  0.113045  4.5e-05  1.015489  0.0
H  H47  1  0.73988341  0.38772341  0.25016270  1  0.096258  0.113362  4.5e-05  1.015908  0.0
H  H48  1  0.26125572  0.06407729  0.75113621  1  0.101411  0.121541  -0.000624  1.010358  -0.001
H  H49  1  0.49007931  0.56417648  0.75123372  1  0.101185  0.1213  -0.000631  1.010177  -0.001
H  H50  1  0.73874412  0.93592280  0.24886378  1  0.101412  0.121539  -0.000624  1.010375  -0.001
H  H51  1  0.50992605  0.43582361  0.24876710  1  0.101178  0.121256  -0.000631  1.010175  -0.001
H  H52  1  0.50955899  0.20743356  0.04686146  1  0.300285  0.385832  -0.000929  0.954593  -0.003
H  H53  1  0.53736532  0.70753464  0.04693826  1  0.300215  0.385408  -0.000938  0.955274  -0.003
H  H54  1  0.49043927  0.79256425  0.95313790  1  0.30026  0.385804  -0.000929  0.954629  -0.003
H  H55  1  0.46263570  0.29246317  0.95306080  1  0.300212  0.385421  -0.000938  0.955255  -0.003
C  C56  1  0.05865366  0.74756501  0.15396326  1  0.242307  0.676534  -0.025146  4.056095  -0.022
C  C57  1  0.09540015  0.24757321  0.15402965  1  0.243124  0.678414  -0.025129  4.056677  -0.022
C  C58  1  0.94134894  0.25243508  0.84603714  1  0.242246  0.676386  -0.025146  4.056321  -0.022
C  C59  1  0.90459831  0.75242688  0.84597085  1  0.243206  0.678497  -0.025129  4.056433  -0.022
C  C60  1  0.17807458  0.72481259  0.25541529  1  -0.166384  -0.324361  -0.003915  3.92994  -0.003
C  C61  1  0.07723582  0.22501247  0.25552146  1  -0.166383  -0.325052  -0.003893  3.930214  -0.003
C  C62  1  0.82192814  0.27518866  0.74458387  1  -0.166361  -0.32423  -0.003915  3.929931  -0.003
C  C63  1  0.92275840  0.77498648  0.74447893  1  -0.166379  -0.324931  -0.003893  3.930185  -0.003
C  C64  1  0.18741916  0.85311916  0.35251448  1  -0.169381  -0.124945  -0.000454  3.964034  -0.001
C  C65  1  0.16492599  0.35333545  0.35258159  1  -0.169202  -0.123536  -0.000448  3.963422  -0.001
C  C66  1  0.81258228  0.14688323  0.64748468  1  -0.169309  -0.124901  -0.000454  3.96403  -0.001
C  C67  1  0.83506696  0.64666465  0.64741881  1  -0.169149  -0.123575  -0.000448  3.963465  -0.001
C  C68  1  0.27726880  0.80749834  0.45290660  1  -0.168258  -0.151938  -0.000302  3.952445  0.0
C  C69  1  0.17543107  0.30774291  0.45299738  1  -0.168129  -0.152023  -0.000311  3.951168  0.0
C  C70  1  0.72273244  0.19250176  0.54709215  1  -0.168281  -0.151981  -0.000302  3.952501  0.0
C  C71  1  0.82456345  0.69225946  0.54700436  1  -0.168225  -0.152143  -0.000311  3.95108  0.0
C  C72  1  0.29124866  0.93501241  0.55153963  1  -0.166696  -0.149032  -0.000291  3.955788  0.0
C  C73  1  0.26017219  0.43524001  0.55162821  1  -0.167636  -0.149282  -0.000278  3.955738  0.0
C  C74  1  0.70875246  0.06498654  0.44846035  1  -0.166696  -0.149015  -0.000291  3.955774  0.0
C  C75  1  0.73982649  0.56476237  0.44837198  1  -0.167581  -0.149111  -0.000278  3.955544  0.0
C  C76  1  0.37384801  0.88695655  0.65176211  1  -0.16286  -0.117081  -0.001195  3.926742  -0.001
C  C77  1  0.27793372  0.38718385  0.65187759  1  -0.161748  -0.11684  -0.001187  3.927466  -0.001
C  C78  1  0.62615195  0.11304469  0.34823736  1  -0.162831  -0.117055  -0.001195  3.926628  -0.001
C  C79  1  0.72206761  0.61281739  0.34812209  1  -0.161772  -0.116887  -0.001187  3.927481  -0.001
C  C80  1  0.39639759  0.01936229  0.74978747  1  -0.169198  -0.31613  -0.001688  3.918654  -0.001
C  C81  1  0.35354145  0.51956602  0.74989280  1  -0.168997  -0.315772  -0.001675  3.917044  -0.001
C  C82  1  0.60360354  0.98063667  0.25021179  1  -0.169229  -0.316183  -0.001688  3.918697  -0.001
C  C83  1  0.64646380  0.48043292  0.25010925  1  -0.168985  -0.315775  -0.001675  3.91708  -0.001
C  C84  1  0.47515447  0.96795760  0.84775221  1  0.228461  0.653389  -0.024344  4.092499  -0.021
C  C85  1  0.37261127  0.46809239  0.84783208  1  0.228141  0.653577  -0.024411  4.09182  -0.021
C  C86  1  0.52484537  0.03204250  0.15224778  1  0.228455  0.653403  -0.024343  4.092497  -0.021
C  C87  1  0.62739770  0.53190198  0.15216904  1  0.228098  0.653558  -0.02441  4.091866  -0.021
O  O88  1  0.05500539  0.64468849  0.06941934  1  -0.301916  -0.595868  -0.083557  2.411386  -0.053
O  O89  1  0.01457083  0.14464940  0.06952399  1  -0.301508  -0.595798  -0.083397  2.412212  -0.053
O  O90  1  0.94499860  0.35531161  0.93057982  1  -0.301885  -0.595807  -0.083554  2.411478  -0.053
O  O91  1  0.98542604  0.85534840  0.93047661  1  -0.301524  -0.595816  -0.083396  2.412198  -0.053
O  O92  1  0.96087751  0.86096811  0.15517779  1  -0.292232  -0.551388  -0.052336  2.330118  -0.036
O  O93  1  0.19447518  0.36089340  0.15518395  1  -0.29262  -0.552319  -0.052321  2.331388  -0.036
O  O94  1  0.03912065  0.13902856  0.84482065  1  -0.292205  -0.551337  -0.052336  2.330202  -0.036
O  O95  1  0.80552316  0.63910554  0.84481851  1  -0.292684  -0.552392  -0.052325  2.331302  -0.036
O  O96  1  0.36222204  0.90138696  0.88197463  1  -0.314964  -0.599715  -0.040841  2.302508  -0.023
O  O97  1  0.51967351  0.40145842  0.88203362  1  -0.313981  -0.599165  -0.040732  2.30134  -0.023
O  O98  1  0.63777801  0.09861542  0.11802650  1  -0.314948  -0.599743  -0.040842  2.302513  -0.023
O  O99  1  0.48033686  0.59853596  0.11796482  1  -0.313882  -0.598973  -0.040728  2.301238  -0.023
O  O100  1  0.64760115  0.98813040  0.89049015  1  -0.298211  -0.539652  -0.044684  2.26384  -0.032
O  O101  1  0.24285745  0.48824156  0.89056982  1  -0.299092  -0.540747  -0.044742  2.26474  -0.032
O  O102  1  0.35240017  0.01187083  0.10951097  1  -0.298204  -0.539639  -0.044684  2.263849  -0.032
O  O103  1  0.75715152  0.51175280  0.10943275  1  -0.299101  -0.540825  -0.044739  2.264837  -0.032
O  O104  1  0.40748204  0.24989310  0.99995450  1  -0.546892  -0.799954  -0.072744  2.233946  -0.046
O  O105  1  0.59251633  0.75010585  0.00004435  1  -0.546875  -0.799928  -0.072743  2.233992  -0.046
