# generated using pymatgen
data_ZnH12C28(N5O13)2
_symmetry_space_group_name_H-M   'P 1'
_cell_length_a   12.34751613
_cell_length_b   13.04557474
_cell_length_c   23.28763452
_cell_angle_alpha   88.33667582
_cell_angle_beta   86.68001256
_cell_angle_gamma   84.82760374
_symmetry_Int_Tables_number   1
_chemical_formula_structural   ZnH12C28(N5O13)2
_chemical_formula_sum   'Zn2 H24 C56 N20 O52'
_cell_volume   3728.56825190
_cell_formula_units_Z   2
loop_
 _symmetry_equiv_pos_site_id
 _symmetry_equiv_pos_as_xyz
  1  'x, y, z'
loop_
 _atom_site_type_symbol
 _atom_site_label
 _atom_site_symmetry_multiplicity
 _atom_site_fract_x
 _atom_site_fract_y
 _atom_site_fract_z
 _atom_site_occupancy
 _atom_site_pbe_bader_charge
 _atom_site_pbe_bader_spin_density
 _atom_site_pbe_cm5_charge
 _atom_site_pbe_ddec_charge
 _atom_site_pbe_ddec_spin_density
 _atom_site_pbe_ddec_sum_bond_order
 _atom_site_pbe_magmom
Zn  Zn0  1  0.62063832  0.50872921  0.49725294  1  1.304319  0  0.685137  0.867518  0  2.250014  0
Zn  Zn1  1  0.38893534  0.50225755  0.50279313  1  1.314889  0  0.694697  0.885851  0  2.301282  0
H  H2  1  0.17119724  0.72373299  0.11864909  1  0.086615  0  0.104436  0.115206  0  1.00909  0
H  H3  1  0.13759036  0.78551556  0.05024990  1  0.073254  0  0.102047  0.103678  0  0.993518  0
H  H4  1  0.18671687  0.85811042  0.10633154  1  0.068911  0  0.123043  0.137911  0  0.949281  0
H  H5  1  0.31721139  0.19503393  0.90273894  1  0.087538  0  0.102498  0.112971  0  1.007629  0
H  H6  1  0.32367392  0.14426637  0.97604690  1  0.05966  0  0.102635  0.104763  0  0.991307  0
H  H7  1  0.40719379  0.08292968  0.91914962  1  0.091313  0  0.119391  0.136449  0  0.959346  0
H  H8  1  0.61635774  0.28485996  0.36356709  1  0.065088  0  0.092997  0.101605  0  0.99818  0
H  H9  1  0.56909589  0.22238474  0.30250498  1  0.088195  0  0.106967  0.116918  0  0.992415  0
H  H10  1  0.51986821  0.18909342  0.37391072  1  0.092667  0  0.102296  0.113542  0  0.994699  0
H  H11  1  0.35050689  0.80904143  0.63626531  1  0.059694  0  0.10194  0.113562  0  0.993292  0
H  H12  1  0.48917537  0.75616010  0.64486030  1  0.067092  0  0.08885  0.092666  0  1.025949  0
H  H13  1  0.39782202  0.78487142  0.70708849  1  0.118567  0  0.10433  0.114578  0  1.002889  0
H  H14  1  0.41697693  0.71519716  0.36720297  1  0.091009  0  0.091051  0.10285  0  1.022026  0
H  H15  1  0.43050572  0.78644143  0.29990001  1  0.106524  0  0.104983  0.115822  0  1.00003  0
H  H16  1  0.52145121  0.80252300  0.35600549  1  0.069321  0  0.108937  0.123424  0  0.965013  0
H  H17  1  0.65930089  0.23326324  0.64738412  1  0.084264  0  0.102401  0.115886  0  1.014754  0
H  H18  1  0.52190160  0.28768269  0.63928877  1  0.048851  0  0.090088  0.096596  0  1.007705  0
H  H19  1  0.55986342  0.22857425  0.70717152  1  0.077068  0  0.101039  0.108196  0  1.003418  0
H  H20  1  0.21678979  0.09901593  0.58470459  1  0.054022  0  0.099919  0.108119  0  1.000666  0
H  H21  1  0.15817950  0.97789195  0.57774872  1  0.098587  0  0.102805  0.110889  0  1.011723  0
H  H22  1  0.10269678  0.09262829  0.54113794  1  0.100974  0  0.11654  0.137768  0  0.958815  0
H  H23  1  0.67329517  0.93571266  0.63471625  1  0.048327  0  0.102187  0.105168  0  0.992523  0
H  H24  1  0.75196288  0.04661582  0.63048810  1  0.071954  0  0.104077  0.111227  0  1.00824  0
H  H25  1  0.81728277  0.91942068  0.61818603  1  0.112392  0  0.122683  0.141086  0  0.94725  0
C  C26  1  0.46781770  0.69950004  0.50731469  1  1.633729  0  0.224102  0.603333  0  4.16081  0
C  C27  1  0.53052076  0.30948197  0.50037940  1  1.64387  0  0.223581  0.605985  0  4.159394  0
C  C28  1  0.51233370  0.50614139  0.39136951  1  1.634289  0  0.237834  0.664863  0  4.108471  0
C  C29  1  0.50811162  0.50437856  0.60905680  1  1.61306  0  0.232736  0.654478  0  4.122595  0
C  C30  1  0.39454384  0.40748855  0.87916983  1  1.347274  0  0.2513  0.468641  0  4.055502  0
C  C31  1  0.36282602  0.57256848  0.13025492  1  1.369176  0  0.252708  0.468435  0  4.053514  0
C  C32  1  0.39492165  0.59999667  0.88169100  1  1.345914  0  0.251741  0.46329  0  4.060847  0
C  C33  1  0.47090268  0.40052001  0.12158403  1  1.408122  0  0.252137  0.460417  0  4.065763  0
C  C34  1  0.37377964  0.59159801  0.94463996  1  0.054596  0  0.007007  -0.081925  0  3.948786  0
C  C35  1  0.43986522  0.39932267  0.06133976  1  0.072213  0  0.008091  -0.077629  0  3.944748  0
C  C36  1  0.39083282  0.49448638  0.97334233  1  0.043315  0  0.011095  0.05434  0  3.990106  0
C  C37  1  0.39625505  0.49150449  0.03419907  1  -0.017019  0  0.011699  0.054614  0  3.98875  0
C  C38  1  0.40615417  0.40224792  0.94183860  1  0.050566  0  -0.002427  -0.149094  0  3.932797  0
C  C39  1  0.36258248  0.58015061  0.06684416  1  0.033678  0  -0.000275  -0.144765  0  3.923008  0
C  C40  1  0.34753235  0.67831012  0.97738715  1  0.183074  0  0.100533  -0.007486  0  3.860791  0
C  C41  1  0.46100855  0.31162515  0.02896600  1  0.192533  0  0.10137  -0.008423  0  3.862758  0
C  C42  1  0.33351816  0.67424654  0.03836391  1  0.687275  0  0.123362  0.219574  0  3.999604  0
C  C43  1  0.43778094  0.30855589  0.97001689  1  0.636992  0  0.125005  0.223696  0  3.998297  0
C  C44  1  0.43538430  0.40784420  0.24976306  1  0.242974  0  0.083366  -0.083922  0  3.863337  0
C  C45  1  0.37580879  0.57672310  0.75476727  1  0.264637  0  0.081803  -0.089847  0  3.862746  0
C  C46  1  0.46675187  0.40823915  0.30697185  1  0.615962  0  0.107409  0.226773  0  4.032698  0
C  C47  1  0.41081436  0.58511400  0.69610534  1  0.665951  0  0.109032  0.228896  0  4.022014  0
C  C48  1  0.50155505  0.49876247  0.32760473  1  0.028701  0  -0.018326  -0.218329  0  3.936989  0
C  C49  1  0.48968189  0.51058242  0.67348208  1  0.062316  0  -0.016763  -0.212508  0  3.917193  0
C  C50  1  0.51535327  0.58475728  0.29151547  1  0.651269  0  0.108527  0.234034  0  4.027978  0
C  C51  1  0.54363519  0.43780169  0.70962492  1  0.660665  0  0.108982  0.233895  0  4.027768  0
C  C52  1  0.49771691  0.57691650  0.23259846  1  0.261324  0  0.083838  -0.084372  0  3.853329  0
C  C53  1  0.52022247  0.44296955  0.76943739  1  0.206727  0  0.080692  -0.089584  0  3.865267  0
C  C54  1  0.45346573  0.49071486  0.21178329  1  0.501244  0  0.115353  0.14454  0  4.000069  0
C  C55  1  0.43306131  0.50855284  0.79227708  1  0.472037  0  0.116488  0.147318  0  4.008003  0
C  C56  1  0.53403261  0.19408958  0.50789949  1  0.116209  0  0.004445  -0.100501  0  3.921321  0
C  C57  1  0.45891297  0.81440625  0.51392045  1  0.097634  0  0.00846  -0.092693  0  3.932413  0
C  C58  1  0.34568469  0.97953317  0.51124205  1  0.616406  0  0.10427  0.176569  0  4.017375  0
C  C59  1  0.63576867  0.03063851  0.53537810  1  0.671567  0  0.10518  0.178448  0  4.016069  0
C  C60  1  0.35779799  0.87312656  0.50989932  1  0.264421  0  0.085405  -0.027577  0  3.906989  0
C  C61  1  0.63104427  0.13513119  0.52241031  1  0.178497  0  0.084978  -0.023663  0  3.887498  0
C  C62  1  0.54838025  0.86715168  0.52412673  1  0.237888  0  0.096355  0.042353  0  3.862731  0
C  C63  1  0.44098195  0.14208426  0.50540044  1  0.208263  0  0.096162  0.043945  0  3.848936  0
C  C64  1  0.54267797  0.97609470  0.52619171  1  0.045984  0  0.007025  -0.034762  0  3.954095  0
C  C65  1  0.44097651  0.03392768  0.51470390  1  -0.018906  0  0.007557  -0.03356  0  3.946979  0
C  C66  1  0.04997824  0.43025279  0.56231275  1  0.317824  0  0.104863  -0.023958  0  3.86206  0
C  C67  1  0.96362353  0.53081505  0.41953376  1  0.328821  0  0.109623  -0.013811  0  3.83633  0
C  C68  1  0.15850907  0.44737621  0.55709461  1  0.801897  0  0.231812  0.196141  0  3.903263  0
C  C69  1  0.85212629  0.53951846  0.43086360  1  0.805514  0  0.232216  0.192188  0  3.868619  0
C  C70  1  0.14978616  0.49397977  0.46206229  1  0.900284  0  0.254381  0.228621  0  3.829882  0
C  C71  1  0.86676686  0.48403853  0.52392967  1  0.841248  0  0.250366  0.220755  0  3.859621  0
C  C72  1  0.03372933  0.49666260  0.46392110  1  0.057879  0  0.040231  0.014405  0  3.883253  0
C  C73  1  0.98220154  0.46659277  0.51778013  1  0.132146  0  0.037821  0.012621  0  3.916735  0
C  C74  1  0.19132589  0.78284793  0.08637836  1  0.362996  0  -0.126602  -0.170352  0  3.837389  0
C  C75  1  0.36931362  0.15662751  0.93489230  1  0.358598  0  -0.12702  -0.166328  0  3.825738  0
C  C76  1  0.54718775  0.25141058  0.34576310  1  0.333469  0  -0.13831  -0.167146  0  3.846536  0
C  C77  1  0.40447540  0.75858862  0.66262452  1  0.317633  0  -0.142291  -0.170536  0  3.851862  0
C  C78  1  0.47407205  0.74828681  0.33544555  1  0.311769  0  -0.138122  -0.167548  0  3.835518  0
C  C79  1  0.58754785  0.27321507  0.66930015  1  0.355962  0  -0.141846  -0.168192  0  3.850948  0
C  C80  1  0.17685253  0.05052622  0.55608973  1  0.33658  0  -0.135322  -0.172828  0  3.823649  0
C  C81  1  0.74308656  0.97062668  0.61323017  1  0.368709  0  -0.129976  -0.171673  0  3.828533  0
N  N82  1  0.40632552  0.50612253  0.85252317  1  -1.119059  0  -0.230688  -0.226902  0  3.616951  0
N  N83  1  0.42897808  0.48761597  0.15283470  1  -1.154362  0  -0.23175  -0.228651  0  3.626778  0
N  N84  1  0.80299953  0.51792952  0.48270944  1  -1.199136  0  -0.2591  -0.237822  0  3.380874  0
N  N85  1  0.20933066  0.47851821  0.50758544  1  -1.191025  0  -0.258371  -0.242464  0  3.374777  0
N  N86  1  0.32911084  0.78299067  0.95115445  1  0.435164  0  0.064247  0.521333  0  4.277117  0
N  N87  1  0.50814564  0.21263673  0.05363780  1  0.47339  0  0.062965  0.517697  0  4.281627  0
N  N88  1  0.81575060  0.47597906  0.58303319  1  0.440099  0  0.054351  0.436777  0  4.286763  0
N  N89  1  0.21032860  0.50933538  0.40607461  1  0.457661  0  0.05469  0.435269  0  4.299567  0
N  N90  1  0.78207414  0.58559930  0.38487036  1  0.481398  0  0.063409  0.460293  0  4.275785  0
N  N91  1  0.21798861  0.43878260  0.61123402  1  0.481177  0  0.063045  0.463183  0  4.26885  0
N  N92  1  0.01199114  0.37017447  0.61391477  1  0.456375  0  0.060795  0.4846  0  4.28481  0
N  N93  1  0.00452654  0.56045216  0.36044975  1  0.441534  0  0.057943  0.480238  0  4.306657  0
N  N94  1  0.37476395  0.32271946  0.23214316  1  0.425132  0  0.060397  0.537343  0  4.225169  0
N  N95  1  0.27089734  0.63089549  0.77447472  1  0.430343  0  0.059054  0.53756  0  4.228068  0
N  N96  1  0.53042573  0.65956575  0.19256401  1  0.41005  0  0.060858  0.536361  0  4.219965  0
N  N97  1  0.59191943  0.38010956  0.80778839  1  0.416907  0  0.059526  0.534827  0  4.22192  0
N  N98  1  0.33799027  0.19892171  0.48688378  1  0.458018  0  0.057552  0.515898  0  4.269496  0
N  N99  1  0.65532599  0.80687992  0.53104343  1  0.47188  0  0.055733  0.510748  0  4.269467  0
N  N100  1  0.73763055  0.18002648  0.51871998  1  0.450027  0  0.062722  0.532633  0  4.247112  0
N  N101  1  0.25785535  0.82236887  0.49966382  1  0.435411  0  0.062896  0.529759  0  4.251957  0
O  O102  1  0.55954760  0.65881225  0.48880817  1  -1.153156  0  -0.298193  -0.528908  0  2.421262  0
O  O103  1  0.44254427  0.35419204  0.48326277  1  -1.160029  0  -0.302682  -0.532778  0  2.423716  0
O  O104  1  0.38233438  0.65473844  0.52056492  1  -1.136776  0  -0.29905  -0.514168  0  2.340124  0
O  O105  1  0.61393990  0.35210038  0.51349324  1  -1.142442  0  -0.302746  -0.532659  0  2.357545  0
O  O106  1  0.60359350  0.48089305  0.41262395  1  -1.152514  0  -0.305804  -0.539782  0  2.329124  0
O  O107  1  0.43131636  0.46813601  0.58409092  1  -1.16818  0  -0.315028  -0.566529  0  2.401827  0
O  O108  1  0.42497129  0.53782006  0.41930212  1  -1.161425  0  -0.308509  -0.554306  0  2.401042  0
O  O109  1  0.59477908  0.53313092  0.58455024  1  -1.146497  0  -0.298181  -0.521453  0  2.329067  0
O  O110  1  0.38132822  0.33415514  0.84955460  1  -1.07372  0  -0.243509  -0.399997  0  2.131265  0
O  O111  1  0.31439991  0.63512877  0.16294422  1  -1.081587  0  -0.242973  -0.399279  0  2.130501  0
O  O112  1  0.40423116  0.68238163  0.85597332  1  -1.085731  0  -0.253348  -0.407357  0  2.123271  0
O  O113  1  0.52970961  0.33135808  0.14355533  1  -1.080854  0  -0.248933  -0.398859  0  2.119011  0
O  O114  1  0.23524819  0.80911929  0.93759644  1  -0.410909  0  -0.112428  -0.301959  0  1.86194  0
O  O115  1  0.40688071  0.83582224  0.94819942  1  -0.401963  0  -0.099178  -0.282435  0  1.876016  0
O  O116  1  0.44214541  0.15602221  0.07622042  1  -0.419281  0  -0.107006  -0.293133  0  1.863662  0
O  O117  1  0.60724338  0.19411428  0.04657211  1  -0.389905  0  -0.098776  -0.275357  0  1.865321  0
O  O118  1  0.81600206  0.55458319  0.61091758  1  -0.35603  0  -0.063865  -0.221611  0  1.909942  0
O  O119  1  0.78357303  0.39249635  0.59793787  1  -0.354523  0  -0.05491  -0.215431  0  2.042563  0
O  O120  1  0.21213266  0.59887302  0.38823242  1  -0.387312  0  -0.067481  -0.231967  0  1.964801  0
O  O121  1  0.25038412  0.42970412  0.38365948  1  -0.347817  0  -0.047225  -0.202285  0  1.983957  0
O  O122  1  0.72677346  0.66502979  0.39810165  1  -0.365104  0  -0.056971  -0.213092  0  1.999273  0
O  O123  1  0.79112769  0.54145373  0.33863311  1  -0.38505  0  -0.082612  -0.249456  0  1.910286  0
O  O124  1  0.22357986  0.52276116  0.63289445  1  -0.365969  0  -0.05803  -0.222277  0  1.979452  0
O  O125  1  0.24823571  0.35265065  0.62979903  1  -0.387656  0  -0.077155  -0.240154  0  1.923023  0
O  O126  1  0.00184706  0.27943462  0.60403614  1  -0.378649  0  -0.071621  -0.24609  0  1.907404  0
O  O127  1  0.99855112  0.41417005  0.66006185  1  -0.362472  0  -0.074542  -0.243144  0  1.890298  0
O  O128  1  0.04625588  0.48878170  0.33116985  1  -0.369034  0  -0.07566  -0.246218  0  1.9009  0
O  O129  1  0.99094037  0.65232062  0.34705727  1  -0.360291  0  -0.075196  -0.241454  0  1.879384  0
O  O130  1  0.30402233  0.76411627  0.06456336  1  -1.057267  0  -0.185876  -0.162214  0  2.549412  0
O  O131  1  0.45988535  0.21749979  0.94402555  1  -1.067617  0  -0.187633  -0.165587  0  2.549755  0
O  O132  1  0.29137822  0.34769283  0.20588439  1  -0.444398  0  -0.136461  -0.33023  0  1.864225  0
O  O133  1  0.40874217  0.23415933  0.24577280  1  -0.425673  0  -0.103417  -0.290025  0  1.909284  0
O  O134  1  0.20952296  0.57930915  0.80516463  1  -0.443964  0  -0.134593  -0.327155  0  1.865957  0
O  O135  1  0.24921262  0.72063747  0.75787270  1  -0.435429  0  -0.11093  -0.300271  0  1.917838  0
O  O136  1  0.45410475  0.32772189  0.34445573  1  -1.065439  0  -0.19642  -0.176442  0  2.571103  0
O  O137  1  0.36544278  0.65732647  0.65945212  1  -1.055972  0  -0.193808  -0.169892  0  2.577437  0
O  O138  1  0.55455403  0.66856555  0.31344796  1  -1.06161  0  -0.199338  -0.190154  0  2.56886  0
O  O139  1  0.62324086  0.36973164  0.68691463  1  -1.063686  0  -0.197529  -0.177065  0  2.568434  0
O  O140  1  0.58402599  0.63212953  0.14801753  1  -0.437849  0  -0.134355  -0.32943  0  1.86107  0
O  O141  1  0.50413153  0.74935460  0.20617714  1  -0.414465  0  -0.100479  -0.288761  0  1.906898  0
O  O142  1  0.62591519  0.42525001  0.84842487  1  -0.439702  0  -0.129845  -0.324434  0  1.861099  0
O  O143  1  0.61439611  0.28858266  0.79664621  1  -0.426426  0  -0.103794  -0.292631  0  1.909895  0
O  O144  1  0.27577340  0.24006195  0.52472712  1  -0.459428  0  -0.12872  -0.344777  0  2.045057  0
O  O145  1  0.32356070  0.19815480  0.43521572  1  -0.387648  0  -0.085104  -0.260498  0  1.935832  0
O  O146  1  0.66801246  0.76425238  0.57867501  1  -0.455847  0  -0.112757  -0.31115  0  1.950305  0
O  O147  1  0.72112162  0.80403241  0.48941822  1  -0.409404  0  -0.105398  -0.288189  0  1.962099  0
O  O148  1  0.78432167  0.18728221  0.56360472  1  -0.420017  0  -0.10098  -0.30417  0  2.000566  0
O  O149  1  0.77399208  0.20035090  0.46962482  1  -0.426058  0  -0.11955  -0.303653  0  1.865925  0
O  O150  1  0.24653451  0.79814001  0.44979599  1  -0.413612  0  -0.103454  -0.288423  0  1.905779  0
O  O151  1  0.19344224  0.81145803  0.54149970  1  -0.420282  0  -0.111665  -0.30524  0  1.903044  0
O  O152  1  0.24592532  0.02974746  0.50401508  1  -1.060995  0  -0.193534  -0.174607  0  2.553601  0
O  O153  1  0.73043174  0.97961004  0.55137707  1  -1.080172  0  -0.194654  -0.175942  0  2.566235  0
