# generated using pymatgen
data_CuH8C6(BrN)2
_symmetry_space_group_name_H-M   'P 1'
_cell_length_a   6.04215812
_cell_length_b   6.04293319
_cell_length_c   6.62787070
_cell_angle_alpha   77.48927850
_cell_angle_beta   77.47840873
_cell_angle_gamma   84.03664544
_symmetry_Int_Tables_number   1
_chemical_formula_structural   CuH8C6(BrN)2
_chemical_formula_sum   'Cu1 H8 C6 Br2 N2'
_cell_volume   230.22179515
_cell_formula_units_Z   1
loop_
 _symmetry_equiv_pos_site_id
 _symmetry_equiv_pos_as_xyz
  1  'x, y, z'
loop_
 _atom_site_type_symbol
 _atom_site_label
 _atom_site_symmetry_multiplicity
 _atom_site_fract_x
 _atom_site_fract_y
 _atom_site_fract_z
 _atom_site_occupancy
 _atom_site_hle17_ddec_charge
 _atom_site_hle17_ddec_spin_density
 _atom_site_hle17_ddec_sum_bond_order
 _atom_site_hle17_magmom
 _atom_site_pbe_cm5_charge
 _atom_site_pbe_ddec_charge
 _atom_site_pbe_ddec_spin_density
 _atom_site_pbe_ddec_sum_bond_order
 _atom_site_pbe_magmom
Cu  Cu0  1  0.49996324  0.50004183  0.50001079  1  0.630315  0.167646  1.903751  0.122  0.57554  0.549811  0.190418  2.363129  0.144
H  H1  1  0.74114127  0.74057723  0.71153334  1  0.102006  -0.000232  0.979149  0.0  0.104449  0.100683  0.000417  1.059666  0.0
H  H2  1  0.25875763  0.25939185  0.28852889  1  0.102263  -0.000227  0.979195  0.0  0.104409  0.100906  0.000419  1.059678  0.0
H  H3  1  0.11324805  0.11395698  0.03755161  1  0.13495  -3.2e-05  0.952952  0.0  0.093844  0.155158  -2.2e-05  1.009056  0.0
H  H4  1  0.88672426  0.88598809  0.96247601  1  0.134842  -5.9e-05  0.952921  0.0  0.09386  0.155184  -2.2e-05  1.008867  0.0
H  H5  1  0.31412853  0.09616467  0.79851292  1  0.12721  -0.000159  0.959517  0.0  0.088556  0.139284  -7.8e-05  1.034941  0.0
H  H6  1  0.90367708  0.68551242  0.20178425  1  0.127183  -0.000159  0.960201  0.0  0.088355  0.139264  -7.7e-05  1.035674  0.0
H  H7  1  0.68580810  0.90377228  0.20150133  1  0.127286  -0.00016  0.959202  0.0  0.088555  0.139326  -7.8e-05  1.034719  0.0
H  H8  1  0.09632284  0.31451194  0.79822980  1  0.127052  -0.000157  0.960332  0.0  0.088327  0.139175  -7.8e-05  1.035732  0.0
C  C9  1  0.63344278  0.63312949  0.84166451  1  0.041859  -0.001051  3.60929  -0.001  0.053305  0.003142  0.000957  3.84913  0.001
C  C10  1  0.36653525  0.36680551  0.15837762  1  0.041162  -0.0011  3.607694  -0.001  0.053104  0.002579  0.000956  3.8478  0.001
C  C11  1  0.36189091  0.36186151  0.94973991  1  0.283086  -0.001034  3.676264  -0.001  0.128988  0.288401  0.00081  3.900215  0.001
C  C12  1  0.63818436  0.63803668  0.05024113  1  0.282816  -0.001068  3.676976  -0.001  0.128756  0.288385  0.000811  3.900735  0.001
C  C13  1  0.21272681  0.21295893  0.89455488  1  -0.392861  -0.000544  3.71233  0.0  -0.246129  -0.471511  0.000188  3.942354  0.0
C  C14  1  0.78724248  0.78696893  0.10545892  1  -0.392958  -0.000494  3.712154  0.0  -0.246086  -0.471732  0.000189  3.942226  0.0
Br  Br15  1  0.19617567  0.80376692  0.50016748  1  -0.45746  0.068749  0.989889  0.073  -0.250552  -0.422258  0.051767  1.312567  0.055
Br  Br16  1  0.80398365  0.19653101  0.49968401  1  -0.457351  0.068738  0.989839  0.073  -0.250496  -0.422229  0.051778  1.312597  0.055
N  N17  1  0.49820865  0.49802557  0.79376858  1  -0.280922  0.017318  3.388504  0.023  -0.348531  -0.206871  0.017484  3.652082  0.023
N  N18  1  0.50183824  0.50200429  0.20621777  1  -0.28048  0.01736  3.38724  0.023  -0.348251  -0.206697  0.017495  3.6509  0.023
