# generated using pymatgen
data_Zn4H27C39N3O16
_symmetry_space_group_name_H-M   'P 1'
_cell_length_a   19.15767195
_cell_length_b   18.50313320
_cell_length_c   20.30179499
_cell_angle_alpha   65.32836639
_cell_angle_beta   67.67335757
_cell_angle_gamma   66.30074134
_symmetry_Int_Tables_number   1
_chemical_formula_structural   Zn4H27C39N3O16
_chemical_formula_sum   'Zn8 H54 C78 N6 O32'
_cell_volume   5790.25804837
_cell_formula_units_Z   2
loop_
 _symmetry_equiv_pos_site_id
 _symmetry_equiv_pos_as_xyz
  1  'x, y, z'
loop_
 _atom_site_type_symbol
 _atom_site_label
 _atom_site_symmetry_multiplicity
 _atom_site_fract_x
 _atom_site_fract_y
 _atom_site_fract_z
 _atom_site_occupancy
 _atom_site_pbe_bader_charge
 _atom_site_pbe_bader_spin_density
 _atom_site_pbe_cm5_charge
 _atom_site_pbe_ddec_charge
 _atom_site_pbe_ddec_spin_density
 _atom_site_pbe_ddec_sum_bond_order
 _atom_site_pbe_magmom
Zn  Zn0  1  0.90707172  0.96198695  0.11227183  1  1.307193  0  0.671363  0.962832  0  2.385146  0
Zn  Zn1  1  0.89068310  0.12318764  0.96772970  1  1.324754  0  0.683829  0.981978  0  2.324023  0
Zn  Zn2  1  0.91956220  0.93824940  0.96031677  1  1.316503  0  0.671863  0.971582  0  2.308275  0
Zn  Zn3  1  0.05585311  0.98114036  0.97507650  1  1.307582  0  0.668548  0.960279  0  2.414131  0
Zn  Zn4  1  0.47297146  0.55045892  0.40322160  1  1.321187  0  0.67906  0.981237  0  2.34412  0
Zn  Zn5  1  0.46443624  0.37822533  0.53114018  1  1.309096  0  0.672697  0.957946  0  2.388644  0
Zn  Zn6  1  0.32935782  0.54296814  0.55028063  1  1.318156  0  0.674497  0.970657  0  2.345414  0
Zn  Zn7  1  0.50576870  0.50307280  0.56519737  1  1.323537  0  0.6789  0.98052  0  2.324165  0
H  H8  1  0.45737270  0.29832070  0.15213724  1  0.009238  0  0.093704  0.125499  0  1.004034  0
H  H9  1  0.43106314  0.22134247  0.14330654  1  0.026258  0  0.091453  0.121383  0  0.998675  0
H  H10  1  0.52201765  0.24349729  0.08741243  1  0.044946  0  0.096962  0.13236  0  0.987438  0
H  H11  1  0.54531973  0.11045827  0.19317126  1  0.036648  0  0.117483  0.089332  0  0.959662  0
H  H12  1  0.47975013  0.16121807  0.25943502  1  0.061251  0  0.111036  0.082565  0  0.974254  0
H  H13  1  0.66504603  0.11189010  0.14284791  1  0.095818  0  0.127436  0.103023  0  0.981916  0
H  H14  1  0.68503547  0.32341362  0.27943696  1  0.13009  0  0.113354  0.122774  0  0.987451  0
H  H15  1  0.43523114  0.34897212  0.36119227  1  0.066642  0  0.106773  0.110014  0  0.991932  0
H  H16  1  0.44939877  0.26527148  0.28707407  1  0.032028  0  0.102277  0.103677  0  1.024742  0
H  H17  1  0.90387423  0.45488723  0.20923140  1  0.046705  0  0.098618  0.134527  0  0.995797  0
H  H18  1  0.00831965  0.42134432  0.17742193  1  0.035921  0  0.094843  0.125851  0  0.993656  0
H  H19  1  0.95255735  0.51251521  0.12094498  1  0.042637  0  0.099868  0.135699  0  0.981524  0
H  H20  1  0.01706330  0.55017323  0.18428996  1  0.052457  0  0.113465  0.082029  0  0.970494  0
H  H21  1  0.97173527  0.49217046  0.27287638  1  0.035997  0  0.111928  0.082903  0  0.974801  0
H  H22  1  0.96314786  0.67576388  0.12903797  1  0.10259  0  0.126319  0.101591  0  0.986649  0
H  H23  1  0.63365287  0.71738824  0.30416680  1  0.135129  0  0.113979  0.12354  0  0.988135  0
H  H24  1  0.73914106  0.46611070  0.42847551  1  0.093842  0  0.113187  0.117549  0  0.979214  0
H  H25  1  0.86769774  0.47000858  0.33747496  1  0.052387  0  0.106716  0.109757  0  1.016307  0
H  H26  1  0.25257746  0.03418664  0.23949650  1  0.039141  0  0.092246  0.122727  0  1.011268  0
H  H27  1  0.19399376  0.13914488  0.23017019  1  0.019065  0  0.092634  0.123545  0  0.996743  0
H  H28  1  0.21294025  0.09473506  0.16010731  1  0.023443  0  0.097016  0.131158  0  0.988148  0
H  H29  1  0.07565731  0.10178107  0.24251556  1  0.051134  0  0.12103  0.094253  0  0.955779  0
H  H30  1  0.11198677  0.04435552  0.32299755  1  0.049135  0  0.112625  0.083776  0  0.971335  0
H  H31  1  0.06109899  0.04551533  0.17842537  1  0.089048  0  0.132204  0.112223  0  0.970232  0
H  H32  1  0.25706277  0.70219206  0.28018048  1  0.114936  0  0.114041  0.122908  0  0.986801  0
H  H33  1  0.27182981  0.80529463  0.42829014  1  0.082382  0  0.112095  0.114772  0  0.976791  0
H  H34  1  0.19729885  0.94375378  0.36265066  1  0.026974  0  0.105281  0.10651  0  1.021228  0
H  H35  1  0.50969885  0.99102861  0.93550268  1  0.045184  0  0.096457  0.129884  0  0.998594  0
H  H36  1  0.47769411  0.94902862  0.03461192  1  0.020565  0  0.100162  0.135609  0  0.983337  0
H  H37  1  0.58002875  0.93204812  0.98988843  1  0.051552  0  0.101715  0.138011  0  0.981368  0
H  H38  1  0.53099215  0.04106524  0.05244576  1  0.051544  0  0.114038  0.084857  0  0.964894  0
H  H39  1  0.45960773  0.10125763  0.00066691  1  0.044204  0  0.109945  0.079994  0  0.980348  0
H  H40  1  0.65840258  0.02578319  0.00301247  1  0.1116  0  0.130444  0.110422  0  0.977665  0
H  H41  1  0.64453060  0.28806107  0.71429344  1  0.159292  0  0.116815  0.127939  0  0.986333  0
H  H42  1  0.42459676  0.23682654  0.77056432  1  0.107004  0  0.112869  0.119327  0  0.978676  0
H  H43  1  0.44609350  0.13985803  0.89324701  1  0.05902  0  0.106614  0.112777  0  1.014231  0
H  H44  1  0.25743245  0.06701354  0.58744601  1  0.039228  0  0.091898  0.121606  0  1.00592  0
H  H45  1  0.20601996  0.01919488  0.56836994  1  0.036218  0  0.096691  0.130974  0  0.98859  0
H  H46  1  0.19811793  0.00567336  0.66238698  1  0.064218  0  0.101297  0.141437  0  0.982597  0
H  H47  1  0.07630066  0.10912833  0.62417856  1  0.050946  0  0.121381  0.095878  0  0.951962  0
H  H48  1  0.13184267  0.17029030  0.54682992  1  0.053433  0  0.108884  0.078915  0  0.980373  0
H  H49  1  0.05746071  0.09899807  0.74076833  1  0.110464  0  0.132765  0.111253  0  0.969013  0
H  H50  1  0.18847573  0.35925722  0.69265592  1  0.124501  0  0.116413  0.127345  0  0.986168  0
H  H51  1  0.29910030  0.31448042  0.47903889  1  0.078954  0  0.104116  0.10564  0  0.997231  0
H  H52  1  0.22164513  0.21891257  0.51574592  1  0.043766  0  0.102746  0.10548  0  1.024277  0
H  H53  1  0.37206458  0.58729359  0.96834603  1  0.046348  0  0.09558  0.127427  0  1.002737  0
H  H54  1  0.33843646  0.54876109  0.06767003  1  0.047579  0  0.097927  0.131118  0  0.987878  0
H  H55  1  0.30893627  0.65714806  0.02045898  1  0.040948  0  0.103696  0.142929  0  0.975734  0
H  H56  1  0.19902267  0.59693699  0.05763127  1  0.063668  0  0.114627  0.084773  0  0.963885  0
H  H57  1  0.25914296  0.52340626  0.00997330  1  0.061356  0  0.109926  0.079649  0  0.978148  0
H  H58  1  0.15081666  0.72918034  0.00059283  1  0.114862  0  0.130539  0.110187  0  0.981787  0
H  H59  1  0.23249221  0.71543527  0.69585983  1  0.156327  0  0.115129  0.124149  0  0.987923  0
H  H60  1  0.40607008  0.49498544  0.78738749  1  0.109454  0  0.110732  0.115556  0  0.983356  0
H  H61  1  0.34604172  0.51639522  0.91130354  1  0.105982  0  0.105934  0.109995  0  1.018656  0
C  C62  1  0.48044900  0.23750274  0.14311109  1  -0.034024  0  -0.240108  -0.390341  0  3.959726  0
C  C63  1  0.52117642  0.17061222  0.20363264  1  0.323329  0  -0.049037  -0.0116  0  3.924962  0
C  C64  1  0.66130773  0.15557908  0.16800353  1  0.313149  0  0.045009  0.00813  0  3.976358  0
C  C65  1  0.72711876  0.17297506  0.16092450  1  0.057458  0  -0.035196  -0.204174  0  3.975557  0
C  C66  1  0.80327381  0.12739766  0.11869877  1  1.633635  0  0.234611  0.652521  0  4.145168  0
C  C67  1  0.72333438  0.22841635  0.19671914  1  0.957512  0  0.123979  0.351144  0  4.128751  0
C  C68  1  0.64280311  0.26161710  0.24067062  1  -0.057954  0  -0.014763  -0.075567  0  3.943062  0
C  C69  1  0.63253443  0.31134834  0.28227418  1  0.040949  0  -0.069582  -0.096416  0  3.924294  0
C  C70  1  0.55892733  0.34153957  0.32605900  1  -0.047532  0  -0.013041  -0.025856  0  3.984884  0
C  C71  1  0.49312521  0.32462151  0.32693689  1  -0.006939  0  -0.083097  -0.086658  0  4.000517  0
C  C72  1  0.50140602  0.27687305  0.28565546  1  -0.030927  0  -0.102102  -0.192269  0  4.041905  0
C  C73  1  0.57659898  0.24280885  0.24347537  1  0.390078  0  0.105448  0.149791  0  3.990576  0
C  C74  1  0.54408769  0.38953663  0.37637024  1  1.588152  0  0.23532  0.632063  0  4.139417  0
C  C75  1  0.95667699  0.47626255  0.17879547  1  -0.055047  0  -0.236541  -0.388379  0  3.949023  0
C  C76  1  0.96457220  0.52836708  0.21586714  1  0.317927  0  -0.050654  -0.015561  0  3.936121  0
C  C77  1  0.90429703  0.67703602  0.16631003  1  0.364123  0  0.045069  0.009613  0  3.974458  0
C  C78  1  0.84452332  0.74971416  0.16055516  1  0.011298  0  -0.037784  -0.212219  0  3.976181  0
C  C79  1  0.86539683  0.82809439  0.11004547  1  1.591943  0  0.23031  0.648522  0  4.157665  0
C  C80  1  0.76452725  0.75099400  0.20662296  1  1.002762  0  0.126478  0.358762  0  4.114169  0
C  C81  1  0.75822467  0.66969227  0.26361271  1  0.003006  0  -0.015078  -0.080783  0  3.940168  0
C  C82  1  0.68467762  0.66315161  0.31287450  1  -0.014406  0  -0.063271  -0.078403  0  3.910789  0
C  C83  1  0.67741757  0.59049888  0.37150853  1  0.000828  0  -0.018397  -0.044696  0  3.993832  0
C  C84  1  0.74495624  0.52215696  0.38133912  1  -0.050733  0  -0.075029  -0.06767  0  3.985893  0
C  C85  1  0.81717955  0.52496458  0.33041307  1  0.013972  0  -0.097679  -0.190899  0  4.022981  0
C  C86  1  0.82493982  0.59847842  0.27066930  1  0.32463  0  0.111908  0.159174  0  3.976605  0
C  C87  1  0.59910818  0.58122936  0.42170985  1  1.544067  0  0.227331  0.609125  0  4.160777  0
C  C88  1  0.20108499  0.08206300  0.22062752  1  -0.032884  0  -0.240762  -0.390306  0  3.961177  0
C  C89  1  0.12650273  0.05415340  0.26264434  1  0.330505  0  -0.048551  -0.01299  0  3.919723  0
C  C90  1  0.09856762  0.98368789  0.20141015  1  0.39199  0  0.043323  -0.001412  0  3.972508  0
C  C91  1  0.10832719  0.91812639  0.18088002  1  0.017638  0  -0.036194  -0.204019  0  3.986156  0
C  C92  1  0.06427826  0.93229165  0.12742055  1  1.609092  0  0.235915  0.655856  0  4.148147  0
C  C93  1  0.16123006  0.83665361  0.20828410  1  0.974781  0  0.121343  0.348528  0  4.133419  0
C  C94  1  0.19597540  0.83122210  0.26468131  1  -0.024909  0  -0.016177  -0.080567  0  3.950098  0
C  C95  1  0.24412345  0.75430296  0.29928907  1  0.004766  0  -0.067007  -0.088938  0  3.919902  0
C  C96  1  0.27097307  0.74485969  0.35774417  1  0.009656  0  -0.015052  -0.033376  0  3.993096  0
C  C97  1  0.25204549  0.81367479  0.38114608  1  -0.037801  0  -0.079014  -0.076672  0  3.996936  0
C  C98  1  0.20943185  0.89125572  0.34457744  1  0.025328  0  -0.099209  -0.190105  0  4.036252  0
C  C99  1  0.17974123  0.90110696  0.28654428  1  0.327352  0  0.108353  0.155115  0  3.983371  0
C  C100  1  0.31788127  0.66332929  0.39947820  1  1.587728  0  0.2323  0.618879  0  4.15708  0
C  C101  1  0.52169604  0.97757417  0.98880445  1  -0.046625  0  -0.235277  -0.388441  0  3.946517  0
C  C102  1  0.51842006  0.05610944  0.99894312  1  0.312874  0  -0.052702  -0.02476  0  3.936056  0
C  C103  1  0.64894075  0.07581544  0.95125300  1  0.291537  0  0.040772  -0.010194  0  3.976976  0
C  C104  1  0.70676013  0.11217142  0.90303584  1  0.053838  0  -0.03715  -0.209055  0  3.981581  0
C  C105  1  0.78386223  0.08221852  0.92219260  1  1.605232  0  0.233272  0.652298  0  4.149785  0
C  C106  1  0.69420483  0.17890926  0.83371979  1  0.997827  0  0.125535  0.34912  0  4.11928  0
C  C107  1  0.61685791  0.19726710  0.82037166  1  -0.022741  0  -0.018344  -0.086103  0  3.951173  0
C  C108  1  0.60068025  0.25577935  0.75280903  1  0.011053  0  -0.063477  -0.075505  0  3.907289  0
C  C109  1  0.53247235  0.26998948  0.73417382  1  -0.057865  0  -0.021602  -0.05318  0  3.99806  0
C  C110  1  0.47746537  0.22665028  0.78556101  1  -0.058402  0  -0.076907  -0.068945  0  3.989021  0
C  C111  1  0.48991420  0.17192268  0.85449704  1  0.017222  0  -0.101359  -0.198785  0  4.023506  0
C  C112  1  0.56018152  0.15551362  0.87274692  1  0.339658  0  0.110348  0.151876  0  3.984779  0
C  C113  1  0.51908257  0.32871759  0.65994516  1  1.541075  0  0.22529  0.606093  0  4.15829  0
C  C114  1  0.20254064  0.05043246  0.60562951  1  -0.077185  0  -0.236871  -0.387566  0  3.947073  0
C  C115  1  0.13074662  0.12704538  0.60393706  1  0.310839  0  -0.050032  -0.016023  0  3.927539  0
C  C116  1  0.08286452  0.14887808  0.72538212  1  0.375819  0  0.046961  0.007262  0  3.96134  0
C  C117  1  0.07512457  0.18245019  0.77703184  1  0.024786  0  -0.032575  -0.200624  0  3.980135  0
C  C118  1  0.03664449  0.14322114  0.85687472  1  1.632579  0  0.239147  0.660496  0  4.138432  0
C  C119  1  0.10926741  0.24847561  0.75692629  1  0.970476  0  0.125227  0.349851  0  4.136022  0
C  C120  1  0.15521912  0.27088335  0.67762094  1  -0.035465  0  -0.01579  -0.080236  0  3.940197  0
C  C121  1  0.19597323  0.32942047  0.65309341  1  -0.013284  0  -0.062679  -0.076962  0  3.906388  0
C  C122  1  0.24785107  0.34487647  0.58245761  1  0.014996  0  -0.023359  -0.053293  0  4.005008  0
C  C123  1  0.25689674  0.30361707  0.53366852  1  -0.061847  0  -0.08196  -0.071113  0  4.006921  0
C  C124  1  0.21382520  0.24943932  0.55474524  1  0.014699  0  -0.102566  -0.198896  0  4.03539  0
C  C125  1  0.16317072  0.23096308  0.62755336  1  0.363405  0  0.112502  0.161083  0  3.982982  0
C  C126  1  0.30012631  0.39677162  0.56087779  1  1.540216  0  0.225722  0.609805  0  4.156435  0
C  C127  1  0.32160812  0.59544930  0.01662333  1  -0.056167  0  -0.235251  -0.386511  0  3.942987  0
C  C128  1  0.24926342  0.58623719  0.00975599  1  0.267031  0  -0.05097  -0.015808  0  3.933036  0
C  C129  1  0.16920601  0.71943321  0.94637052  1  0.381518  0  0.048981  0.015753  0  3.968115  0
C  C130  1  0.13777727  0.77975872  0.88876334  1  0.026297  0  -0.039432  -0.21548  0  3.953856  0
C  C131  1  0.08102612  0.85628184  0.90750302  1  1.583871  0  0.225638  0.637635  0  4.145736  0
C  C132  1  0.16351643  0.76870354  0.81518248  1  0.974917  0  0.127716  0.353459  0  4.112693  0
C  C133  1  0.22642547  0.68910477  0.81077175  1  0.009309  0  -0.016168  -0.080788  0  3.929887  0
C  C134  1  0.25842270  0.67173439  0.74241273  1  -0.064769  0  -0.063338  -0.081527  0  3.909796  0
C  C135  1  0.32240795  0.60241825  0.73394088  1  0.059114  0  -0.017393  -0.04162  0  3.987578  0
C  C136  1  0.35473494  0.54788930  0.79512312  1  -0.071551  0  -0.07754  -0.071968  0  3.996375  0
C  C137  1  0.32111592  0.56040933  0.86438625  1  -0.074967  0  -0.099862  -0.193184  0  4.033179  0
C  C138  1  0.25683865  0.63099522  0.87312321  1  0.334079  0  0.109119  0.154963  0  3.988012  0
C  C139  1  0.35772640  0.58200906  0.66215145  1  1.527109  0  0.230535  0.616386  0  4.156379  0
N  N140  1  0.58738437  0.18938558  0.20614835  1  -1.206152  0  -0.247931  -0.015201  0  3.72444  0
N  N141  1  0.89703693  0.60289937  0.21885443  1  -1.227342  0  -0.245014  -0.010846  0  3.716188  0
N  N142  1  0.13330681  0.97784552  0.25168549  1  -1.241597  0  -0.246999  -0.013255  0  3.719784  0
N  N143  1  0.57615661  0.09796820  0.94001678  1  -1.207653  0  -0.246542  0.005116  0  3.687054  0
N  N144  1  0.12316435  0.17274411  0.65185571  1  -1.220422  0  -0.245131  -0.013652  0  3.714551  0
N  N145  1  0.22371702  0.64589346  0.94190620  1  -1.223773  0  -0.246328  -0.011448  0  3.725783  0
O  O146  1  0.94145321  0.00279720  0.00280134  1  -1.225308  0  -0.575102  -1.038469  0  2.5424  0
O  O147  1  0.83522729  0.16751718  0.05314353  1  -1.16629  0  -0.310547  -0.541539  0  2.284836  0
O  O148  1  0.82715052  0.04994027  0.15259415  1  -1.174839  0  -0.312065  -0.541417  0  2.305105  0
O  O149  1  0.78176484  0.24458455  0.19368339  1  -1.109336  0  -0.326166  -0.467244  0  2.022735  0
O  O150  1  0.54408843  0.34679141  0.44456001  1  -1.17497  0  -0.319528  -0.550793  0  2.290483  0
O  O151  1  0.52912866  0.46818623  0.34819425  1  -1.148829  0  -0.307859  -0.5394  0  2.282364  0
O  O152  1  0.89832312  0.83498338  0.04087903  1  -1.175276  0  -0.318235  -0.557714  0  2.276477  0
O  O153  1  0.85091296  0.88027946  0.14257632  1  -1.160643  0  -0.313725  -0.541115  0  2.311397  0
O  O154  1  0.70646005  0.81356283  0.19903564  1  -1.108554  0  -0.324384  -0.467345  0  2.030189  0
O  O155  1  0.59664388  0.53869577  0.49064458  1  -1.161879  0  -0.311588  -0.538727  0  2.297675  0
O  O156  1  0.54101066  0.61442198  0.39186930  1  -1.172814  0  -0.32645  -0.5638  0  2.289777  0
O  O157  1  0.09711416  0.95956658  0.05810640  1  -1.160548  0  -0.30905  -0.535074  0  2.297369  0
O  O158  1  0.99771685  0.91761156  0.15613318  1  -1.16294  0  -0.3116  -0.545918  0  2.291915  0
O  O159  1  0.17543185  0.77654095  0.18742112  1  -1.116976  0  -0.329528  -0.474363  0  2.025343  0
O  O160  1  0.28967717  0.64083938  0.47024389  1  -1.169045  0  -0.31068  -0.543477  0  2.323039  0
O  O161  1  0.38192452  0.62491225  0.36196276  1  -1.170497  0  -0.317076  -0.545141  0  2.283005  0
O  O162  1  0.82280022  0.00623046  0.92714824  1  -1.169459  0  -0.317726  -0.551698  0  2.289137  0
O  O163  1  0.80247216  0.13461799  0.93224811  1  -1.159756  0  -0.306562  -0.537904  0  2.3179  0
O  O164  1  0.74408395  0.21490619  0.78810177  1  -1.105294  0  -0.309341  -0.441832  0  2.035955  0
O  O165  1  0.55063421  0.38779765  0.62829446  1  -1.173159  0  -0.316189  -0.551092  0  2.30253  0
O  O166  1  0.47684389  0.31464346  0.63275134  1  -1.16012  0  -0.318576  -0.547919  0  2.290564  0
O  O167  1  0.08148376  0.07629456  0.89065870  1  -1.176363  0  -0.315628  -0.552126  0  2.311142  0
O  O168  1  0.96429974  0.17742688  0.88267068  1  -1.160449  0  -0.301535  -0.526121  0  2.288481  0
O  O169  1  0.10365035  0.28096579  0.80205318  1  -1.107579  0  -0.319494  -0.457745  0  2.027067  0
O  O170  1  0.27509756  0.45707139  0.58731250  1  -1.154349  0  -0.312027  -0.539337  0  2.280901  0
O  O171  1  0.36848667  0.37518136  0.51760089  1  -1.18127  0  -0.328577  -0.572665  0  2.316311  0
O  O172  1  0.10412195  0.88110818  0.94380180  1  -1.171577  0  -0.321619  -0.563722  0  2.325977  0
O  O173  1  0.01505284  0.88874627  0.89045514  1  -1.158598  0  -0.312637  -0.537087  0  2.26442  0
O  O174  1  0.13988823  0.82130607  0.75960207  1  -1.113363  0  -0.316632  -0.455483  0  2.042699  0
O  O175  1  0.30999299  0.59237144  0.62697956  1  -1.164176  0  -0.312843  -0.537667  0  2.302516  0
O  O176  1  0.43295069  0.55395207  0.64364956  1  -1.15582  0  -0.317856  -0.55836  0  2.319515  0
O  O177  1  0.44305871  0.49724130  0.51157607  1  -1.23006  0  -0.577427  -1.041382  0  2.552096  0
