# generated using pymatgen
data_Li3H13C14(SO8)2
_symmetry_space_group_name_H-M   'P 1'
_cell_length_a   9.48133210
_cell_length_b   10.71219649
_cell_length_c   11.42255211
_cell_angle_alpha   103.30299768
_cell_angle_beta   106.12897979
_cell_angle_gamma   110.55166113
_symmetry_Int_Tables_number   1
_chemical_formula_structural   Li3H13C14(SO8)2
_chemical_formula_sum   'Li6 H26 C28 S4 O32'
_cell_volume   971.86589899
_cell_formula_units_Z   2
loop_
 _symmetry_equiv_pos_site_id
 _symmetry_equiv_pos_as_xyz
  1  'x, y, z'
loop_
 _atom_site_type_symbol
 _atom_site_label
 _atom_site_symmetry_multiplicity
 _atom_site_fract_x
 _atom_site_fract_y
 _atom_site_fract_z
 _atom_site_occupancy
 _atom_site_hle17_bader_spin_density
 _atom_site_hle17_ddec_charge
 _atom_site_hle17_ddec_spin_density
 _atom_site_hle17_ddec_sum_bond_order
 _atom_site_hle17_magmom
 _atom_site_hse06_10hf_bader_spin_density
 _atom_site_hse06_10hf_ddec_charge
 _atom_site_hse06_10hf_ddec_spin_density
 _atom_site_hse06_10hf_ddec_sum_bond_order
 _atom_site_hse06_10hf_magmom
 _atom_site_hse06_bader_spin_density
 _atom_site_hse06_ddec_charge
 _atom_site_hse06_ddec_spin_density
 _atom_site_hse06_ddec_sum_bond_order
 _atom_site_hse06_magmom
 _atom_site_pbe_bader_spin_density
 _atom_site_pbe_cm5_charge
 _atom_site_pbe_ddec_charge
 _atom_site_pbe_ddec_spin_density
 _atom_site_pbe_ddec_sum_bond_order
 _atom_site_pbe_magmom
Li  Li0  1  0.00873490  0.27532254  0.38878274  1  0  0.858372  0  0.385339  0  0  0.822506  0  0.482464  0  0  0.830631  0  0.46768  0  0  0.517689  0.816656  0  0.492978  0
Li  Li1  1  0.99126565  0.72467795  0.61121800  1  0  0.858364  0  0.385341  0  0  0.822493  0  0.482478  0  0  0.830619  0  0.467692  0  0  0.517688  0.816647  0  0.492993  0
Li  Li2  1  0.38399096  0.36243743  0.38838025  1  0  0.868888  0  0.371796  0  0  0.833849  0  0.464744  0  0  0.8419  0  0.450646  0  0  0.528195  0.827987  0  0.474911  0
Li  Li3  1  0.61600741  0.63756309  0.61162001  1  0  0.868894  0  0.371793  0  0  0.833841  0  0.464764  0  0  0.841892  0  0.450663  0  0  0.528184  0.827978  0  0.474932  0
Li  Li4  1  0.14036654  0.83786905  0.08323522  1  0  0.862348  0  0.389058  0  0  0.826733  0  0.486949  0  0  0.835328  0  0.471111  0  0  0.521239  0.8204  0  0.498536  0
Li  Li5  1  0.85963182  0.16213148  0.91676417  1  0  0.86235  0  0.38905  0  0  0.826737  0  0.486942  0  0  0.835332  0  0.471104  0  0  0.521238  0.820407  0  0.498531  0
H  H6  1  0.07205078  0.47806513  0.29629422  1  0  0.447299  0  0.841675  0  0  0.414818  0  0.906047  0  0  0.425555  0  0.890237  0  0  0.30769  0.407575  0  0.916758  0
H  H7  1  0.92795085  0.52193534  0.70370501  1  0  0.447289  0  0.841689  0  0  0.41481  0  0.90606  0  0  0.42555  0  0.890243  0  0  0.307683  0.407569  0  0.916766  0
H  H8  1  0.88964023  0.41235135  0.28785284  1  0  0.42551  0  0.877823  0  0  0.394359  0  0.942781  0  0  0.403859  0  0.928704  0  0  0.305404  0.387663  0  0.952638  0
H  H9  1  0.11036087  0.58765021  0.71214740  1  0  0.425503  0  0.877837  0  0  0.394354  0  0.942792  0  0  0.403854  0  0.928715  0  0  0.305389  0.387655  0  0.952655  0
H  H10  1  0.14309410  0.76586072  0.86408182  1  0  0.436857  0  0.859525  0  0  0.406107  0  0.923169  0  0  0.416446  0  0.9078  0  0  0.304645  0.398811  0  0.933986  0
H  H11  1  0.85690592  0.23414086  0.13591817  1  0  0.436841  0  0.859547  0  0  0.406089  0  0.923195  0  0  0.416427  0  0.907828  0  0  0.304644  0.398793  0  0.934012  0
H  H12  1  0.27118583  0.93036834  0.92614579  1  0  0.443802  0  0.826823  0  0  0.420997  0  0.874615  0  0  0.429848  0  0.861458  0  0  0.324991  0.414738  0  0.883908  0
H  H13  1  0.72881310  0.06963325  0.07385483  1  0  0.443819  0  0.826801  0  0  0.421014  0  0.874592  0  0  0.429864  0  0.861436  0  0  0.325006  0.414755  0  0.883883  0
H  H14  1  0.61066313  0.31741232  0.53060974  1  0  0.395674  0  0.900459  0  0  0.363872  0  0.979446  0  0  0.376766  0  0.965799  0  0  0.311282  0.354846  0  0.988882  0
H  H15  1  0.38933410  0.68258609  0.46938628  1  0  0.395689  0  0.900411  0  0  0.363867  0  0.979432  0  0  0.376762  0  0.965783  0  0  0.311275  0.354844  0  0.988865  0
H  H16  1  0.29789063  0.78307780  0.67412646  1  0  0.419466  0  0.830898  0  0  0.397141  0  0.894185  0  0  0.406636  0  0.882988  0  0  0.332261  0.390205  0  0.902333  0
H  H17  1  0.70211044  0.21692159  0.32587503  1  0  0.419464  0  0.830895  0  0  0.397128  0  0.894198  0  0  0.406624  0  0.883001  0  0  0.332254  0.390189  0  0.902352  0
H  H18  1  0.76905495  0.68152972  0.86267517  1  0  0.40917  0  0.866612  0  0  0.384729  0  0.932454  0  0  0.396586  0  0.919283  0  0  0.325633  0.376458  0  0.941491  0
H  H19  1  0.23094508  0.31847185  0.13732657  1  0  0.409236  0  0.866501  0  0  0.384779  0  0.932374  0  0  0.396637  0  0.919199  0  0  0.325664  0.376506  0  0.941418  0
H  H20  1  0.03228784  0.62422962  0.14759267  1  0  0.394897  0  0.897139  0  0  0.360297  0  0.981226  0  0  0.374238  0  0.966741  0  0  0.307755  0.350596  0  0.991228  0
H  H21  1  0.96771700  0.37576864  0.85240505  1  0  0.394877  0  0.897186  0  0  0.360275  0  0.98127  0  0  0.374217  0  0.966785  0  0  0.307768  0.350578  0  0.991267  0
H  H22  1  0.21542096  0.10790090  0.84386709  1  0  0.388488  0  0.896726  0  0  0.363269  0  0.969576  0  0  0.373193  0  0.958305  0  0  0.309606  0.356315  0  0.977373  0
H  H23  1  0.78457741  0.89209962  0.15613404  1  0  0.388481  0  0.896767  0  0  0.363261  0  0.969611  0  0  0.373184  0  0.95834  0  0  0.309615  0.356308  0  0.9774  0
H  H24  1  0.54372949  0.03721344  0.76157142  1  0  0.129437  0  0.928721  0  0  0.139674  0  0.987613  0  0  0.144002  0  0.983537  0  0  0.128235  0.136333  0  0.991058  0
H  H25  1  0.45627374  0.96278594  0.23842619  1  0  0.129439  0  0.928677  0  0  0.13967  0  0.987578  0  0  0.144003  0  0.983498  0  0  0.128241  0.13633  0  0.991023  0
H  H26  1  0.07218416  0.86892683  0.44828996  1  0  0.133636  0  0.945678  0  0  0.142726  0  1.007592  0  0  0.146488  0  1.004304  0  0  0.123818  0.140152  0  1.009448  0
H  H27  1  0.92781473  0.13107260  0.55171193  1  0  0.13364  0  0.945663  0  0  0.142728  0  1.007579  0  0  0.146491  0  1.004291  0  0  0.123825  0.140156  0  1.00943  0
H  H28  1  0.64335016  0.33667400  0.03021040  1  0  0.136149  0  0.932118  0  0  0.141471  0  0.99859  0  0  0.145955  0  0.99438  0  0  0.118367  0.138323  0  1.001485  0
H  H29  1  0.35665091  0.66332539  0.96979109  1  0  0.13613  0  0.932158  0  0  0.141431  0  0.998632  0  0  0.145917  0  0.994418  0  0  0.118346  0.138277  0  1.001535  0
H  H30  1  0.19384419  0.24605843  0.72542820  1  0  0.136802  0  0.965369  0  0  0.143909  0  1.028293  0  0  0.147823  0  1.025239  0  0  0.115406  0.141166  0  1.030308  0
H  H31  1  0.80615361  0.75394102  0.27457257  1  0  0.136812  0  0.965353  0  0  0.143919  0  1.028282  0  0  0.147832  0  1.025225  0  0  0.115387  0.141174  0  1.030296  0
C  C32  1  0.26350012  0.05319927  0.44979159  1  0  -0.231622  0  3.716011  0  0  -0.209236  0  3.974168  0  0  -0.221456  0  3.995576  0  0  -0.02167  -0.201679  0  3.959715  0
C  C33  1  0.73649769  0.94680019  0.55020830  1  0  -0.231629  0  3.715993  0  0  -0.209302  0  3.974207  0  0  -0.221521  0  3.995611  0  0  -0.021691  -0.201741  0  3.959757  0
C  C34  1  0.42967252  0.15335173  0.51225241  1  0  0.339173  0  3.801454  0  0  0.312709  0  4.064322  0  0  0.32737  0  4.081408  0  0  0.100851  0.302926  0  4.052796  0
C  C35  1  0.57032637  0.84664771  0.48774685  1  0  0.339118  0  3.801599  0  0  0.312688  0  4.06444  0  0  0.32735  0  4.081524  0  0  0.100863  0.302904  0  4.052914  0
C  C36  1  0.53152257  0.14927836  0.62715038  1  0  -0.205347  0  3.764717  0  0  -0.184706  0  4.01062  0  0  -0.199348  0  4.036301  0  0  -0.029994  -0.175357  0  3.993094  0
C  C37  1  0.46847849  0.85072104  0.37284936  1  0  -0.205279  0  3.764736  0  0  -0.184661  0  4.010576  0  0  -0.199309  0  4.036276  0  0  -0.029975  -0.175323  0  3.993084  0
C  C38  1  0.46586523  0.04150889  0.67383941  1  0  -0.129791  0  3.693353  0  0  -0.168935  0  3.952697  0  0  -0.164793  0  3.968128  0  0  -0.074601  -0.171654  0  3.942834  0
C  C39  1  0.53413692  0.95849049  0.32616058  1  0  -0.129791  0  3.693303  0  0  -0.168942  0  3.952661  0  0  -0.164802  0  3.968091  0  0  -0.074646  -0.171659  0  3.942797  0
C  C40  1  0.30219424  0.94084122  0.60886255  1  0  0.312548  0  3.779746  0  0  0.304206  0  4.05637  0  0  0.308895  0  4.072421  0  0  0.07665  0.300456  0  4.045876  0
C  C41  1  0.69780579  0.05916035  0.39113919  1  0  0.312478  0  3.779791  0  0  0.304161  0  4.056386  0  0  0.308849  0  4.072441  0  0  0.076639  0.30041  0  4.045894  0
C  C42  1  0.20021965  0.94760578  0.49802222  1  0  -0.120594  0  3.691764  0  0  -0.161737  0  3.952537  0  0  -0.157658  0  3.967847  0  0  -0.074657  -0.163748  0  3.941134  0
C  C43  1  0.79978033  0.05239363  0.50197816  1  0  -0.120527  0  3.691727  0  0  -0.161662  0  3.952504  0  0  -0.157579  0  3.967807  0  0  -0.074639  -0.163673  0  3.941098  0
C  C44  1  0.70429624  0.26204646  0.69655830  1  0  0.691475  0  3.838086  0  0  0.635252  0  4.140295  0  0  0.669114  0  4.134039  0  0  0.228841  0.612613  0  4.143612  0
C  C45  1  0.29570321  0.73795405  0.30344046  1  0  0.691278  0  3.838159  0  0  0.635128  0  4.140248  0  0  0.66899  0  4.133993  0  0  0.228805  0.612494  0  4.143558  0
C  C46  1  0.40583550  0.43079089  0.75569515  1  0  -0.228464  0  3.751888  0  0  -0.207548  0  4.01346  0  0  -0.218786  0  4.03462  0  0  -0.025481  -0.200582  0  3.999661  0
C  C47  1  0.59416666  0.56920847  0.24430659  1  0  -0.228453  0  3.751851  0  0  -0.207533  0  4.013431  0  0  -0.218782  0  4.034586  0  0  -0.025434  -0.200574  0  3.999633  0
C  C48  1  0.57499429  0.51719730  0.82472099  1  0  0.334171  0  3.774565  0  0  0.303871  0  4.045205  0  0  0.318919  0  4.059869  0  0  0.098705  0.294235  0  4.034719  0
C  C49  1  0.42500735  0.48280316  0.17528087  1  0  0.334161  0  3.774608  0  0  0.303859  0  4.045238  0  0  0.31892  0  4.059901  0  0  0.098677  0.294225  0  4.034755  0
C  C50  1  0.65936137  0.48326325  0.92644161  1  0  -0.203489  0  3.787715  0  0  -0.186386  0  4.036703  0  0  -0.200447  0  4.060585  0  0  -0.03088  -0.177189  0  4.020667  0
C  C51  1  0.34063805  0.51673508  0.07356015  1  0  -0.203481  0  3.787808  0  0  -0.186384  0  4.036756  0  0  -0.200475  0  4.060662  0  0  -0.030866  -0.177186  0  4.020718  0
C  C52  1  0.57669515  0.36222402  0.95242751  1  0  -0.123948  0  3.638265  0  0  -0.163044  0  3.90041  0  0  -0.160119  0  3.916679  0  0  -0.079204  -0.16456  0  3.889376  0
C  C53  1  0.42330591  0.63777536  0.04757398  1  0  -0.123952  0  3.63836  0  0  -0.162982  0  3.90042  0  0  -0.160052  0  3.916696  0  0  -0.079163  -0.164493  0  3.889387  0
C  C54  1  0.40996379  0.27430937  0.87897769  1  0  0.315595  0  3.816927  0  0  0.309819  0  4.088578  0  0  0.315456  0  4.106957  0  0  0.07727  0.305496  0  4.07649  0
C  C55  1  0.59003731  0.72569217  0.12102429  1  0  0.315614  0  3.816961  0  0  0.309828  0  4.088585  0  0  0.315466  0  4.106962  0  0  0.07727  0.305503  0  4.076493  0
C  C56  1  0.32467149  0.31099578  0.78142489  1  0  -0.156212  0  3.716343  0  0  -0.196072  0  3.976986  0  0  -0.195074  0  3.996194  0  0  -0.09104  -0.196522  0  3.964382  0
C  C57  1  0.67532740  0.68900364  0.21857612  1  0  -0.156235  0  3.716403  0  0  -0.1961  0  3.977037  0  0  -0.195108  0  3.996263  0  0  -0.091048  -0.196549  0  3.964441  0
C  C58  1  0.83343742  0.57965860  0.00597370  1  0  0.68749  0  3.78095  0  0  0.634577  0  4.077517  0  0  0.66985  0  4.067451  0  0  0.243296  0.610057  0  4.084874  0
C  C59  1  0.16656143  0.42033868  0.99402507  1  0  0.687487  0  3.780982  0  0  0.634569  0  4.077543  0  0  0.669862  0  4.067463  0  0  0.243304  0.610053  0  4.084898  0
S  S60  1  0.13593530  0.05885126  0.30546328  1  0  1.383354  0  5.609684  0  0  1.284784  0  6.132468  0  0  1.333443  0  6.104212  0  0  0.55032  1.251156  0  6.15142  0
S  S61  1  0.86406250  0.94114819  0.69453748  1  0  1.383513  0  5.609664  0  0  1.284957  0  6.132444  0  0  1.333616  0  6.104187  0  0  0.550348  1.251322  0  6.151403  0
S  S62  1  0.29368571  0.47767550  0.63656014  1  0  1.388634  0  5.575726  0  0  1.290238  0  6.092769  0  0  1.338277  0  6.065681  0  0  0.553633  1.256985  0  6.111019  0
S  S63  1  0.70631427  0.52232390  0.36344198  1  0  1.38856  0  5.575793  0  0  1.290149  0  6.092865  0  0  1.338197  0  6.065761  0  0  0.553569  1.256898  0  6.111108  0
O  O64  1  0.19228561  0.02043319  0.20175263  1  0  -0.715172  0  1.932082  0  0  -0.67242  0  2.177282  0  0  -0.690818  0  2.159108  0  0  -0.388265  -0.659489  0  2.189569  0
O  O65  1  0.80771167  0.97956735  0.79824827  1  0  -0.715245  0  1.932101  0  0  -0.672495  0  2.177307  0  0  -0.690892  0  2.15913  0  0  -0.388288  -0.659561  0  2.189598  0
O  O66  1  0.98004419  0.38813383  0.28397608  1  0  -0.904353  0  1.838395  0  0  -0.856866  0  2.014511  0  0  -0.873745  0  1.981846  0  0  -0.64062  -0.845035  0  2.036784  0
O  O67  1  0.01995691  0.61186773  0.71602415  1  0  -0.904334  0  1.838394  0  0  -0.856851  0  2.014505  0  0  -0.873732  0  1.981838  0  0  -0.640604  -0.845016  0  2.036772  0
O  O68  1  0.96878621  0.96015041  0.28059356  1  0  -0.677653  0  2.027016  0  0  -0.621518  0  2.274951  0  0  -0.642749  0  2.260502  0  0  -0.310657  -0.606255  0  2.283897  0
O  O69  1  0.03121160  0.03984905  0.71940633  1  0  -0.677693  0  2.027029  0  0  -0.621554  0  2.274953  0  0  -0.642785  0  2.260503  0  0  -0.310665  -0.606288  0  2.283905  0
O  O70  1  0.21713788  0.84815137  0.94739730  1  0  -0.896336  0  1.725977  0  0  -0.852686  0  1.868511  0  0  -0.867445  0  1.836972  0  0  -0.650658  -0.84217  0  1.890574  0
O  O71  1  0.78286105  0.15185024  0.05260245  1  0  -0.896342  0  1.725971  0  0  -0.852694  0  1.868513  0  0  -0.867452  0  1.836974  0  0  -0.650678  -0.842183  0  1.890576  0
O  O72  1  0.15779273  0.20835170  0.33703819  1  0  -0.803929  0  2.018864  0  0  -0.758194  0  2.281021  0  0  -0.776161  0  2.262566  0  0  -0.444248  -0.745656  0  2.293494  0
O  O73  1  0.84220781  0.79164879  0.66296255  1  0  -0.803968  0  2.018833  0  0  -0.75823  0  2.280984  0  0  -0.776196  0  2.262527  0  0  -0.444233  -0.745694  0  2.293472  0
O  O74  1  0.49005661  0.25202949  0.46205944  1  0  -0.592856  0  2.210146  0  0  -0.549581  0  2.451818  0  0  -0.568495  0  2.441323  0  0  -0.393029  -0.536168  0  2.458559  0
O  O75  1  0.50994175  0.74797105  0.53793907  1  0  -0.592856  0  2.210167  0  0  -0.549565  0  2.451818  0  0  -0.568484  0  2.441336  0  0  -0.393024  -0.536148  0  2.458554  0
O  O76  1  0.75152092  0.36079135  0.65040291  1  0  -0.606781  0  1.982977  0  0  -0.541492  0  2.195227  0  0  -0.56564  0  2.184794  0  0  -0.288226  -0.525437  0  2.201933  0
O  O77  1  0.24847904  0.63920810  0.34959310  1  0  -0.6067  0  1.983041  0  0  -0.541412  0  2.195242  0  0  -0.565555  0  2.18481  0  0  -0.288195  -0.525363  0  2.201956  0
O  O78  1  0.79956420  0.25977937  0.79894668  1  0  -0.688552  0  2.056979  0  0  -0.639017  0  2.301162  0  0  -0.663433  0  2.290966  0  0  -0.364307  -0.622213  0  2.307543  0
O  O79  1  0.20043473  0.74022225  0.20105045  1  0  -0.688476  0  2.056891  0  0  -0.638968  0  2.301018  0  0  -0.663384  0  2.290823  0  0  -0.364293  -0.622157  0  2.307393  0
O  O80  1  0.23143161  0.83435658  0.65328575  1  0  -0.612206  0  2.112131  0  0  -0.564257  0  2.336501  0  0  -0.578938  0  2.324002  0  0  -0.409357  -0.553808  0  2.345114  0
O  O81  1  0.76857167  0.16564494  0.34671497  1  0  -0.612201  0  2.112094  0  0  -0.564265  0  2.336488  0  0  -0.578948  0  2.32399  0  0  -0.409349  -0.553811  0  2.345103  0
O  O82  1  0.30574923  0.61782984  0.70536989  1  0  -0.671247  0  1.952868  0  0  -0.61166  0  2.185108  0  0  -0.632812  0  2.16912  0  0  -0.312269  -0.596719  0  2.195844  0
O  O83  1  0.69425075  0.38216957  0.29463136  1  0  -0.671249  0  1.952882  0  0  -0.611643  0  2.185114  0  0  -0.632796  0  2.169123  0  0  -0.31227  -0.596699  0  2.195847  0
O  O84  1  0.12449578  0.36456997  0.57619763  1  0  -0.729297  0  1.960916  0  0  -0.684032  0  2.214252  0  0  -0.702503  0  2.196768  0  0  -0.392396  -0.671107  0  2.225909  0
O  O85  1  0.87550420  0.63542944  0.42380275  1  0  -0.729287  0  1.960931  0  0  -0.68402  0  2.214269  0  0  -0.702495  0  2.196785  0  0  -0.392389  -0.671093  0  2.225922  0
O  O86  1  0.37509239  0.48629439  0.54361385  1  0  -0.785984  0  2.04378  0  0  -0.741186  0  2.314647  0  0  -0.75836  0  2.295818  0  0  -0.416615  -0.729132  0  2.327372  0
O  O87  1  0.62490815  0.51370609  0.45638776  1  0  -0.785953  0  2.043845  0  0  -0.741151  0  2.314714  0  0  -0.758327  0  2.295881  0  0  -0.416585  -0.729098  0  2.327439  0
O  O88  1  0.65265644  0.62949976  0.79331200  1  0  -0.56521  0  2.138048  0  0  -0.522289  0  2.364348  0  0  -0.539135  0  2.35133  0  0  -0.376416  -0.510078  0  2.372511  0
O  O89  1  0.34734411  0.37050072  0.20668962  1  0  -0.565242  0  2.137975  0  0  -0.52233  0  2.364296  0  0  -0.539171  0  2.351275  0  0  -0.376439  -0.510113  0  2.372459  0
O  O90  1  0.90844714  0.54617719  0.09985509  1  0  -0.524574  0  2.093005  0  0  -0.468524  0  2.3119  0  0  -0.490912  0  2.29793  0  0  -0.304202  -0.452913  0  2.321782  0
O  O91  1  0.09155491  0.45381789  0.90014042  1  0  -0.52453  0  2.093055  0  0  -0.46847  0  2.311942  0  0  -0.490862  0  2.297965  0  0  -0.304223  -0.452858  0  2.321819  0
O  O92  1  0.90680356  0.69108452  0.98507613  1  0  -0.639733  0  1.95804  0  0  -0.589795  0  2.174809  0  0  -0.60979  0  2.161467  0  0  -0.333363  -0.576276  0  2.184454  0
O  O93  1  0.09319424  0.30891493  0.01492463  1  0  -0.639747  0  1.958061  0  0  -0.589806  0  2.174841  0  0  -0.609807  0  2.161493  0  0  -0.333355  -0.576289  0  2.184492  0
O  O94  1  0.33270272  0.15657812  0.90515405  1  0  -0.525876  0  2.066385  0  0  -0.480722  0  2.26905  0  0  -0.497956  0  2.260269  0  0  -0.35962  -0.468405  0  2.274819  0
O  O95  1  0.66729674  0.84342240  0.09484558  1  0  -0.525875  0  2.066414  0  0  -0.480724  0  2.269086  0  0  -0.497955  0  2.260304  0  0  -0.359638  -0.468405  0  2.274849  0
