# generated using pymatgen
data_AlH7C12SO8
_symmetry_space_group_name_H-M   'P 1'
_cell_length_a   6.64050744
_cell_length_b   11.32449055
_cell_length_c   13.58025870
_cell_angle_alpha   84.42274444
_cell_angle_beta   68.82813666
_cell_angle_gamma   70.37350130
_symmetry_Int_Tables_number   1
_chemical_formula_structural   AlH7C12SO8
_chemical_formula_sum   'Al2 H14 C24 S2 O16'
_cell_volume   896.64260117
_cell_formula_units_Z   2
loop_
 _symmetry_equiv_pos_site_id
 _symmetry_equiv_pos_as_xyz
  1  'x, y, z'
loop_
 _atom_site_type_symbol
 _atom_site_label
 _atom_site_symmetry_multiplicity
 _atom_site_fract_x
 _atom_site_fract_y
 _atom_site_fract_z
 _atom_site_occupancy
 _atom_site_pbe_bader_charge
 _atom_site_pbe_bader_spin_density
 _atom_site_pbe_cm5_charge
 _atom_site_pbe_ddec_charge
 _atom_site_pbe_ddec_spin_density
 _atom_site_pbe_ddec_sum_bond_order
 _atom_site_pbe_magmom
Al  Al0  1  0.50131010  0.49110477  0.49900675  1  2.504274  0  0.404068  1.653081  0  2.546358  0
Al  Al1  1  0.00058643  0.49736674  0.49873842  1  2.505692  0  0.400794  1.643192  0  2.569103  0
H  H2  1  0.27701086  0.59238087  0.38406735  1  0.655567  0  0.332284  0.426575  0  0.888789  0
H  H3  1  0.77440456  0.36061708  0.57810115  1  0.62118  0  0.355739  0.435127  0  0.845911  0
H  H4  1  0.22431824  0.22074602  0.34293627  1  0.148946  0  0.119766  0.134021  0  1.019905  0
H  H5  1  0.40065312  0.76351597  0.37713284  1  0.130489  0  0.12056  0.13034  0  1.065144  0
H  H6  1  0.74890898  0.87445911  0.58915713  1  0.081248  0  0.118405  0.125169  0  0.975581  0
H  H7  1  0.64303632  0.10770788  0.58094107  1  0.090298  0  0.113502  0.116721  0  0.981879  0
H  H8  1  0.66548006  0.45527625  0.18085936  1  0.08487  0  0.111711  0.116566  0  0.997393  0
H  H9  1  0.21410578  0.57709272  0.17977715  1  0.119144  0  0.104435  0.110622  0  1.059031  0
H  H10  1  0.32233910  0.60864493  0.98655616  1  0.053552  0  0.103276  0.104725  0  1.013625  0
H  H11  1  0.28273563  0.57709642  0.81602787  1  0.108933  0  0.112087  0.120313  0  0.994668  0
H  H12  1  0.75684605  0.43635569  0.81564722  1  0.082752  0  0.10721  0.11286  0  1.000731  0
H  H13  1  0.62499019  0.42451690  0.01198998  1  0.088098  0  0.107064  0.111687  0  1.001926  0
H  H14  1  0.77488954  0.30691526  0.30796648  1  0.661704  0  0.318528  0.38172  0  0.946772  0
H  H15  1  0.19724699  0.92846565  0.10868504  1  0.661812  0  0.321488  0.394513  0  0.929295  0
C  C16  1  0.88000126  0.49067620  0.30584018  1  1.499368  0  0.267308  0.627993  0  4.064774  0
C  C17  1  0.63293969  0.72004634  0.50269571  1  1.59533  0  0.277443  0.645842  0  4.062332  0
C  C18  1  0.11249502  0.50837173  0.68801524  1  1.568326  0  0.268758  0.64314  0  4.093646  0
C  C19  1  0.37435907  0.26565980  0.48852502  1  1.562639  0  0.268605  0.641452  0  4.086715  0
C  C20  1  0.44721047  0.12557539  0.48242865  1  0.03852  0  0.001079  -0.068658  0  3.906439  0
C  C21  1  0.37108482  0.06063966  0.42474214  1  0.06014  0  0.014115  0.079014  0  3.904746  0
C  C22  1  0.58302332  0.05732659  0.53906862  1  -0.050323  0  -0.069086  -0.075339  0  3.963905  0
C  C23  1  0.25549259  0.12096356  0.35444009  1  0.028986  0  -0.067673  -0.103208  0  3.900592  0
C  C24  1  0.18695966  0.05700915  0.29769678  1  -0.174061  0  -0.013632  -0.105636  0  3.964918  0
C  C25  1  0.55991692  0.86034711  0.49519255  1  0.001502  0  0.006215  -0.061132  0  3.884077  0
C  C26  1  0.64022050  0.92619120  0.54487844  1  0.024698  0  -0.066849  -0.074411  0  3.95598  0
C  C27  1  0.42558886  0.92721308  0.43295820  1  -0.009684  0  0.014379  0.087599  0  3.91976  0
C  C28  1  0.35636740  0.86429195  0.37269911  1  0.015442  0  -0.073564  -0.115204  0  3.932649  0
C  C29  1  0.23804373  0.92499491  0.30767185  1  -0.122704  0  -0.012249  -0.09996  0  3.984131  0
C  C30  1  0.81063053  0.48725140  0.13807686  1  -0.003331  0  -0.06706  -0.109203  0  3.897997  0
C  C31  1  0.12094682  0.55697208  0.13582572  1  -0.068505  0  -0.086515  -0.088767  0  3.970654  0
C  C32  1  0.18098199  0.57337949  0.02881534  1  0.023644  0  -0.084535  -0.124625  0  3.97483  0
C  C33  1  0.06554959  0.54089110  0.97117832  1  -0.02227  0  0.001831  0.086073  0  3.991169  0
C  C34  1  0.13713626  0.54570504  0.85990455  1  -0.036976  0  -0.071675  -0.13104  0  3.919145  0
C  C35  1  0.83881120  0.46572310  0.86086168  1  0.018191  0  -0.087088  -0.104018  0  3.997023  0
C  C36  1  0.76631291  0.45964830  0.96919942  1  -0.135597  0  -0.081081  -0.120094  0  3.973702  0
C  C37  1  0.87643168  0.49679241  0.02721967  1  -0.003754  0  0.002287  0.084276  0  3.973644  0
C  C38  1  0.93441294  0.51343858  0.19147423  1  0.025594  0  -0.016804  -0.039948  0  3.985948  0
C  C39  1  0.02716458  0.50834002  0.80538101  1  0.005551  0  -0.017615  -0.048596  0  4.003768  0
S  S40  1  0.05805468  0.15261903  0.20919198  1  3.111178  0  0.55386  1.173103  0  5.986806  0
S  S41  1  0.16674178  0.82149405  0.24443528  1  3.083972  0  0.550919  1.162222  0  6.005923  0
O  O42  1  0.71213476  0.44617782  0.35261347  1  -1.274352  0  -0.252797  -0.630078  0  2.393306  0
O  O43  1  0.81504801  0.66906324  0.52336874  1  -1.250426  0  -0.225582  -0.57167  0  2.330906  0
O  O44  1  0.99149238  0.48740191  0.64143735  1  -1.268398  0  -0.235527  -0.595175  0  2.351881  0
O  O45  1  0.49923403  0.31703404  0.50914667  1  -1.255858  0  -0.237789  -0.595751  0  2.319775  0
O  O46  1  0.30408014  0.52639003  0.64123840  1  -1.265719  0  -0.237818  -0.597147  0  2.346743  0
O  O47  1  0.18496166  0.32406161  0.47589102  1  -1.2582  0  -0.230557  -0.589409  0  2.394381  0
O  O48  1  0.99620380  0.51334761  0.35346848  1  -1.2446  0  -0.21992  -0.557391  0  2.341855  0
O  O49  1  0.51555977  0.66010455  0.48642469  1  -1.259237  0  -0.225728  -0.575881  0  2.367348  0
O  O50  1  0.26190022  0.54359531  0.44836684  1  -1.463256  0  -0.455066  -1.011024  0  2.189328  0
O  O51  1  0.74953193  0.44035844  0.54348151  1  -1.427031  0  -0.45055  -0.998625  0  2.21514  0
O  O52  1  0.80321672  0.21927912  0.28045657  1  -1.25356  0  -0.34397  -0.522717  0  2.25156  0
O  O53  1  0.04482342  0.07391664  0.13512293  1  -1.311348  0  -0.306147  -0.539432  0  2.207651  0
O  O54  1  0.17493088  0.24284668  0.16881095  1  -1.29034  0  -0.297534  -0.522443  0  2.178086  0
O  O55  1  0.28056215  0.83911642  0.12242750  1  -1.237844  0  -0.351955  -0.519526  0  2.173395  0
O  O56  1  0.92257020  0.85855299  0.27493318  1  -1.256331  0  -0.303259  -0.527228  0  2.17459  0
O  O57  1  0.29331916  0.69545954  0.26339336  1  -1.317932  0  -0.288087  -0.524614  0  2.261238  0
