# generated using pymatgen
data_AgAsH19C19NCl
_symmetry_space_group_name_H-M   'P 1'
_cell_length_a   9.20524115
_cell_length_b   10.25715684
_cell_length_c   11.16549347
_cell_angle_alpha   73.38725631
_cell_angle_beta   66.87970719
_cell_angle_gamma   71.88476160
_symmetry_Int_Tables_number   1
_chemical_formula_structural   AgAsH19C19NCl
_chemical_formula_sum   'Ag2 As2 H38 C38 N2 Cl2'
_cell_volume   905.18208288
_cell_formula_units_Z   2
loop_
 _symmetry_equiv_pos_site_id
 _symmetry_equiv_pos_as_xyz
  1  'x, y, z'
loop_
 _atom_site_type_symbol
 _atom_site_label
 _atom_site_symmetry_multiplicity
 _atom_site_fract_x
 _atom_site_fract_y
 _atom_site_fract_z
 _atom_site_occupancy
 _atom_site_hle17_bader_spin_density
 _atom_site_hle17_ddec_charge
 _atom_site_hle17_ddec_spin_density
 _atom_site_hle17_ddec_sum_bond_order
 _atom_site_hle17_magmom
 _atom_site_hse06_10hf_bader_spin_density
 _atom_site_hse06_10hf_ddec_charge
 _atom_site_hse06_10hf_ddec_spin_density
 _atom_site_hse06_10hf_ddec_sum_bond_order
 _atom_site_hse06_10hf_magmom
 _atom_site_hse06_bader_spin_density
 _atom_site_hse06_ddec_charge
 _atom_site_hse06_ddec_spin_density
 _atom_site_hse06_ddec_sum_bond_order
 _atom_site_hse06_magmom
 _atom_site_pbe_bader_spin_density
 _atom_site_pbe_cm5_charge
 _atom_site_pbe_ddec_charge
 _atom_site_pbe_ddec_spin_density
 _atom_site_pbe_ddec_sum_bond_order
 _atom_site_pbe_magmom
Ag  Ag0  1  0.54279093  0.62913757  0.99748536  1  0  0.291392  0  1.897283  0  0  0.163299  0  2.428306  0  0  0.18378  0  2.382123  0  0  0.327085  0.151237  0  2.458251  0
Ag  Ag1  1  0.45720800  0.37086442  0.00251372  1  0  0.291322  0  1.897386  0  0  0.163249  0  2.428391  0  0  0.183723  0  2.382216  0  0  0.327068  0.151185  0  2.458335  0
As  As2  1  0.36318398  0.82014293  0.11911633  1  0  0.399256  0  3.221821  0  0  0.372735  0  3.709944  0  0  0.376524  0  3.705329  0  0  0.137475  0.369498  0  3.713113  0
As  As3  1  0.63681785  0.17985699  0.88088594  1  0  0.399298  0  3.221865  0  0  0.372799  0  3.709952  0  0  0.376588  0  3.705333  0  0  0.137493  0.369568  0  3.713122  0
H  H4  1  0.81241801  0.75241825  0.00806242  1  0  0.10517  0  0.982358  0  0  0.122953  0  1.056596  0  0  0.123955  0  1.056346  0  0  0.087651  0.122185  0  1.056681  0
H  H5  1  0.18757710  0.24758479  0.99193672  1  0  0.105196  0  0.982412  0  0  0.122935  0  1.056669  0  0  0.123937  0  1.05642  0  0  0.087642  0.12217  0  1.056749  0
H  H6  1  0.01776457  0.65796157  0.97397934  1  0  0.129722  0  0.955375  0  0  0.148961  0  1.014988  0  0  0.150553  0  1.015268  0  0  0.090891  0.147818  0  1.014893  0
H  H7  1  0.98223118  0.34204354  0.02601457  1  0  0.12979  0  0.955403  0  0  0.148982  0  1.015058  0  0  0.150575  0  1.015347  0  0  0.090925  0.147837  0  1.014959  0
H  H8  1  0.85417661  0.56955175  0.03966697  1  0  0.124487  0  0.966982  0  0  0.145618  0  1.029397  0  0  0.146944  0  1.029228  0  0  0.089352  0.144658  0  1.029477  0
H  H9  1  0.14581904  0.43044920  0.96033255  1  0  0.124504  0  0.967002  0  0  0.145613  0  1.029422  0  0  0.14694  0  1.029252  0  0  0.089337  0.14465  0  1.029507  0
H  H10  1  0.15822762  0.67772760  0.73987075  1  0  0.11261  0  0.986273  0  0  0.120294  0  1.051268  0  0  0.123116  0  1.051618  0  0  0.093112  0.118199  0  1.05131  0
H  H11  1  0.84176677  0.32226917  0.26013119  1  0  0.112569  0  0.986256  0  0  0.120247  0  1.051255  0  0  0.123069  0  1.051605  0  0  0.093106  0.118155  0  1.051299  0
H  H12  1  0.15992511  0.68818766  0.51227802  1  0  0.090049  0  0.967606  0  0  0.100571  0  1.027987  0  0  0.102021  0  1.028557  0  0  0.101271  0.099486  0  1.027597  0
H  H13  1  0.84007328  0.31181642  0.48772158  1  0  0.090019  0  0.967654  0  0  0.100539  0  1.02804  0  0  0.10199  0  1.028609  0  0  0.10127  0.099454  0  1.027649  0
H  H14  1  0.90537522  0.67408547  0.48658576  1  0  0.095486  0  0.981409  0  0  0.104023  0  1.045071  0  0  0.106467  0  1.046057  0  0  0.099482  0.102347  0  1.044305  0
H  H15  1  0.09462216  0.32592697  0.51341196  1  0  0.095542  0  0.981391  0  0  0.104052  0  1.045072  0  0  0.106496  0  1.046059  0  0  0.099483  0.102375  0  1.044306  0
H  H16  1  0.66112837  0.64959798  0.69207463  1  0  0.07094  0  0.977244  0  0  0.077763  0  1.046772  0  0  0.080216  0  1.044557  0  0  0.100124  0.076  0  1.048337  0
H  H17  1  0.33887228  0.35040191  0.30791997  1  0  0.070914  0  0.977173  0  0  0.077696  0  1.046755  0  0  0.08015  0  1.044539  0  0  0.100079  0.075945  0  1.048308  0
H  H18  1  0.36242614  0.03574177  0.94083986  1  0  0.100974  0  0.963608  0  0  0.119422  0  1.021809  0  0  0.120605  0  1.023025  0  0  0.093154  0.118445  0  1.021178  0
H  H19  1  0.63757125  0.96425709  0.05916323  1  0  0.100922  0  0.963714  0  0  0.119376  0  1.021908  0  0  0.120556  0  1.023127  0  0  0.093148  0.11841  0  1.021265  0
H  H20  1  0.34338533  0.08150358  0.08992780  1  0  0.092711  0  0.981226  0  0  0.106506  0  1.051202  0  0  0.108399  0  1.050627  0  0  0.089425  0.105378  0  1.05127  0
H  H21  1  0.65661033  0.91849738  0.91007530  1  0  0.092718  0  0.981214  0  0  0.106482  0  1.051213  0  0  0.108374  0  1.050637  0  0  0.089442  0.105356  0  1.051279  0
H  H22  1  0.53386066  0.60695957  0.29362833  1  0  0.087026  0  0.981827  0  0  0.091641  0  1.057633  0  0  0.094974  0  1.055697  0  0  0.088898  0.08938  0  1.058867  0
H  H23  1  0.46613581  0.39303826  0.70637712  1  0  0.087027  0  0.98184  0  0  0.091648  0  1.057642  0  0  0.094991  0  1.055698  0  0  0.08891  0.089389  0  1.058875  0
H  H24  1  0.56709269  0.59753205  0.50794461  1  0  0.085901  0  0.951442  0  0  0.099741  0  1.007732  0  0  0.102091  0  1.007474  0  0  0.099449  0.098229  0  1.007645  0
H  H25  1  0.43290961  0.40246159  0.49205738  1  0  0.085903  0  0.951483  0  0  0.09974  0  1.007768  0  0  0.102078  0  1.007527  0  0  0.099455  0.098228  0  1.007682  0
H  H26  1  0.43908946  0.80156637  0.62020335  1  0  0.088951  0  0.972788  0  0  0.098459  0  1.037298  0  0  0.101186  0  1.03599  0  0  0.093947  0.096442  0  1.038462  0
H  H27  1  0.56091873  0.19842728  0.37980210  1  0  0.088976  0  0.972631  0  0  0.098497  0  1.037142  0  0  0.101226  0  1.035829  0  0  0.093967  0.096482  0  1.038307  0
H  H28  1  0.27469375  0.01625299  0.52064861  1  0  0.086209  0  0.969123  0  0  0.096193  0  1.030616  0  0  0.098379  0  1.031276  0  0  0.097273  0.094852  0  1.029911  0
H  H29  1  0.72532190  0.98374379  0.47935359  1  0  0.086233  0  0.969067  0  0  0.096266  0  1.030515  0  0  0.098451  0  1.031178  0  0  0.097261  0.094925  0  1.029798  0
H  H30  1  0.23582592  0.02528502  0.31123043  1  0  0.088029  0  0.962133  0  0  0.100598  0  1.022705  0  0  0.102752  0  1.022904  0  0  0.098064  0.099059  0  1.022702  0
H  H31  1  0.76418982  0.97471595  0.68877243  1  0  0.088117  0  0.962097  0  0  0.100633  0  1.022702  0  0  0.102787  0  1.0229  0  0  0.098054  0.099082  0  1.02273  0
H  H32  1  0.14008535  0.63293991  0.20470051  1  0  0.085082  0  0.97306  0  0  0.091251  0  1.045851  0  0  0.093842  0  1.045036  0  0  0.094587  0.089632  0  1.046175  0
H  H33  1  0.85991703  0.36705790  0.79529676  1  0  0.085111  0  0.973083  0  0  0.091268  0  1.045876  0  0  0.093857  0  1.045058  0  0  0.094593  0.089648  0  1.046205  0
H  H34  1  0.84143199  0.66328237  0.27440812  1  0  0.083007  0  0.956689  0  0  0.096458  0  1.01276  0  0  0.098314  0  1.013544  0  0  0.097516  0.095069  0  1.012425  0
H  H35  1  0.15857003  0.33671230  0.72558831  1  0  0.083024  0  0.956707  0  0  0.096469  0  1.012791  0  0  0.098328  0  1.013572  0  0  0.09753  0.095079  0  1.012457  0
H  H36  1  0.66193436  0.90130753  0.27075338  1  0  0.081128  0  0.989462  0  0  0.091286  0  1.052989  0  0  0.092629  0  1.05472  0  0  0.093867  0.090175  0  1.052007  0
H  H37  1  0.33806502  0.09868819  0.72924632  1  0  0.081152  0  0.98938  0  0  0.091285  0  1.05293  0  0  0.092628  0  1.054661  0  0  0.093863  0.090175  0  1.051946  0
H  H38  1  0.78266646  0.11089305  0.19088144  1  0  0.091025  0  0.971768  0  0  0.100584  0  1.035891  0  0  0.103395  0  1.034728  0  0  0.091921  0.098614  0  1.036859  0
H  H39  1  0.21733292  0.88910268  0.80911915  1  0  0.090968  0  0.971855  0  0  0.100531  0  1.035975  0  0  0.103342  0  1.034812  0  0  0.091913  0.098561  0  1.036943  0
H  H40  1  0.07749848  0.08035807  0.12975786  1  0  0.082268  0  0.991058  0  0  0.097165  0  1.052499  0  0  0.098752  0  1.052926  0  0  0.09687  0.09621  0  1.051878  0
H  H41  1  0.92249945  0.91963871  0.87024650  1  0  0.082282  0  0.991101  0  0  0.097192  0  1.052523  0  0  0.098779  0  1.052949  0  0  0.096878  0.096235  0  1.051903  0
C  C42  1  0.90854694  0.66204190  0.83361764  1  0  0.299405  0  3.711013  0  0  0.308225  0  3.948146  0  0  0.316478  0  3.96906  0  0  0.116327  0.302577  0  3.934023  0
C  C43  1  0.09144254  0.33796009  0.16638182  1  0  0.299493  0  3.710826  0  0  0.308185  0  3.94815  0  0  0.316437  0  3.969065  0  0  0.116317  0.302535  0  3.93403  0
C  C44  1  0.89958132  0.65994936  0.97088403  1  0  -0.391571  0  3.716156  0  0  -0.474927  0  3.950868  0  0  -0.477715  0  3.958101  0  0  -0.251217  -0.472706  0  3.945494  0
C  C45  1  0.10041143  0.34005368  0.02911409  1  0  -0.391721  0  3.71631  0  0  -0.474949  0  3.951137  0  0  -0.477742  0  3.958372  0  0  -0.251217  -0.472724  0  3.945758  0
C  C46  1  0.05007237  0.67347752  0.72430223  1  0  -0.179373  0  3.691446  0  0  -0.193434  0  3.929014  0  0  -0.20239  0  3.951427  0  0  -0.090538  -0.187504  0  3.913631  0
C  C47  1  0.94992538  0.32652447  0.27569724  1  0  -0.179347  0  3.691367  0  0  -0.193339  0  3.928951  0  0  -0.202293  0  3.951364  0  0  -0.090532  -0.187415  0  3.913573  0
C  C48  1  0.05093652  0.67795296  0.59809121  1  0  -0.003375  0  3.742749  0  0  -0.019286  0  3.985035  0  0  -0.014772  0  4.003631  0  0  -0.071721  -0.021913  0  3.972333  0
C  C49  1  0.94906041  0.32205217  0.40190680  1  0  -0.003364  0  3.742732  0  0  -0.019277  0  3.985002  0  0  -0.014765  0  4.003602  0  0  -0.071735  -0.021906  0  3.972302  0
C  C50  1  0.91029104  0.67012225  0.58346203  1  0  -0.132222  0  3.765096  0  0  -0.142219  0  4.008376  0  0  -0.149751  0  4.030384  0  0  -0.093314  -0.137554  0  3.993562  0
C  C51  1  0.08970798  0.32988392  0.41653413  1  0  -0.132315  0  3.765173  0  0  -0.142272  0  4.008427  0  0  -0.149809  0  4.030444  0  0  -0.093349  -0.137606  0  3.993615  0
C  C52  1  0.77452605  0.65765636  0.69631864  1  0  0.110065  0  3.739344  0  0  0.082393  0  3.984418  0  0  0.088758  0  4.003119  0  0  0.034525  0.078025  0  3.971847  0
C  C53  1  0.22546906  0.34234667  0.30367782  1  0  0.110156  0  3.739338  0  0  0.082535  0  3.984441  0  0  0.088898  0  4.00314  0  0  0.034651  0.078156  0  3.971866  0
C  C54  1  0.40935124  0.00546281  0.02379665  1  0  -0.265239  0  3.623711  0  0  -0.290464  0  3.878897  0  0  -0.292758  0  3.891761  0  0  -0.199436  -0.288733  0  3.869785  0
C  C55  1  0.59064796  0.99453815  0.97620620  1  0  -0.265195  0  3.623779  0  0  -0.290413  0  3.879016  0  0  -0.292699  0  3.891873  0  0  -0.199427  -0.288692  0  3.869896  0
C  C56  1  0.38414907  0.81684212  0.28840031  1  0  -0.124169  0  3.708426  0  0  -0.08937  0  3.956894  0  0  -0.093741  0  3.98462  0  0  -0.059432  -0.086337  0  3.938381  0
C  C57  1  0.61585458  0.18315987  0.71160082  1  0  -0.124232  0  3.708457  0  0  -0.089447  0  3.95694  0  0  -0.093818  0  3.984667  0  0  -0.059443  -0.086412  0  3.938428  0
C  C58  1  0.47704164  0.69645402  0.34398062  1  0  -0.10101  0  3.789591  0  0  -0.115486  0  4.032389  0  0  -0.11722  0  4.054197  0  0  -0.095793  -0.114284  0  4.017491  0
C  C59  1  0.52296047  0.30354484  0.65602005  1  0  -0.100968  0  3.789627  0  0  -0.115449  0  4.032429  0  0  -0.11719  0  4.054227  0  0  -0.09578  -0.114249  0  4.017533  0
C  C60  1  0.49619068  0.69162098  0.46362037  1  0  -0.070739  0  3.761172  0  0  -0.080533  0  4.003491  0  0  -0.083257  0  4.025477  0  0  -0.091039  -0.078593  0  3.988134  0
C  C61  1  0.50380961  0.30837580  0.53638323  1  0  -0.070837  0  3.761154  0  0  -0.080623  0  4.003474  0  0  -0.083339  0  4.025464  0  0  -0.091109  -0.078684  0  3.98812  0
C  C62  1  0.42468522  0.80685501  0.52647624  1  0  -0.067455  0  3.756256  0  0  -0.081684  0  4.002219  0  0  -0.082827  0  4.023221  0  0  -0.089472  -0.080507  0  3.987666  0
C  C63  1  0.57532562  0.19313759  0.47352595  1  0  -0.067407  0  3.756026  0  0  -0.081652  0  4.001996  0  0  -0.082795  0  4.022992  0  0  -0.089478  -0.080479  0  3.987443  0
C  C64  1  0.33194236  0.92687316  0.47085130  1  0  -0.069009  0  3.763602  0  0  -0.076961  0  4.004123  0  0  -0.07938  0  4.025415  0  0  -0.0896  -0.075128  0  3.989124  0
C  C65  1  0.66807066  0.07312468  0.52915596  1  0  -0.069088  0  3.763536  0  0  -0.077078  0  4.004043  0  0  -0.0795  0  4.025339  0  0  -0.089568  -0.075232  0  3.989037  0
C  C66  1  0.31075538  0.93174934  0.35239966  1  0  -0.081267  0  3.774832  0  0  -0.098445  0  4.013586  0  0  -0.09931  0  4.035334  0  0  -0.092052  -0.097727  0  3.998794  0
C  C67  1  0.68925708  0.06825058  0.64760275  1  0  -0.081257  0  3.774861  0  0  -0.098391  0  4.013619  0  0  -0.099254  0  4.035368  0  0  -0.092036  -0.097677  0  3.998821  0
C  C68  1  0.12777426  0.85447015  0.16658579  1  0  -0.107083  0  3.695905  0  0  -0.073335  0  3.944836  0  0  -0.077276  0  3.972423  0  0  -0.053605  -0.070502  0  3.926118  0
C  C69  1  0.87222576  0.14552767  0.83341584  1  0  -0.107029  0  3.696019  0  0  -0.073289  0  3.944952  0  0  -0.07723  0  3.972537  0  0  -0.053556  -0.070454  0  3.926234  0
C  C70  1  0.06105635  0.73731926  0.20530308  1  0  -0.085306  0  3.777211  0  0  -0.101106  0  4.016126  0  0  -0.10267  0  4.038428  0  0  -0.092601  -0.10015  0  4.001245  0
C  C71  1  0.93894512  0.26267751  0.79469387  1  0  -0.085349  0  3.77729  0  0  -0.101117  0  4.016205  0  0  -0.102683  0  4.038517  0  0  -0.092604  -0.100161  0  4.001325  0
C  C72  1  0.89347292  0.75458805  0.24337180  1  0  -0.069054  0  3.778074  0  0  -0.074957  0  4.015155  0  0  -0.077318  0  4.036921  0  0  -0.091803  -0.073593  0  4.000711  0
C  C73  1  0.10653147  0.24540663  0.75662566  1  0  -0.069147  0  3.778123  0  0  -0.075055  0  4.015215  0  0  -0.077421  0  4.036979  0  0  -0.091873  -0.073692  0  4.000773  0
C  C74  1  0.79280321  0.88859854  0.23992230  1  0  -0.081486  0  3.772153  0  0  -0.093528  0  4.01485  0  0  -0.094907  0  4.036213  0  0  -0.094091  -0.092468  0  4.000559  0
C  C75  1  0.20719736  0.11139719  0.76007880  1  0  -0.081505  0  3.772068  0  0  -0.093519  0  4.014773  0  0  -0.094897  0  4.036137  0  0  -0.094084  -0.092458  0  4.000482  0
C  C76  1  0.85980214  0.00565724  0.19725050  1  0  -0.065086  0  3.75148  0  0  -0.073408  0  3.993295  0  0  -0.075942  0  4.014461  0  0  -0.090351  -0.072057  0  3.979197  0
C  C77  1  0.14019988  0.99433744  0.80274772  1  0  -0.064934  0  3.75146  0  0  -0.073254  0  3.993258  0  0  -0.075788  0  4.014421  0  0  -0.090296  -0.071903  0  3.979163  0
C  C78  1  0.02707716  0.98838819  0.16179755  1  0  -0.07421  0  3.764147  0  0  -0.094226  0  4.003073  0  0  -0.095563  0  4.026892  0  0  -0.092482  -0.093034  0  3.986493  0
C  C79  1  0.97291877  0.01161172  0.83820395  1  0  -0.074288  0  3.764262  0  0  -0.094313  0  4.003196  0  0  -0.095651  0  4.027018  0  0  -0.092521  -0.093119  0  3.986614  0
N  N80  1  0.77301845  0.65387656  0.81828550  1  0  -0.335588  0  3.245878  0  0  -0.258325  0  3.512789  0  0  -0.275767  0  3.52806  0  0  -0.342373  -0.246677  0  3.502399  0
N  N81  1  0.22697666  0.34612647  0.18171096  1  0  -0.335604  0  3.245698  0  0  -0.258345  0  3.512687  0  0  -0.275781  0  3.527956  0  0  -0.3424  -0.246698  0  3.502303  0
Cl  Cl82  1  0.37097777  0.60996412  0.85754532  1  0  -0.577636  0  1.022234  0  0  -0.504438  0  1.334143  0  0  -0.52155  0  1.30836  0  0  -0.331366  -0.494037  0  1.352036  0
Cl  Cl83  1  0.62901907  0.39003684  0.14245560  1  0  -0.577659  0  1.022249  0  0  -0.504447  0  1.334144  0  0  -0.521559  0  1.308361  0  0  -0.331358  -0.49405  0  1.35204  0
