# generated using pymatgen
data_CdH7C10S2N5O
_symmetry_space_group_name_H-M   'P 1'
_cell_length_a   10.01162172
_cell_length_b   10.01159670
_cell_length_c   14.29923981
_cell_angle_alpha   104.01528017
_cell_angle_beta   104.01529331
_cell_angle_gamma   103.46135604
_symmetry_Int_Tables_number   1
_chemical_formula_structural   CdH7C10S2N5O
_chemical_formula_sum   'Cd4 H28 C40 S8 N20 O4'
_cell_volume   1282.89452923
_cell_formula_units_Z   4
loop_
 _symmetry_equiv_pos_site_id
 _symmetry_equiv_pos_as_xyz
  1  'x, y, z'
loop_
 _atom_site_type_symbol
 _atom_site_label
 _atom_site_symmetry_multiplicity
 _atom_site_fract_x
 _atom_site_fract_y
 _atom_site_fract_z
 _atom_site_occupancy
 _atom_site_hle17_bader_spin_density
 _atom_site_hle17_ddec_charge
 _atom_site_hle17_ddec_spin_density
 _atom_site_hle17_ddec_sum_bond_order
 _atom_site_hle17_magmom
 _atom_site_hse06_10hf_bader_spin_density
 _atom_site_hse06_10hf_ddec_charge
 _atom_site_hse06_10hf_ddec_spin_density
 _atom_site_hse06_10hf_ddec_sum_bond_order
 _atom_site_hse06_10hf_magmom
 _atom_site_hse06_bader_spin_density
 _atom_site_hse06_ddec_charge
 _atom_site_hse06_ddec_spin_density
 _atom_site_hse06_ddec_sum_bond_order
 _atom_site_hse06_magmom
 _atom_site_pbe_bader_spin_density
 _atom_site_pbe_cm5_charge
 _atom_site_pbe_ddec_charge
 _atom_site_pbe_ddec_spin_density
 _atom_site_pbe_ddec_sum_bond_order
 _atom_site_pbe_magmom
Cd  Cd0  1  0.29396909  0.70603325  0.75000101  1  0  0.971694  0  1.957718  0  0  0.795474  0  2.421331  0  0  0.839496  0  2.384852  0  0  0.732342  0.763742  0  2.446628  0
Cd  Cd1  1  0.70603317  0.29396644  0.24999941  1  0  0.971737  0  1.95769  0  0  0.795509  0  2.42132  0  0  0.83954  0  2.384826  0  0  0.732336  0.763778  0  2.446616  0
Cd  Cd2  1  0.49999823  0.00000103  0.49999693  1  0  0.937452  0  2.019557  0  0  0.759904  0  2.484299  0  0  0.804079  0  2.449708  0  0  0.719453  0.730459  0  2.505885  0
Cd  Cd3  1  0.00000016  0.49999991  0.00000336  1  0  0.93745  0  2.019594  0  0  0.75991  0  2.484337  0  0  0.804084  0  2.449746  0  0  0.719442  0.730472  0  2.50592  0
H  H4  1  0.83527834  0.20855619  0.60595660  1  0  0.086182  0  0.96155  0  0  0.089276  0  1.036089  0  0  0.091676  0  1.034028  0  0  0.111888  0.087514  0  1.037584  0
H  H5  1  0.79144364  0.16472361  0.89404312  1  0  0.08618  0  0.961563  0  0  0.089269  0  1.036099  0  0  0.09167  0  1.034035  0  0  0.111883  0.087507  0  1.037593  0
H  H6  1  0.16472868  0.79144888  0.39404341  1  0  0.086199  0  0.961511  0  0  0.089291  0  1.036049  0  0  0.091694  0  1.03399  0  0  0.111901  0.087527  0  1.037544  0
H  H7  1  0.20855113  0.83527506  0.10596077  1  0  0.086182  0  0.961521  0  0  0.08929  0  1.036036  0  0  0.091694  0  1.033976  0  0  0.11189  0.087527  0  1.03753  0
H  H8  1  0.66541561  0.76161613  0.49155297  1  0  0.079874  0  0.946204  0  0  0.08765  0  1.015192  0  0  0.09021  0  1.01246  0  0  0.111921  0.085878  0  1.016949  0
H  H9  1  0.23838593  0.33458504  0.00844348  1  0  0.079891  0  0.946169  0  0  0.087672  0  1.015165  0  0  0.090233  0  1.012429  0  0  0.11194  0.085898  0  1.016923  0
H  H10  1  0.33458213  0.23839221  0.50844463  1  0  0.079855  0  0.946186  0  0  0.087657  0  1.015159  0  0  0.090217  0  1.012427  0  0  0.111913  0.085882  0  1.016919  0
H  H11  1  0.76161014  0.66541465  0.99155380  1  0  0.079874  0  0.946135  0  0  0.087651  0  1.015135  0  0  0.090211  0  1.012402  0  0  0.111912  0.085879  0  1.016893  0
H  H12  1  0.90881999  0.73045604  0.56049510  1  0  0.112742  0  0.958447  0  0  0.11732  0  1.027503  0  0  0.12053  0  1.026765  0  0  0.103274  0.115095  0  1.028212  0
H  H13  1  0.26954437  0.09117661  0.93950299  1  0  0.112712  0  0.958442  0  0  0.117272  0  1.027515  0  0  0.120484  0  1.026775  0  0  0.103252  0.115047  0  1.028224  0
H  H14  1  0.09117231  0.26954475  0.43950243  1  0  0.11272  0  0.958502  0  0  0.117292  0  1.02755  0  0  0.120502  0  1.026812  0  0  0.103249  0.115069  0  1.028257  0
H  H15  1  0.73045273  0.90882307  0.06049376  1  0  0.112752  0  0.958474  0  0  0.117321  0  1.027526  0  0  0.120532  0  1.026788  0  0  0.10327  0.115097  0  1.028234  0
H  H16  1  0.12314744  0.95228679  0.65584509  1  0  0.118401  0  0.967522  0  0  0.126615  0  1.029943  0  0  0.129464  0  1.028006  0  0  0.110344  0.12477  0  1.030925  0
H  H17  1  0.04771150  0.87685162  0.84415768  1  0  0.118398  0  0.967506  0  0  0.126597  0  1.029948  0  0  0.129445  0  1.028011  0  0  0.110329  0.124747  0  1.030934  0
H  H18  1  0.87684766  0.04770969  0.34415639  1  0  0.118458  0  0.967433  0  0  0.126667  0  1.029852  0  0  0.129514  0  1.027918  0  0  0.110362  0.12482  0  1.030835  0
H  H19  1  0.95228493  0.12314916  0.15584124  1  0  0.118418  0  0.967453  0  0  0.126621  0  1.0299  0  0  0.12947  0  1.027962  0  0  0.11034  0.12477  0  1.030888  0
H  H20  1  0.50479731  0.54375626  0.88910528  1  0  0.133934  0  0.959319  0  0  0.148739  0  1.028412  0  0  0.15042  0  1.028384  0  0  0.098294  0.147524  0  1.028339  0
H  H21  1  0.45624825  0.49519913  0.61089272  1  0  0.133952  0  0.959242  0  0  0.148743  0  1.028365  0  0  0.150422  0  1.028339  0  0  0.098293  0.147527  0  1.028294  0
H  H22  1  0.49520495  0.45624668  0.11089638  1  0  0.13396  0  0.959291  0  0  0.148741  0  1.028403  0  0  0.150419  0  1.028379  0  0  0.098304  0.147524  0  1.028331  0
H  H23  1  0.54375162  0.50479622  0.38910517  1  0  0.133939  0  0.959292  0  0  0.148707  0  1.028429  0  0  0.150385  0  1.028406  0  0  0.098285  0.147489  0  1.028359  0
H  H24  1  0.53995801  0.38122612  0.82923374  1  0  0.144124  0  0.964492  0  0  0.15842  0  1.032347  0  0  0.160488  0  1.032299  0  0  0.09396  0.156515  0  1.033382  0
H  H25  1  0.61877751  0.46004165  0.67076680  1  0  0.144103  0  0.964525  0  0  0.158404  0  1.032376  0  0  0.160475  0  1.032325  0  0  0.093974  0.156502  0  1.033408  0
H  H26  1  0.46004563  0.61877791  0.17076972  1  0  0.144159  0  0.964497  0  0  0.158436  0  1.032361  0  0  0.160505  0  1.032311  0  0  0.093963  0.156533  0  1.033393  0
H  H27  1  0.38122373  0.53995478  0.32923220  1  0  0.14413  0  0.964534  0  0  0.15842  0  1.032379  0  0  0.160488  0  1.032329  0  0  0.093982  0.156517  0  1.03341  0
H  H28  1  0.45825751  0.38373706  0.92566160  1  0  0.142237  0  0.944022  0  0  0.161167  0  1.004804  0  0  0.162406  0  1.005435  0  0  0.103062  0.16044  0  1.00399  0
H  H29  1  0.61626807  0.54174249  0.57433993  1  0  0.142191  0  0.944036  0  0  0.161142  0  1.004811  0  0  0.162379  0  1.005443  0  0  0.103084  0.160415  0  1.003998  0
H  H30  1  0.54174611  0.61626696  0.07434047  1  0  0.14223  0  0.944022  0  0  0.161147  0  1.004826  0  0  0.162385  0  1.005458  0  0  0.103048  0.160419  0  1.004014  0
H  H31  1  0.38373282  0.45825611  0.42566007  1  0  0.142223  0  0.944032  0  0  0.161136  0  1.004837  0  0  0.162375  0  1.005467  0  0  0.103055  0.160409  0  1.004024  0
C  C32  1  0.85534404  0.10428411  0.59545285  1  0  0.119038  0  3.663208  0  0  0.078496  0  3.913178  0  0  0.086332  0  3.931056  0  0  0.057574  0.073324  0  3.900843  0
C  C33  1  0.89571782  0.14465469  0.90454742  1  0  0.119011  0  3.663377  0  0  0.078495  0  3.913293  0  0  0.086333  0  3.93117  0  0  0.057605  0.073324  0  3.900956  0
C  C34  1  0.14465854  0.89571991  0.40454835  1  0  0.119089  0  3.663241  0  0  0.078543  0  3.913202  0  0  0.086377  0  3.931086  0  0  0.057624  0.073378  0  3.900862  0
C  C35  1  0.10427865  0.85534286  0.09545446  1  0  0.119025  0  3.663344  0  0  0.078496  0  3.913301  0  0  0.086324  0  3.931187  0  0  0.057612  0.073331  0  3.90096  0
C  C36  1  0.76228983  0.85440892  0.53294539  1  0  0.130312  0  3.679024  0  0  0.091799  0  3.940643  0  0  0.100356  0  3.95668  0  0  0.043832  0.08685  0  3.929027  0
C  C37  1  0.14559317  0.23770672  0.96705221  1  0  0.130276  0  3.679055  0  0  0.091733  0  3.940699  0  0  0.10029  0  3.956739  0  0  0.043811  0.086784  0  3.929083  0
C  C38  1  0.23770692  0.14559620  0.46705431  1  0  0.130333  0  3.679044  0  0  0.091781  0  3.940678  0  0  0.100334  0  3.956717  0  0  0.043839  0.08683  0  3.929063  0
C  C39  1  0.85440429  0.76229080  0.03294564  1  0  0.130347  0  3.678921  0  0  0.091814  0  3.940561  0  0  0.100372  0  3.956598  0  0  0.043846  0.086865  0  3.928945  0
C  C40  1  0.89717127  0.83818238  0.57156442  1  0  -0.101612  0  3.714133  0  0  -0.115091  0  3.976217  0  0  -0.122059  0  3.996282  0  0  -0.079514  -0.111024  0  3.962361  0
C  C41  1  0.16181669  0.10282783  0.92843245  1  0  -0.101599  0  3.714217  0  0  -0.115048  0  3.976302  0  0  -0.122017  0  3.996367  0  0  -0.079498  -0.11098  0  3.962444  0
C  C42  1  0.10282446  0.16181948  0.42843457  1  0  -0.101624  0  3.714195  0  0  -0.115087  0  3.976301  0  0  -0.122052  0  3.996366  0  0  -0.079485  -0.11102  0  3.962443  0
C  C43  1  0.83818110  0.89717077  0.07156494  1  0  -0.101713  0  3.714309  0  0  -0.115167  0  3.976412  0  0  -0.122137  0  3.996478  0  0  -0.079527  -0.1111  0  3.962552  0
C  C44  1  0.01610645  0.96139595  0.62414922  1  0  -0.016582  0  3.638156  0  0  -0.047719  0  3.887052  0  0  -0.043273  0  3.904332  0  0  -0.058945  -0.049695  0  3.874245  0
C  C45  1  0.03860294  0.98388973  0.87585104  1  0  -0.016522  0  3.637981  0  0  -0.047656  0  3.886877  0  0  -0.043207  0  3.904155  0  0  -0.058922  -0.049634  0  3.87407  0
C  C46  1  0.98389137  0.03860267  0.37585168  1  0  -0.016584  0  3.638171  0  0  -0.047725  0  3.887088  0  0  -0.043275  0  3.904368  0  0  -0.058951  -0.049698  0  3.874278  0
C  C47  1  0.96139351  0.01610781  0.12414804  1  0  -0.016459  0  3.637973  0  0  -0.047588  0  3.886874  0  0  -0.043141  0  3.904152  0  0  -0.058883  -0.049561  0  3.874063  0
C  C48  1  0.99536222  0.09746259  0.63495681  1  0  -0.066286  0  3.803648  0  0  -0.043233  0  4.040616  0  0  -0.052177  0  4.064683  0  0  -0.002616  -0.037464  0  4.024244  0
C  C49  1  0.90253341  0.00463729  0.86504334  1  0  -0.066289  0  3.803701  0  0  -0.043238  0  4.040624  0  0  -0.052186  0  4.064695  0  0  -0.002627  -0.037469  0  4.024254  0
C  C50  1  0.00463835  0.90253820  0.36504630  1  0  -0.066446  0  3.803897  0  0  -0.04339  0  4.040858  0  0  -0.052345  0  4.064933  0  0  -0.002691  -0.037627  0  4.024485  0
C  C51  1  0.09746235  0.99536134  0.13495651  1  0  -0.066345  0  3.803683  0  0  -0.043342  0  4.040708  0  0  -0.052285  0  4.064777  0  0  -0.002651  -0.037577  0  4.024334  0
C  C52  1  0.11331074  0.23209743  0.68494396  1  0  0.35185  0  3.716761  0  0  0.313373  0  4.002565  0  0  0.331564  0  4.010691  0  0  0.223559  0.301327  0  3.997223  0
C  C53  1  0.76790320  0.88668803  0.81505586  1  0  0.351757  0  3.716972  0  0  0.313311  0  4.002726  0  0  0.331502  0  4.010854  0  0  0.223514  0.301263  0  3.997385  0
C  C54  1  0.88669085  0.76790335  0.31505862  1  0  0.352031  0  3.716659  0  0  0.313581  0  4.002423  0  0  0.331774  0  4.010545  0  0  0.223642  0.301533  0  3.997082  0
C  C55  1  0.23209188  0.11330842  0.18494282  1  0  0.351886  0  3.716749  0  0  0.313455  0  4.002512  0  0  0.331645  0  4.010639  0  0  0.223545  0.30141  0  3.997171  0
C  C56  1  0.32095021  0.37750114  0.78573720  1  0  0.489134  0  3.633405  0  0  0.46033  0  3.913166  0  0  0.480489  0  3.920755  0  0  0.234871  0.44642  0  3.908224  0
C  C57  1  0.62249616  0.67904534  0.71426014  1  0  0.489168  0  3.633417  0  0  0.460313  0  3.913255  0  0  0.480472  0  3.920844  0  0  0.234851  0.446401  0  3.908311  0
C  C58  1  0.67905342  0.62249963  0.21426432  1  0  0.489123  0  3.633302  0  0  0.460299  0  3.913079  0  0  0.480459  0  3.920667  0  0  0.234865  0.446388  0  3.908139  0
C  C59  1  0.37749961  0.32095003  0.28573777  1  0  0.489172  0  3.633367  0  0  0.460283  0  3.913229  0  0  0.480442  0  3.920817  0  0  0.23485  0.446374  0  3.908283  0
C  C60  1  0.46454998  0.42522449  0.86203183  1  0  -0.410152  0  3.68721  0  0  -0.488541  0  3.919983  0  0  -0.493678  0  3.925891  0  0  -0.233727  -0.484813  0  3.916322  0
C  C61  1  0.57477853  0.53544805  0.63796761  1  0  -0.410067  0  3.687312  0  0  -0.48847  0  3.920103  0  0  -0.493606  0  3.926011  0  0  -0.233738  -0.484742  0  3.916439  0
C  C62  1  0.53545331  0.57477845  0.13797000  1  0  -0.41017  0  3.687183  0  0  -0.488514  0  3.919988  0  0  -0.493648  0  3.925896  0  0  -0.233703  -0.484788  0  3.916324  0
C  C63  1  0.42522134  0.46454730  0.36203098  1  0  -0.410149  0  3.687295  0  0  -0.488459  0  3.92008  0  0  -0.493593  0  3.925987  0  0  -0.233722  -0.484736  0  3.916418  0
C  C64  1  0.42547302  0.01845809  0.72149420  1  0  0.326902  0  3.97056  0  0  0.29787  0  4.284876  0  0  0.321402  0  4.296436  0  0  0.149695  0.28181  0  4.276735  0
C  C65  1  0.98154876  0.57452886  0.77850802  1  0  0.326943  0  3.970537  0  0  0.297913  0  4.284857  0  0  0.321447  0  4.296415  0  0  0.149717  0.281854  0  4.276714  0
C  C66  1  0.57453432  0.98154478  0.27850130  1  0  0.326945  0  3.970266  0  0  0.297916  0  4.28458  0  0  0.321446  0  4.296143  0  0  0.149723  0.281855  0  4.276441  0
C  C67  1  0.01845665  0.42546108  0.22149409  1  0  0.326999  0  3.970294  0  0  0.297975  0  4.2846  0  0  0.321504  0  4.296161  0  0  0.149733  0.281913  0  4.276465  0
C  C68  1  0.32255553  0.69450102  0.52567207  1  0  0.290837  0  4.022516  0  0  0.27287  0  4.320652  0  0  0.294091  0  4.336612  0  0  0.145382  0.258642  0  4.309217  0
C  C69  1  0.30550361  0.67744710  0.97432829  1  0  0.290769  0  4.022569  0  0  0.272793  0  4.320728  0  0  0.294017  0  4.336691  0  0  0.145323  0.258564  0  4.309293  0
C  C70  1  0.67744263  0.30550195  0.47433100  1  0  0.291142  0  4.022458  0  0  0.273181  0  4.320562  0  0  0.294404  0  4.336513  0  0  0.145513  0.258954  0  4.309127  0
C  C71  1  0.69449964  0.32255907  0.02567127  1  0  0.291146  0  4.022408  0  0  0.273188  0  4.320522  0  0  0.294415  0  4.33647  0  0  0.145506  0.258965  0  4.309091  0
S  S72  1  0.54939921  0.13764429  0.70295351  1  0  -0.336328  0  2.15705  0  0  -0.304376  0  2.497395  0  0  -0.32177  0  2.49085  0  0  -0.146974  -0.293114  0  2.502798  0
S  S73  1  0.86235992  0.45059780  0.79704606  1  0  -0.336372  0  2.157127  0  0  -0.304421  0  2.497463  0  0  -0.321812  0  2.490907  0  0  -0.14701  -0.293173  0  2.502869  0
S  S74  1  0.45060197  0.86235860  0.29704166  1  0  -0.336298  0  2.157163  0  0  -0.30433  0  2.497481  0  0  -0.32172  0  2.490928  0  0  -0.14692  -0.293067  0  2.502883  0
S  S75  1  0.13764955  0.54939534  0.20295237  1  0  -0.33633  0  2.156957  0  0  -0.304377  0  2.497295  0  0  -0.321763  0  2.490734  0  0  -0.146932  -0.293126  0  2.502702  0
S  S76  1  0.19253436  0.58121683  0.54306436  1  0  -0.297944  0  2.172292  0  0  -0.268262  0  2.503826  0  0  -0.284102  0  2.497682  0  0  -0.124544  -0.257048  0  2.507576  0
S  S77  1  0.41878654  0.80746346  0.95694057  1  0  -0.297853  0  2.172517  0  0  -0.268168  0  2.50406  0  0  -0.284012  0  2.497928  0  0  -0.12449  -0.256951  0  2.507808  0
S  S78  1  0.80746926  0.41878720  0.45693840  1  0  -0.298077  0  2.172105  0  0  -0.268401  0  2.503633  0  0  -0.28424  0  2.49748  0  0  -0.124574  -0.257193  0  2.507383  0
S  S79  1  0.58120855  0.19253301  0.04306020  1  0  -0.298088  0  2.17215  0  0  -0.268407  0  2.503669  0  0  -0.284257  0  2.497528  0  0  -0.124558  -0.257197  0  2.507422  0
N  N80  1  0.74170950  0.98505922  0.54589537  1  0  -0.321503  0  3.27307  0  0  -0.243887  0  3.536205  0  0  -0.263971  0  3.55693  0  0  -0.323293  -0.230438  0  3.521203  0
N  N81  1  0.01494183  0.25829012  0.95410182  1  0  -0.321471  0  3.273027  0  0  -0.243853  0  3.536142  0  0  -0.263939  0  3.55687  0  0  -0.323306  -0.230406  0  3.521142  0
N  N82  1  0.25829067  0.01494696  0.45410368  1  0  -0.321502  0  3.27306  0  0  -0.243852  0  3.536181  0  0  -0.263935  0  3.556908  0  0  -0.323321  -0.230405  0  3.521181  0
N  N83  1  0.98505702  0.74170850  0.04589854  1  0  -0.321499  0  3.273036  0  0  -0.243876  0  3.536168  0  0  -0.26396  0  3.556895  0  0  -0.323337  -0.230431  0  3.521166  0
N  N84  1  0.11975533  0.35874203  0.67366115  1  0  -0.247953  0  2.928449  0  0  -0.235812  0  3.212311  0  0  -0.245429  0  3.228061  0  0  -0.216229  -0.229376  0  3.202104  0
N  N85  1  0.64125677  0.88024193  0.82633807  1  0  -0.247914  0  2.928476  0  0  -0.235785  0  3.212329  0  0  -0.245399  0  3.228077  0  0  -0.216234  -0.229351  0  3.202124  0
N  N86  1  0.88025103  0.64125763  0.32633854  1  0  -0.248058  0  2.928329  0  0  -0.235917  0  3.212167  0  0  -0.245537  0  3.227924  0  0  -0.21626  -0.229477  0  3.201955  0
N  N87  1  0.35873864  0.11975560  0.17366014  1  0  -0.247995  0  2.928483  0  0  -0.235857  0  3.21231  0  0  -0.245473  0  3.228063  0  0  -0.216212  -0.229422  0  3.202107  0
N  N88  1  0.25356636  0.45195120  0.73905284  1  0  -0.331828  0  3.110411  0  0  -0.277082  0  3.389148  0  0  -0.295685  0  3.406938  0  0  -0.234632  -0.264545  0  3.377169  0
N  N89  1  0.54804796  0.74643166  0.76094659  1  0  -0.331814  0  3.110367  0  0  -0.277049  0  3.389126  0  0  -0.295651  0  3.406915  0  0  -0.234617  -0.264514  0  3.377146  0
N  N90  1  0.74643691  0.54804846  0.26094494  1  0  -0.331831  0  3.110297  0  0  -0.277073  0  3.389042  0  0  -0.295678  0  3.40683  0  0  -0.234624  -0.264538  0  3.377064  0
N  N91  1  0.45194814  0.25356479  0.23905156  1  0  -0.331799  0  3.110392  0  0  -0.277024  0  3.389156  0  0  -0.295624  0  3.406946  0  0  -0.234606  -0.26449  0  3.377174  0
N  N92  1  0.33359962  0.93355144  0.73491337  1  0  -0.541354  0  2.869379  0  0  -0.48403  0  3.146054  0  0  -0.504916  0  3.150971  0  0  -0.397978  -0.469425  0  3.142495  0
N  N93  1  0.06645371  0.66640631  0.76509176  1  0  -0.541355  0  2.869338  0  0  -0.484016  0  3.145996  0  0  -0.504904  0  3.15091  0  0  -0.397963  -0.469411  0  3.142434  0
N  N94  1  0.66641150  0.06645361  0.26508592  1  0  -0.541427  0  2.869078  0  0  -0.484094  0  3.145747  0  0  -0.50498  0  3.150662  0  0  -0.398033  -0.469492  0  3.14219  0
N  N95  1  0.93354721  0.33358906  0.23490981  1  0  -0.541454  0  2.869334  0  0  -0.484126  0  3.146001  0  0  -0.505011  0  3.150916  0  0  -0.398042  -0.469515  0  3.142443  0
N  N96  1  0.41939739  0.77358057  0.51241902  1  0  -0.544827  0  2.881789  0  0  -0.488297  0  3.156974  0  0  -0.50933  0  3.165113  0  0  -0.405004  -0.474001  0  3.150966  0
N  N97  1  0.22642110  0.58060040  0.98758214  1  0  -0.544867  0  2.881616  0  0  -0.488338  0  3.156814  0  0  -0.509375  0  3.164957  0  0  -0.405013  -0.474047  0  3.150804  0
N  N98  1  0.58060448  0.22642451  0.48757944  1  0  -0.545053  0  2.882119  0  0  -0.488533  0  3.157324  0  0  -0.509567  0  3.165455  0  0  -0.405103  -0.474236  0  3.151309  0
N  N99  1  0.77357709  0.41939608  0.01242055  1  0  -0.545042  0  2.881988  0  0  -0.488523  0  3.157197  0  0  -0.509555  0  3.165326  0  0  -0.405101  -0.474226  0  3.151185  0
O  O100  1  0.23781166  0.23588938  0.75417602  1  0  -0.263754  0  2.285338  0  0  -0.185272  0  2.495291  0  0  -0.204815  0  2.498693  0  0  -0.090093  -0.172242  0  2.492915  0
O  O101  1  0.76410947  0.76218659  0.74582345  1  0  -0.263802  0  2.285451  0  0  -0.185315  0  2.495421  0  0  -0.20486  0  2.498825  0  0  -0.090074  -0.17228  0  2.493039  0
O  O102  1  0.76219061  0.76411358  0.24582774  1  0  -0.263792  0  2.285198  0  0  -0.185325  0  2.495189  0  0  -0.204869  0  2.498591  0  0  -0.090162  -0.172293  0  2.492809  0
O  O103  1  0.23588734  0.23780878  0.25417673  1  0  -0.263808  0  2.285317  0  0  -0.185323  0  2.495308  0  0  -0.204869  0  2.498713  0  0  -0.090137  -0.17229  0  2.492926  0
