# generated using pymatgen
data_TbH5C9O7
_symmetry_space_group_name_H-M   'P 1'
_cell_length_a   6.88121326
_cell_length_b   7.96403060
_cell_length_c   8.96829494
_cell_angle_alpha   98.49860784
_cell_angle_beta   99.71901019
_cell_angle_gamma   97.52001918
_symmetry_Int_Tables_number   1
_chemical_formula_structural   TbH5C9O7
_chemical_formula_sum   'Tb2 H10 C18 O14'
_cell_volume   472.94859876
_cell_formula_units_Z   2
loop_
 _symmetry_equiv_pos_site_id
 _symmetry_equiv_pos_as_xyz
  1  'x, y, z'
loop_
 _atom_site_type_symbol
 _atom_site_label
 _atom_site_symmetry_multiplicity
 _atom_site_fract_x
 _atom_site_fract_y
 _atom_site_fract_z
 _atom_site_occupancy
 _atom_site_hle17_bader_spin_density
 _atom_site_hle17_ddec_charge
 _atom_site_hle17_ddec_spin_density
 _atom_site_hle17_ddec_sum_bond_order
 _atom_site_hle17_magmom
 _atom_site_hse06_10hf_bader_spin_density
 _atom_site_hse06_10hf_ddec_charge
 _atom_site_hse06_10hf_ddec_spin_density
 _atom_site_hse06_10hf_ddec_sum_bond_order
 _atom_site_hse06_10hf_magmom
 _atom_site_hse06_bader_spin_density
 _atom_site_hse06_ddec_charge
 _atom_site_hse06_ddec_spin_density
 _atom_site_hse06_ddec_sum_bond_order
 _atom_site_hse06_magmom
 _atom_site_pbe_bader_spin_density
 _atom_site_pbe_cm5_charge
 _atom_site_pbe_ddec_charge
 _atom_site_pbe_ddec_spin_density
 _atom_site_pbe_ddec_sum_bond_order
 _atom_site_pbe_magmom
Tb  Tb0  1  0.69819814  0.20984884  0.97914535  1  0  2.318091  0  1.660165  0  0  2.246564  0  1.995216  0  0  2.292502  0  1.952959  0  0  1.556454  2.146923  0  2.14835  0
Tb  Tb1  1  0.30180217  0.79015066  0.02085494  1  0  2.318081  0  1.660179  0  0  2.246551  0  1.995234  0  0  2.292485  0  1.952975  0  0  1.556447  2.146907  0  2.14838  0
H  H2  1  0.33162842  0.37641359  0.01606274  1  0  0.446602  0  0.845734  0  0  0.417706  0  0.905126  0  0  0.428927  0  0.88865  0  0  0.307458  0.409732  0  0.916391  0
H  H3  1  0.66837042  0.62358590  0.98393624  1  0  0.446616  0  0.84572  0  0  0.417719  0  0.905111  0  0  0.42894  0  0.888635  0  0  0.307462  0.409746  0  0.916375  0
H  H4  1  0.33136734  0.20947870  0.09571624  1  0  0.433349  0  0.871266  0  0  0.402239  0  0.935837  0  0  0.41346  0  0.919393  0  0  0.302103  0.394439  0  0.946952  0
H  H5  1  0.66863297  0.79052079  0.90428182  1  0  0.433351  0  0.871265  0  0  0.402253  0  0.935821  0  0  0.413474  0  0.919377  0  0  0.30213  0.394453  0  0.946936  0
H  H6  1  0.33470694  0.12164986  0.46519831  1  0  0.119148  0  0.923354  0  0  0.130958  0  0.977703  0  0  0.134433  0  0.976114  0  0  0.117581  0.127936  0  0.980086  0
H  H7  1  0.66529459  0.87834835  0.53480309  1  0  0.119114  0  0.923389  0  0  0.130955  0  0.97771  0  0  0.134426  0  0.976124  0  0  0.117581  0.127938  0  0.980087  0
H  H8  1  0.71291950  0.35162440  0.59199555  1  0  0.112382  0  0.949723  0  0  0.121235  0  1.010502  0  0  0.125008  0  1.008098  0  0  0.108953  0.118051  0  1.013054  0
H  H9  1  0.28707983  0.64837767  0.40800494  1  0  0.112396  0  0.949698  0  0  0.121227  0  1.01051  0  0  0.125  0  1.008105  0  0  0.108951  0.118044  0  1.013061  0
H  H10  1  0.33309604  0.57756580  0.67440267  1  0  0.105858  0  0.954714  0  0  0.113166  0  1.020418  0  0  0.117381  0  1.016879  0  0  0.110858  0.110301  0  1.022077  0
H  H11  1  0.66690158  0.42243499  0.32559632  1  0  0.105833  0  0.954754  0  0  0.113137  0  1.020469  0  0  0.117353  0  1.016928  0  0  0.110853  0.110271  0  1.022127  0
C  C12  1  0.07472418  0.09339402  0.21053608  1  0  0.749678  0  3.79902  0  0  0.700763  0  4.094093  0  0  0.736625  0  4.079668  0  0  0.254337  0.676314  0  4.09931  0
C  C13  1  0.92527637  0.90660676  0.78946441  1  0  0.749643  0  3.799095  0  0  0.700772  0  4.094088  0  0  0.736635  0  4.079663  0  0  0.254361  0.676325  0  4.099305  0
C  C14  1  0.65244028  0.92519140  0.25229810  1  0  0.695779  0  3.855249  0  0  0.649387  0  4.152761  0  0  0.684321  0  4.141125  0  0  0.220534  0.625803  0  4.152924  0
C  C15  1  0.34756174  0.07480938  0.74770370  1  0  0.695897  0  3.85517  0  0  0.649499  0  4.152694  0  0  0.684432  0  4.141057  0  0  0.220588  0.625913  0  4.152858  0
C  C16  1  0.02661027  0.04163598  0.35620624  1  0  -0.040668  0  3.661667  0  0  -0.031043  0  3.900626  0  0  -0.034181  0  3.919106  0  0  0.010575  -0.029008  0  3.88935  0
C  C17  1  0.97339150  0.95836353  0.64379870  1  0  -0.040686  0  3.661615  0  0  -0.031055  0  3.900529  0  0  -0.034194  0  3.919009  0  0  0.010574  -0.029019  0  3.889253  0
C  C18  1  0.83521663  0.97276704  0.37646870  1  0  -0.046966  0  3.668941  0  0  -0.03365  0  3.9046  0  0  -0.038774  0  3.924613  0  0  0.006525  -0.030649  0  3.892625  0
C  C19  1  0.16478368  0.02723245  0.62353048  1  0  -0.046964  0  3.668936  0  0  -0.033644  0  3.904574  0  0  -0.038767  0  3.924589  0  0  0.00656  -0.030641  0  3.892595  0
C  C20  1  0.18692186  0.06708437  0.47985821  1  0  -0.057024  0  3.66146  0  0  -0.093931  0  3.916641  0  0  -0.094125  0  3.935614  0  0  -0.061968  -0.094991  0  3.90629  0
C  C21  1  0.81308165  0.93291640  0.52014155  1  0  -0.057001  0  3.661365  0  0  -0.093945  0  3.916552  0  0  -0.094136  0  3.935529  0  0  -0.06197  -0.095009  0  3.9062  0
C  C22  1  0.04837889  0.42237309  0.80729237  1  0  0.7446  0  3.805713  0  0  0.69496  0  4.102738  0  0  0.731081  0  4.089022  0  0  0.248239  0.672522  0  4.104517  0
C  C23  1  0.95162019  0.57762769  0.19270792  1  0  0.744597  0  3.805846  0  0  0.695025  0  4.10275  0  0  0.731152  0  4.089026  0  0  0.248274  0.672588  0  4.10453  0
C  C24  1  0.02484525  0.46199500  0.64830414  1  0  -0.061387  0  3.735717  0  0  -0.041196  0  3.96954  0  0  -0.048259  0  3.992946  0  0  -0.010947  -0.038775  0  3.955578  0
C  C25  1  0.97515235  0.53800579  0.35169596  1  0  -0.061538  0  3.735811  0  0  -0.041348  0  3.969608  0  0  -0.04842  0  3.993014  0  0  -0.010959  -0.038926  0  3.955644  0
C  C26  1  0.83729563  0.41639014  0.55024797  1  0  -0.066608  0  3.702811  0  0  -0.086928  0  3.94806  0  0  -0.088804  0  3.969708  0  0  -0.078558  -0.086035  0  3.935222  0
C  C27  1  0.16270664  0.58361192  0.44975180  1  0  -0.066499  0  3.70278  0  0  -0.08681  0  3.948017  0  0  -0.088683  0  3.969665  0  0  -0.07853  -0.085917  0  3.935177  0
C  C28  1  0.18764338  0.54513557  0.59742916  1  0  -0.070937  0  3.722942  0  0  -0.098016  0  3.980803  0  0  -0.098969  0  4.000693  0  0  -0.076916  -0.096506  0  3.966658  0
C  C29  1  0.81235570  0.45486520  0.40256891  1  0  -0.070794  0  3.722881  0  0  -0.097883  0  3.980754  0  0  -0.09883  0  4.000644  0  0  -0.076892  -0.096373  0  3.966608  0
O  O30  1  0.98190895  0.19952257  0.14907546  1  0  -0.732116  0  2.104412  0  0  -0.695646  0  2.362556  0  0  -0.720672  0  2.351434  0  0  -0.400609  -0.668409  0  2.372182  0
O  O31  1  0.01809137  0.80047692  0.85092371  1  0  -0.732111  0  2.104397  0  0  -0.695652  0  2.362509  0  0  -0.720674  0  2.35138  0  0  -0.400606  -0.668415  0  2.372136  0
O  O32  1  0.42034746  0.30592558  0.07037899  1  0  -0.917055  0  1.84829  0  0  -0.87794  0  2.034017  0  0  -0.896798  0  2.000754  0  0  -0.645821  -0.855375  0  2.061301  0
O  O33  1  0.57965310  0.69407520  0.92962150  1  0  -0.917056  0  1.848276  0  0  -0.877953  0  2.033992  0  0  -0.896811  0  2.000729  0  0  -0.64583  -0.855385  0  2.061278  0
O  O34  1  0.22153946  0.03708736  0.16036559  1  0  -0.739361  0  2.089669  0  0  -0.689874  0  2.334131  0  0  -0.715837  0  2.321939  0  0  -0.379533  -0.663693  0  2.344371  0
O  O35  1  0.77846061  0.96291085  0.83963450  1  0  -0.739308  0  2.089691  0  0  -0.689857  0  2.33414  0  0  -0.715821  0  2.321953  0  0  -0.379567  -0.663676  0  2.34438  0
O  O36  1  0.62049690  0.00960918  0.14117732  1  0  -0.822294  0  2.157376  0  0  -0.779112  0  2.413983  0  0  -0.804726  0  2.402889  0  0  -0.426694  -0.746769  0  2.421925  0
O  O37  1  0.37950365  0.99039161  0.85882540  1  0  -0.822329  0  2.157376  0  0  -0.779153  0  2.414006  0  0  -0.804767  0  2.402911  0  0  -0.426697  -0.74681  0  2.421946  0
O  O38  1  0.52674635  0.79606985  0.25879897  1  0  -0.669368  0  1.94215  0  0  -0.636293  0  2.178488  0  0  -0.658888  0  2.167661  0  0  -0.363496  -0.612158  0  2.186823  0
O  O39  1  0.47325838  0.20392963  0.74120078  1  0  -0.669431  0  1.942117  0  0  -0.636345  0  2.17844  0  0  -0.658949  0  2.167629  0  0  -0.363533  -0.612211  0  2.186776  0
O  O40  1  0.20213392  0.50100882  0.90773152  1  0  -0.759289  0  2.061247  0  0  -0.705802  0  2.306577  0  0  -0.731346  0  2.292254  0  0  -0.395083  -0.679455  0  2.31567  0
O  O41  1  0.79786492  0.49899067  0.09226746  1  0  -0.759314  0  2.061265  0  0  -0.705857  0  2.30657  0  0  -0.731409  0  2.292262  0  0  -0.395102  -0.679509  0  2.315663  0
O  O42  1  0.91749851  0.31130649  0.83560184  1  0  -0.742477  0  2.093081  0  0  -0.7076  0  2.358923  0  0  -0.732406  0  2.347119  0  0  -0.404037  -0.680256  0  2.368074  0
O  O43  1  0.08250180  0.68869300  0.16439845  1  0  -0.742434  0  2.093106  0  0  -0.707581  0  2.358912  0  0  -0.732389  0  2.347104  0  0  -0.40405  -0.680236  0  2.368065  0
