# generated using pymatgen
data_RbH3(CO)4
_symmetry_space_group_name_H-M   'P 1'
_cell_length_a   4.55575502
_cell_length_b   8.05229106
_cell_length_c   16.69119968
_cell_angle_alpha   90.00006144
_cell_angle_beta   90.00017846
_cell_angle_gamma   89.99998192
_symmetry_Int_Tables_number   1
_chemical_formula_structural   RbH3(CO)4
_chemical_formula_sum   'Rb4 H12 C16 O16'
_cell_volume   612.30439999
_cell_formula_units_Z   4
loop_
 _symmetry_equiv_pos_site_id
 _symmetry_equiv_pos_as_xyz
  1  'x, y, z'
loop_
 _atom_site_type_symbol
 _atom_site_label
 _atom_site_symmetry_multiplicity
 _atom_site_fract_x
 _atom_site_fract_y
 _atom_site_fract_z
 _atom_site_occupancy
 _atom_site_hle17_bader_spin_density
 _atom_site_hle17_ddec_charge
 _atom_site_hle17_ddec_spin_density
 _atom_site_hle17_ddec_sum_bond_order
 _atom_site_hle17_magmom
 _atom_site_hse06_10hf_bader_spin_density
 _atom_site_hse06_10hf_ddec_charge
 _atom_site_hse06_10hf_ddec_spin_density
 _atom_site_hse06_10hf_ddec_sum_bond_order
 _atom_site_hse06_10hf_magmom
 _atom_site_hse06_bader_spin_density
 _atom_site_hse06_ddec_charge
 _atom_site_hse06_ddec_spin_density
 _atom_site_hse06_ddec_sum_bond_order
 _atom_site_hse06_magmom
 _atom_site_pbe_bader_spin_density
 _atom_site_pbe_cm5_charge
 _atom_site_pbe_ddec_charge
 _atom_site_pbe_ddec_spin_density
 _atom_site_pbe_ddec_sum_bond_order
 _atom_site_pbe_magmom
Rb  Rb0  1  0.76099693  0.24935740  0.99881715  1  0  0.946379  0  0.499087  0  0  0.894452  0  0.708036  0  0  0.910367  0  0.683837  0  0  0.808124  0.882623  0  0.725252  0
Rb  Rb1  1  0.23900144  0.75064404  0.49881765  1  0  0.946366  0  0.499101  0  0  0.894444  0  0.70805  0  0  0.910354  0  0.683853  0  0  0.808129  0.882617  0  0.725268  0
Rb  Rb2  1  0.23900210  0.74935676  0.99881706  1  0  0.946377  0  0.499088  0  0  0.894453  0  0.708038  0  0  0.910365  0  0.683839  0  0  0.808129  0.882623  0  0.725254  0
Rb  Rb3  1  0.76100067  0.25064343  0.49881834  1  0  0.946363  0  0.499096  0  0  0.89444  0  0.708038  0  0  0.910352  0  0.683839  0  0  0.808118  0.882611  0  0.725254  0
H  H4  1  0.57374476  0.56558399  0.81917938  1  0  0.117583  0  0.945881  0  0  0.125548  0  1.006999  0  0  0.129618  0  1.00481  0  0  0.116529  0.122615  0  1.008726  0
H  H5  1  0.42626035  0.43441705  0.31917747  1  0  0.117589  0  0.945883  0  0  0.125557  0  1.006983  0  0  0.129626  0  1.004794  0  0  0.116527  0.122624  0  1.008712  0
H  H6  1  0.42626111  0.06558096  0.81917739  1  0  0.117578  0  0.945922  0  0  0.125551  0  1.007014  0  0  0.12962  0  1.004825  0  0  0.116522  0.122618  0  1.00874  0
H  H7  1  0.57374401  0.93441759  0.31917766  1  0  0.117562  0  0.945882  0  0  0.125524  0  1.006995  0  0  0.129594  0  1.004807  0  0  0.11652  0.122592  0  1.008724  0
H  H8  1  0.57474489  0.56678597  0.67906662  1  0  0.117442  0  0.946876  0  0  0.125141  0  1.008193  0  0  0.129161  0  1.00617  0  0  0.116297  0.122273  0  1.009781  0
H  H9  1  0.42525423  0.43321599  0.17906531  1  0  0.117451  0  0.946846  0  0  0.125149  0  1.008168  0  0  0.129166  0  1.006148  0  0  0.116314  0.122279  0  1.009756  0
H  H10  1  0.42525499  0.06678419  0.67906523  1  0  0.117463  0  0.946912  0  0  0.12515  0  1.008239  0  0  0.129169  0  1.006216  0  0  0.116325  0.122282  0  1.009825  0
H  H11  1  0.57474634  0.93321405  0.17906491  1  0  0.117412  0  0.946864  0  0  0.125114  0  1.008186  0  0  0.129134  0  1.006162  0  0  0.116298  0.122245  0  1.009773  0
H  H12  1  0.01529473  0.29190036  0.74789899  1  0  0.384778  0  0.935612  0  0  0.353857  0  1.012924  0  0  0.366681  0  0.996264  0  0  0.288163  0.344985  0  1.020106  0
H  H13  1  0.98470737  0.70809928  0.24789890  1  0  0.384799  0  0.935568  0  0  0.353881  0  1.012883  0  0  0.366704  0  0.996223  0  0  0.288178  0.34501  0  1.020056  0
H  H14  1  0.98470581  0.79189958  0.74789893  1  0  0.384786  0  0.935592  0  0  0.35387  0  1.0129  0  0  0.366693  0  0.996239  0  0  0.288168  0.344998  0  1.020077  0
H  H15  1  0.01529410  0.20809881  0.24789956  1  0  0.384781  0  0.935585  0  0  0.35386  0  1.012914  0  0  0.366682  0  0.996255  0  0  0.288172  0.344988  0  1.020081  0
C  C16  1  0.22128088  0.39603603  0.84672004  1  0  0.682755  0  3.895711  0  0  0.63967  0  4.193605  0  0  0.673965  0  4.182241  0  0  0.207053  0.616449  0  4.200652  0
C  C17  1  0.77871796  0.60396258  0.34671793  1  0  0.682705  0  3.895814  0  0  0.639611  0  4.193714  0  0  0.673901  0  4.182358  0  0  0.207054  0.616391  0  4.200766  0
C  C18  1  0.77872073  0.89603529  0.84671861  1  0  0.682725  0  3.895808  0  0  0.639632  0  4.193713  0  0  0.673919  0  4.182363  0  0  0.207042  0.616411  0  4.200763  0
C  C19  1  0.22128470  0.10396208  0.34671816  1  0  0.68267  0  3.895687  0  0  0.639543  0  4.193633  0  0  0.673846  0  4.182259  0  0  0.207023  0.616324  0  4.200685  0
C  C20  1  0.41057078  0.48840966  0.78922158  1  0  -0.148653  0  3.622983  0  0  -0.167835  0  3.879154  0  0  -0.172162  0  3.891651  0  0  -0.071052  -0.165008  0  3.870888  0
C  C21  1  0.58942741  0.51159131  0.28922166  1  0  -0.148652  0  3.622998  0  0  -0.167825  0  3.87917  0  0  -0.172151  0  3.891668  0  0  -0.071043  -0.165  0  3.870905  0
C  C22  1  0.58942574  0.98840896  0.78922239  1  0  -0.14873  0  3.623023  0  0  -0.167906  0  3.879203  0  0  -0.17223  0  3.8917  0  0  -0.071094  -0.165077  0  3.870937  0
C  C23  1  0.41057464  0.01158953  0.28922145  1  0  -0.148621  0  3.622976  0  0  -0.167785  0  3.879159  0  0  -0.172115  0  3.891654  0  0  -0.071048  -0.16496  0  3.870894  0
C  C24  1  0.41126834  0.48907895  0.70859287  1  0  -0.151176  0  3.623445  0  0  -0.169289  0  3.878863  0  0  -0.173894  0  3.891633  0  0  -0.072166  -0.166282  0  3.870374  0
C  C25  1  0.58872674  0.51092185  0.20859174  1  0  -0.151136  0  3.623324  0  0  -0.169239  0  3.878741  0  0  -0.173841  0  3.891513  0  0  -0.072177  -0.166229  0  3.870251  0
C  C26  1  0.58871848  0.98907824  0.70859247  1  0  -0.151088  0  3.623282  0  0  -0.169177  0  3.878691  0  0  -0.173785  0  3.891474  0  0  -0.072145  -0.166167  0  3.870197  0
C  C27  1  0.41127001  0.01092007  0.20859213  1  0  -0.151042  0  3.623383  0  0  -0.169151  0  3.878791  0  0  -0.173754  0  3.891566  0  0  -0.072121  -0.166143  0  3.870304  0
C  C28  1  0.22354283  0.39762046  0.65046333  1  0  0.682355  0  3.894513  0  0  0.639297  0  4.191964  0  0  0.673533  0  4.180649  0  0  0.206648  0.616086  0  4.199036  0
C  C29  1  0.77645816  0.60238269  0.15046181  1  0  0.68227  0  3.894712  0  0  0.639209  0  4.192173  0  0  0.673444  0  4.180862  0  0  0.206617  0.615997  0  4.199243  0
C  C30  1  0.77645654  0.89761848  0.65046190  1  0  0.68235  0  3.894544  0  0  0.639268  0  4.192044  0  0  0.673502  0  4.180731  0  0  0.206646  0.616057  0  4.199119  0
C  C31  1  0.22354007  0.10238095  0.15046264  1  0  0.682208  0  3.894583  0  0  0.639147  0  4.192057  0  0  0.673381  0  4.180744  0  0  0.206609  0.615934  0  4.199126  0
O  O32  1  0.26439160  0.41912892  0.92023725  1  0  -0.708645  0  1.940511  0  0  -0.667456  0  2.17842  0  0  -0.689173  0  2.166364  0  0  -0.459855  -0.652273  0  2.186275  0
O  O33  1  0.73561027  0.58087235  0.42023569  1  0  -0.70857  0  1.940562  0  0  -0.667399  0  2.178469  0  0  -0.689113  0  2.166417  0  0  -0.459817  -0.652218  0  2.186326  0
O  O34  1  0.73560864  0.91912819  0.92023578  1  0  -0.708603  0  1.940542  0  0  -0.667415  0  2.178457  0  0  -0.689128  0  2.166406  0  0  -0.459824  -0.65223  0  2.186311  0
O  O35  1  0.26439323  0.08086935  0.42023655  1  0  -0.708589  0  1.940499  0  0  -0.667399  0  2.178405  0  0  -0.689116  0  2.166346  0  0  -0.459839  -0.652219  0  2.186262  0
O  O36  1  0.02151365  0.29382412  0.82042104  1  0  -0.60874  0  2.047452  0  0  -0.554535  0  2.268121  0  0  -0.581168  0  2.257274  0  0  -0.339584  -0.53607  0  2.272977  0
O  O37  1  0.97848928  0.70617568  0.32042095  1  0  -0.608783  0  2.047405  0  0  -0.554572  0  2.268084  0  0  -0.581203  0  2.25724  0  0  -0.339632  -0.536106  0  2.272933  0
O  O38  1  0.97848771  0.79382334  0.82042098  1  0  -0.608757  0  2.047424  0  0  -0.554557  0  2.268105  0  0  -0.581186  0  2.257262  0  0  -0.339615  -0.536092  0  2.27296  0
O  O39  1  0.02151302  0.20617397  0.32042041  1  0  -0.608752  0  2.047404  0  0  -0.554528  0  2.268096  0  0  -0.581164  0  2.25725  0  0  -0.339592  -0.536052  0  2.272923  0
O  O40  1  0.02355201  0.29449582  0.67596468  1  0  -0.607731  0  2.051978  0  0  -0.553595  0  2.272473  0  0  -0.580057  0  2.261259  0  0  -0.341124  -0.535263  0  2.277589  0
O  O41  1  0.97644708  0.70550491  0.17596398  1  0  -0.607684  0  2.052054  0  0  -0.553564  0  2.272584  0  0  -0.580027  0  2.261373  0  0  -0.341116  -0.535232  0  2.277693  0
O  O42  1  0.97644991  0.79449504  0.67596402  1  0  -0.607743  0  2.051946  0  0  -0.553607  0  2.272478  0  0  -0.580069  0  2.261266  0  0  -0.341143  -0.535276  0  2.277594  0
O  O43  1  0.02355357  0.20550444  0.17596465  1  0  -0.607699  0  2.051974  0  0  -0.553571  0  2.272499  0  0  -0.580033  0  2.261288  0  0  -0.341147  -0.535239  0  2.277603  0
O  O44  1  0.26772170  0.42189918  0.57712351  1  0  -0.706336  0  1.942888  0  0  -0.665246  0  2.180828  0  0  -0.686858  0  2.168778  0  0  -0.459031  -0.650131  0  2.188703  0
O  O45  1  0.73227627  0.57810257  0.07712254  1  0  -0.706362  0  1.94303  0  0  -0.665259  0  2.180983  0  0  -0.686871  0  2.168932  0  0  -0.459029  -0.650143  0  2.188856  0
O  O46  1  0.73227902  0.92189845  0.57712264  1  0  -0.706355  0  1.943035  0  0  -0.665257  0  2.180996  0  0  -0.686868  0  2.168946  0  0  -0.459012  -0.650142  0  2.188874  0
O  O47  1  0.26772113  0.07810206  0.07712221  1  0  -0.7063  0  1.942927  0  0  -0.665197  0  2.180881  0  0  -0.68681  0  2.16883  0  0  -0.459  -0.65008  0  2.188754  0
