# generated using pymatgen
data_FeH9C7O3
_symmetry_space_group_name_H-M   'P 1'
_cell_length_a   6.63322394
_cell_length_b   15.49465296
_cell_length_c   15.42888499
_cell_angle_alpha   117.87290238
_cell_angle_beta   98.45254463
_cell_angle_gamma   97.87298464
_symmetry_Int_Tables_number   1
_chemical_formula_structural   FeH9C7O3
_chemical_formula_sum   'Fe6 H54 C42 O18'
_cell_volume   1347.66244083
_cell_formula_units_Z   6
loop_
 _symmetry_equiv_pos_site_id
 _symmetry_equiv_pos_as_xyz
  1  'x, y, z'
loop_
 _atom_site_type_symbol
 _atom_site_label
 _atom_site_symmetry_multiplicity
 _atom_site_fract_x
 _atom_site_fract_y
 _atom_site_fract_z
 _atom_site_occupancy
 _atom_site_pbe_bader_charge
 _atom_site_pbe_bader_spin_density
 _atom_site_pbe_cm5_charge
 _atom_site_pbe_ddec_charge
 _atom_site_pbe_ddec_spin_density
 _atom_site_pbe_ddec_sum_bond_order
 _atom_site_pbe_magmom
Fe  Fe0  1  0.51818048  0.39917540  0.72484707  1  1.358222  3.583419  0.669315  0.897329  3.801472  2.619474  3.54
Fe  Fe1  1  0.78999597  0.27392436  0.67908730  1  1.363884  3.598665  0.674768  0.908769  3.818352  2.61817  3.556
Fe  Fe2  1  0.11528298  0.32222322  0.59878565  1  1.369165  3.606536  0.681049  0.921514  3.827316  2.61062  3.562
Fe  Fe3  1  0.48760961  0.60037052  0.27794090  1  1.364756  3.591197  0.671327  0.895139  3.812418  2.644117  3.549
Fe  Fe4  1  0.21192240  0.72920127  0.32399458  1  1.386865  3.627907  0.689445  0.938983  3.854329  2.584361  3.584
Fe  Fe5  1  0.87616648  0.67778256  0.40297617  1  1.355325  3.581305  0.66896  0.900222  3.797243  2.607178  3.538
H  H6  1  0.81868404  0.46037620  0.44097345  1  0.13534  0.000761  0.113115  0.134451  1.6e-05  1.005616  0.0
H  H7  1  0.38095264  0.55977410  0.02180556  1  0.125166  0.000738  0.112328  0.133257  -8e-06  1.006275  0.0
H  H8  1  0.35789182  0.97770822  0.54006820  1  0.120335  0.000783  0.111892  0.13333  3.4e-05  1.007473  0.0
H  H9  1  0.17860730  0.53843709  0.56004633  1  0.121418  0.000739  0.112593  0.133382  -1.2e-05  1.00646  0.0
H  H10  1  0.62354019  0.44142558  0.98198875  1  0.090366  0.000772  0.112561  0.13408  -5e-06  1.005482  0.0
H  H11  1  0.64271758  0.02308778  0.46125231  1  0.091682  0.000749  0.112142  0.133783  -1e-06  1.006656  0.0
H  H12  1  0.13280172  0.14383227  0.40901233  1  0.005384  0.000495  0.083961  0.067446  0.000134  1.017917  0.0
H  H13  1  0.72173699  0.58195958  0.73227294  1  0.009403  0.000814  0.083555  0.066873  0.000316  1.025416  0.001
H  H14  1  0.99445604  0.26564168  0.85988148  1  0.027655  0.00036  0.083522  0.066234  0.000117  1.020543  0.0
H  H15  1  0.85833128  0.85319805  0.58517717  1  0.035053  0.000806  0.08417  0.067005  0.000263  1.023845  0.001
H  H16  1  0.27856476  0.40928705  0.26751236  1  0.046566  0.000257  0.084258  0.067551  5.5e-05  1.017802  0.0
H  H17  1  0.00901833  0.73475277  0.14449568  1  0.03295  0.000611  0.083892  0.066487  0.000255  1.020504  0.0
H  H18  1  0.24476777  0.27075976  0.44722826  1  -0.001006  0.006905  0.078183  0.051199  0.002793  1.042661  0.002
H  H19  1  0.80214472  0.54983336  0.82634211  1  -0.023519  0.006941  0.078595  0.053336  0.002755  1.041913  0.002
H  H20  1  0.97384056  0.17790110  0.73115322  1  -0.027432  0.007617  0.077825  0.050334  0.003062  1.04506  0.002
H  H21  1  0.74591431  0.72704694  0.55047886  1  -0.022207  0.007679  0.077982  0.049946  0.003064  1.047615  0.002
H  H22  1  0.20853119  0.45271006  0.18179190  1  -0.043555  0.007913  0.076708  0.04878  0.003164  1.0471  0.002
H  H23  1  0.02570573  0.82635112  0.27158191  1  -0.052402  0.007344  0.078419  0.050774  0.002788  1.043028  0.002
H  H24  1  0.52488988  0.17528864  0.43353216  1  0.027107  0.000117  0.08393  0.11995  -0.000371  1.020269  0.0
H  H25  1  0.09329108  0.56270135  0.74304441  1  0.024269  0.000149  0.083107  0.117626  -0.000328  1.023872  0.0
H  H26  1  0.35100003  0.25605033  0.82442230  1  0.029569  0.000167  0.08331  0.11871  -0.000328  1.020365  0.0
H  H27  1  0.46838166  0.82428518  0.56629705  1  0.036754  0.000145  0.083423  0.118675  -0.000361  1.023011  0.0
H  H28  1  0.91301908  0.43744184  0.26148804  1  0.040319  0.000152  0.083512  0.118975  -0.000313  1.020685  0.0
H  H29  1  0.65016288  0.74456597  0.17661814  1  0.034659  0.000105  0.08354  0.120284  -0.000406  1.019515  0.0
H  H30  1  0.39867623  0.08874327  0.30531414  1  0.029745  0.000928  0.085439  0.111796  0.000338  1.022618  0.001
H  H31  1  0.08554067  0.68844881  0.77867840  1  0.027799  0.000861  0.085005  0.111279  0.000298  1.023946  0.0
H  H32  1  0.31455092  0.21222708  0.90974313  1  0.017213  0.001049  0.085134  0.111406  0.000379  1.022561  0.001
H  H33  1  0.60141741  0.91204445  0.69323568  1  0.044274  0.001049  0.085752  0.112408  0.000371  1.02254  0.001
H  H34  1  0.90686036  0.30868190  0.21616244  1  0.025485  0.001016  0.085551  0.112156  0.00036  1.022699  0.001
H  H35  1  0.68822984  0.78348141  0.08778446  1  0.048238  0.00097  0.084917  0.111008  0.000362  1.023908  0.001
H  H36  1  0.50769698  0.21582122  0.34304438  1  0.017495  9.3e-05  0.082621  0.11055  -4.1e-05  1.010947  0.0
H  H37  1  0.16392235  0.65614472  0.87274040  1  0.029771  0.000124  0.082867  0.11091  -2.5e-05  1.010424  0.0
H  H38  1  0.29114747  0.12508532  0.78055868  1  0.048252  6.1e-05  0.082824  0.110826  -7.6e-05  1.012758  0.0
H  H39  1  0.49147058  0.78589328  0.65845195  1  0.007855  0.000123  0.083011  0.110333  -2.3e-05  1.010199  0.0
H  H40  1  0.83907535  0.35135095  0.12957711  1  0.050957  7.1e-05  0.082852  0.111059  -6.1e-05  1.012581  0.0
H  H41  1  0.70719668  0.87441608  0.21520119  1  0.019709  6.7e-05  0.082618  0.110159  -7.2e-05  1.010956  0.0
H  H42  1  0.02327130  0.10598323  0.22953198  1  0.021539  0.000673  0.08312  0.10606  0.000226  1.022262  0.0
H  H43  1  0.78011645  0.76202176  0.86659480  1  0.011988  0.000585  0.083658  0.106433  0.000187  1.022258  0.0
H  H44  1  0.92557724  0.12334458  0.89603486  1  0.025143  0.000751  0.084021  0.107613  0.000255  1.01903  0.0
H  H45  1  0.98020730  0.89488967  0.76499398  1  0.037968  0.000697  0.084189  0.107859  0.00023  1.020644  0.0
H  H46  1  0.20211834  0.23277649  0.12158977  1  0.017817  0.000772  0.083781  0.107145  0.00026  1.020304  0.0
H  H47  1  0.07798063  0.87133763  0.10081031  1  0.005495  0.000669  0.083644  0.106397  0.000225  1.021687  0.0
H  H48  1  0.14362423  0.23167014  0.26708174  1  0.024819  5.4e-05  0.084952  0.11389  -3.9e-05  1.025297  0.0
H  H49  1  0.86991158  0.73120025  0.96035898  1  0.033645  6.4e-05  0.084563  0.113436  -3.4e-05  1.027527  0.0
H  H50  1  0.91232407  0.03640336  0.76808960  1  0.041027  3.7e-05  0.084951  0.113931  -5e-05  1.0253  0.0
H  H51  1  0.85995485  0.77046060  0.73162880  1  0.025961  8.7e-05  0.08475  0.113006  -2.5e-05  1.025908  0.0
H  H52  1  0.12551518  0.27617878  0.03666509  1  0.015859  3.2e-05  0.085178  0.115112  -5.8e-05  1.02279  0.0
H  H53  1  0.08581301  0.96249859  0.22650062  1  0.017427  6.4e-05  0.085432  0.114789  -3.1e-05  1.02404  0.0
H  H54  1  0.92192852  0.20644182  0.31118410  1  0.026925  8e-05  0.086681  0.117423  -8.8e-05  1.011126  0.0
H  H55  1  0.60425132  0.68218975  0.88985990  1  0.025892  9.8e-05  0.086513  0.117184  -7.8e-05  1.012223  0.0
H  H56  1  0.71976541  0.10807476  0.79833187  1  0.025586  8.9e-05  0.086389  0.117149  -7.9e-05  1.010555  0.0
H  H57  1  0.07602269  0.79247636  0.68272623  1  0.02037  0.000114  0.086958  0.118061  -7.7e-05  1.011472  0.0
H  H58  1  0.39053004  0.31512273  0.10668714  1  0.047218  9.7e-05  0.086919  0.118004  -7.3e-05  1.00939  0.0
H  H59  1  0.28149741  0.89213982  0.20220820  1  0.02134  4.6e-05  0.086897  0.117275  -0.000118  1.011528  0.0
C  C60  1  0.74995556  0.39088139  0.56158095  1  1.479129  -0.00455  0.23231  0.621477  -0.00656  4.083408  -0.001
C  C61  1  0.19005426  0.43583493  0.83166179  1  1.492117  -0.001312  0.232524  0.621572  -0.003055  4.077816  0.001
C  C62  1  0.35928651  0.16771331  0.60728038  1  1.444104  -0.011477  0.23097  0.618077  -0.014571  4.078881  -0.006
C  C63  1  0.24963952  0.60930943  0.43961908  1  1.489654  0.002835  0.235076  0.624506  0.001031  4.073368  0.004
C  C64  1  0.81548643  0.56473528  0.17200018  1  1.476824  -0.003296  0.233169  0.61956  -0.005465  4.080053  0.0
C  C65  1  0.64202959  0.83312866  0.39145548  1  1.450561  -0.020179  0.226592  0.614236  -0.025069  4.086312  -0.012
C  C66  1  0.61654288  0.44563465  0.53227986  1  -0.009811  0.012676  -0.025671  -0.150714  0.004367  3.974581  0.01
C  C67  1  0.08766501  0.46702718  0.91634336  1  -0.077206  0.013199  -0.025691  -0.151177  0.004911  3.967766  0.01
C  C68  1  0.17220860  0.08456103  0.55368159  1  0.017201  0.008301  -0.026665  -0.151709  0.001353  3.970362  0.007
C  C69  1  0.38111171  0.55333604  0.46882038  1  -0.06128  0.01277  -0.025205  -0.151934  0.004965  3.964301  0.009
C  C70  1  0.91686474  0.53403258  0.08728157  1  -0.036155  0.01296  -0.026315  -0.153386  0.004727  3.977815  0.01
C  C71  1  0.82852273  0.91620956  0.44703026  1  -0.031696  0.011299  -0.026216  -0.148557  0.002578  3.977603  0.01
C  C72  1  0.43123300  0.46765480  0.56785047  1  0.584451  0.009587  0.080184  0.309982  0.005566  4.065824  0.006
C  C73  1  0.86733061  0.43176783  0.90328306  1  0.575075  0.009403  0.079596  0.309247  0.0055  4.07541  0.006
C  C74  1  0.96541614  0.09921717  0.53163048  1  0.591027  0.009275  0.079446  0.309649  0.005312  4.074019  0.007
C  C75  1  0.56635413  0.53104421  0.43352463  1  0.549736  0.009791  0.079627  0.310497  0.005703  4.076134  0.007
C  C76  1  0.13689778  0.56962670  0.10042900  1  0.571977  0.010427  0.079566  0.309158  0.005913  4.076476  0.007
C  C77  1  0.03511316  0.90138941  0.46944321  1  0.599707  0.006739  0.078152  0.303754  0.003789  4.068913  0.005
C  C78  1  0.67762222  0.47755904  0.46681570  1  -0.036997  0.011663  -0.092615  -0.187777  0.005189  3.932232  0.008
C  C79  1  0.21440413  0.53407656  0.01341076  1  0.017084  0.014539  -0.091492  -0.18545  0.006605  3.922863  0.01
C  C80  1  0.20015063  0.98710602  0.52260281  1  -0.045371  0.011723  -0.093724  -0.19  0.005059  3.929004  0.008
C  C81  1  0.31953916  0.52106274  0.53410081  1  0.028498  0.017706  -0.091519  -0.186076  0.008063  3.918329  0.012
C  C82  1  0.79001567  0.46709604  0.99023973  1  0.06875  0.013217  -0.091731  -0.186642  0.006  3.926177  0.009
C  C83  1  0.80032614  0.01355786  0.47865242  1  -0.017691  0.006728  -0.094145  -0.191379  0.002779  3.93157  0.005
C  C84  1  0.21300193  0.19245581  0.38443981  1  0.00912  0.011616  -0.166537  -0.036505  0.005945  3.960973  0.009
C  C85  1  0.82718239  0.61000549  0.80667815  1  0.004734  0.01117  -0.168553  -0.042436  0.005904  3.963459  0.008
C  C86  1  0.02330803  0.19228259  0.80942744  1  -0.015021  0.012395  -0.166362  -0.03693  0.0064  3.963949  0.01
C  C87  1  0.78127907  0.80616390  0.61220804  1  -0.011489  0.013422  -0.166299  -0.039011  0.006932  3.959861  0.01
C  C88  1  0.17455419  0.38820394  0.19476081  1  -0.017091  0.012109  -0.167174  -0.037023  0.00633  3.960566  0.009
C  C89  1  0.97803548  0.80850211  0.19202958  1  0.005037  0.011933  -0.167155  -0.038896  0.006275  3.961319  0.009
C  C90  1  0.42253590  0.16681088  0.36584886  1  -0.075259  0.001506  -0.250247  -0.36155  0.000317  3.93769  0.001
C  C91  1  0.05470326  0.63014361  0.79979746  1  -0.064035  0.001618  -0.248981  -0.358271  0.000388  3.938653  0.001
C  C92  1  0.25777403  0.19679754  0.83214085  1  -0.076596  0.001571  -0.248697  -0.35948  0.000326  3.940477  0.001
C  C93  1  0.57415640  0.83343531  0.63343024  1  -0.081226  0.001801  -0.248568  -0.357746  0.000454  3.934164  0.001
C  C94  1  0.94609128  0.37076670  0.20098194  1  -0.101819  0.001523  -0.249971  -0.360868  0.00035  3.936827  0.001
C  C95  1  0.74307694  0.80225390  0.16666273  1  -0.081402  0.001568  -0.248486  -0.358569  0.000297  3.935256  0.001
C  C96  1  0.06695170  0.18363920  0.29304218  1  -0.075954  0.000731  -0.245869  -0.361141  0.00014  3.953482  0.0
C  C97  1  0.76657273  0.70137056  0.88518106  1  -0.07089  0.000757  -0.244958  -0.357757  0.000142  3.950545  0.0
C  C98  1  0.88729605  0.11057566  0.81850507  1  -0.084624  0.00073  -0.245166  -0.360345  0.000136  3.952069  0.0
C  C99  1  0.93321109  0.81655735  0.70286654  1  -0.082106  0.00083  -0.2456  -0.359812  0.000168  3.947521  0.0
C  C100  1  0.22656059  0.29814145  0.11029944  1  -0.07282  0.000732  -0.2452  -0.361516  0.000137  3.950481  0.0
C  C101  1  0.11377020  0.88796493  0.17972477  1  -0.039874  0.000728  -0.24578  -0.359996  0.000119  3.949838  0.0
O  O102  1  0.70102616  0.36497157  0.62598517  1  -1.189518  0.128496  -0.334235  -0.586858  0.061149  2.684413  0.103
O  O103  1  0.07607470  0.36951896  0.74202333  1  -1.195332  0.1272  -0.33298  -0.588712  0.060795  2.666536  0.101
O  O104  1  0.33593683  0.25743071  0.63059078  1  -1.183665  0.130097  -0.335154  -0.588947  0.062214  2.681956  0.105
O  O105  1  0.30475768  0.63786736  0.37770951  1  -1.186138  0.130322  -0.331902  -0.586665  0.061884  2.643874  0.102
O  O106  1  0.93049345  0.62936868  0.26182818  1  -1.189747  0.130323  -0.330056  -0.581394  0.06206  2.662268  0.104
O  O107  1  0.66757125  0.74294511  0.36241922  1  -1.184643  0.131489  -0.334166  -0.588297  0.062389  2.707387  0.111
O  O108  1  0.91034121  0.37003816  0.52724366  1  -1.151956  0.071167  -0.297238  -0.509322  0.032834  2.295888  0.048
O  O109  1  0.38322705  0.47067157  0.84390543  1  -1.157804  0.071266  -0.294083  -0.504893  0.032849  2.29736  0.048
O  O110  1  0.54094950  0.15498341  0.63016188  1  -1.149046  0.072546  -0.297763  -0.50748  0.033593  2.297341  0.049
O  O111  1  0.08810866  0.62929505  0.47268194  1  -1.155545  0.070459  -0.292926  -0.504592  0.032408  2.296442  0.049
O  O112  1  0.62153360  0.53056965  0.15961270  1  -1.157988  0.076109  -0.296517  -0.503758  0.035152  2.300595  0.052
O  O113  1  0.45914843  0.84675685  0.37210840  1  -1.15292  0.071657  -0.301811  -0.514059  0.033026  2.302326  0.048
O  O114  1  0.36041284  0.44164196  0.63184284  1  -1.168031  0.148082  -0.35735  -0.5784  0.070958  2.531328  0.119
O  O115  1  0.73127876  0.36734436  0.81392467  1  -1.173238  0.147465  -0.358848  -0.579366  0.070459  2.546038  0.12
O  O116  1  0.91988532  0.18891556  0.55778885  1  -1.162499  0.147386  -0.358343  -0.578995  0.070685  2.532917  0.119
O  O117  1  0.63978686  0.55740380  0.37024063  1  -1.170316  0.148869  -0.36136  -0.580343  0.071186  2.562223  0.121
O  O118  1  0.27202493  0.63472068  0.18974085  1  -1.171265  0.146507  -0.356572  -0.578524  0.070241  2.530149  0.117
O  O119  1  0.07929744  0.81127070  0.44367321  1  -1.163628  0.146224  -0.357886  -0.577539  0.070421  2.512512  0.115
