# generated using pymatgen
data_Al6H69C85ClO28
_symmetry_space_group_name_H-M   'P 1'
_cell_length_a   12.61195106
_cell_length_b   12.77556126
_cell_length_c   28.48972726
_cell_angle_alpha   90.05167256
_cell_angle_beta   89.23798681
_cell_angle_gamma   119.73174520
_symmetry_Int_Tables_number   1
_chemical_formula_structural   Al6H69C85ClO28
_chemical_formula_sum   'Al6 H69 C85 Cl1 O28'
_cell_volume   3985.66738630
_cell_formula_units_Z   1
loop_
 _symmetry_equiv_pos_site_id
 _symmetry_equiv_pos_as_xyz
  1  'x, y, z'
loop_
 _atom_site_type_symbol
 _atom_site_label
 _atom_site_symmetry_multiplicity
 _atom_site_fract_x
 _atom_site_fract_y
 _atom_site_fract_z
 _atom_site_occupancy
 _atom_site_pbe_bader_charge
 _atom_site_pbe_bader_spin_density
 _atom_site_pbe_cm5_charge
 _atom_site_pbe_ddec_charge
 _atom_site_pbe_ddec_spin_density
 _atom_site_pbe_ddec_sum_bond_order
 _atom_site_pbe_magmom
Al  Al0  1  0.18492604  0.59174469  0.49778172  1  2.491488  0  0.397073  1.684455  0  2.555213  0
Al  Al1  1  0.92502634  0.58175856  0.50006358  1  2.48512  0  0.507763  1.660019  0  2.509556  0
Al  Al2  1  0.92562976  0.34732068  0.50020489  1  2.478523  0  0.506723  1.662391  0  2.510144  0
Al  Al3  1  0.14747522  0.06991885  0.99771640  1  2.491504  0  0.396998  1.684064  0  2.556513  0
Al  Al4  1  0.40277682  0.31902523  0.99968176  1  2.482063  0  0.507345  1.663592  0  2.509171  0
Al  Al5  1  0.41135020  0.08845149  0.99889058  1  2.482955  0  0.508882  1.660431  0  2.509045  0
H  H6  1  0.84139609  0.44584070  0.20570438  1  0.053522  0  0.103449  0.092616  0  0.9982  0
H  H7  1  0.35176893  0.48214467  0.21212934  1  0.017719  0  0.093816  0.090603  0  0.985119  0
H  H8  1  0.24409873  0.72427126  0.20332488  1  0.037348  0  0.095774  0.097563  0  0.982143  0
H  H9  1  0.74517299  0.54363098  0.27255269  1  0.095243  0  0.104262  0.094224  0  0.993  0
H  H10  1  0.22547225  0.70216988  0.28406740  1  0.026241  0  0.09748  0.063369  0  0.967802  0
H  H11  1  0.28325047  0.00809533  0.30233943  1  0.014469  0  0.092111  0.08819  0  0.994943  0
H  H12  1  0.34826624  0.91380198  0.29891237  1  0.033379  0  0.097856  0.098647  0  0.975093  0
H  H13  1  0.37683285  0.94851602  0.21771729  1  0.016613  0  0.094052  0.088975  0  0.99253  0
H  H14  1  0.31116385  0.04240138  0.22109648  1  0.010664  0  0.093177  0.093324  0  0.988941  0
H  H15  1  0.96092847  0.76848961  0.28378324  1  0.044731  0  0.093006  0.089932  0  0.995752  0
H  H16  1  0.05965301  0.92366550  0.29174412  1  0.049401  0  0.093097  0.090843  0  0.988695  0
H  H17  1  0.14498829  0.15224505  0.29977663  1  -0.004675  0  0.093392  0.0909  0  0.990487  0
H  H18  1  0.98920861  0.79145583  0.20199098  1  0.031669  0  0.095425  0.095313  0  0.974814  0
H  H19  1  0.08481092  0.66223632  0.19768001  1  0.040793  0  0.093489  0.093434  0  0.988639  0
H  H20  1  0.79337962  0.25637625  0.26977870  1  0.069525  0  0.104125  0.098881  0  1.006533  0
H  H21  1  0.07847952  0.94822905  0.20982537  1  0.029757  0  0.092243  0.089277  0  1.001788  0
H  H22  1  0.73237569  0.21758766  0.79457573  1  0.059643  0  0.098308  0.102367  0  0.970611  0
H  H23  1  0.77505371  0.24173550  0.71382555  1  0.057402  0  0.09722  0.096384  0  0.984291  0
H  H24  1  0.49228022  0.26328372  0.69867768  1  0.034252  0  0.094373  0.093984  0  0.983811  0
H  H25  1  0.54925284  0.16236423  0.70447450  1  0.027971  0  0.093494  0.09188  0  0.987284  0
H  H26  1  0.50957277  0.15228369  0.78488978  1  0.056691  0  0.083572  0.083036  0  1.046907  0
H  H27  1  0.46407997  0.26215318  0.78006102  1  0.019458  0  0.0917  0.087943  0  1.018151  0
H  H28  1  0.16298550  0.14380794  0.21804833  1  0.018954  0  0.092646  0.088744  0  1.006848  0
H  H29  1  0.79357289  0.54483221  0.71388687  1  0.044092  0  0.092533  0.088254  0  1.013866  0
H  H30  1  0.63543738  0.48784740  0.70846055  1  0.041724  0  0.095693  0.09575  0  0.975373  0
H  H31  1  0.77435994  0.52942748  0.79592543  1  0.015241  0  0.094554  0.095541  0  0.980993  0
H  H32  1  0.55969918  0.11681432  0.23065223  1  0.044494  0  0.104097  0.095646  0  1.003448  0
H  H33  1  0.87516280  0.39772844  0.72096257  1  0.031801  0  0.089779  0.08276  0  1.003985  0
H  H34  1  0.84135372  0.37121302  0.80225873  1  0.031  0  0.093054  0.089812  0  0.98592  0
H  H35  1  0.61826553  0.48363284  0.79054979  1  0.027686  0  0.095934  0.09533  0  0.98129  0
H  H36  1  0.28254841  0.52340446  0.79185096  1  0.053396  0  0.09585  0.096195  0  0.977898  0
H  H37  1  0.25744645  0.52908773  0.71067830  1  0.034509  0  0.096496  0.09668  0  0.980793  0
H  H38  1  0.24300704  0.23180887  0.69733133  1  0.061824  0  0.094175  0.092886  0  0.985486  0
H  H39  1  0.31362774  0.26552210  0.22021628  1  0.021833  0  0.090967  0.084346  0  1.011208  0
H  H40  1  0.34187291  0.38947602  0.69728997  1  0.027102  0  0.095594  0.094658  0  0.978653  0
H  H41  1  0.36680106  0.38291531  0.77845756  1  0.032436  0  0.094006  0.09089  0  0.987819  0
H  H42  1  0.26730182  0.22534568  0.77841237  1  0.025537  0  0.093355  0.089934  0  1.005671  0
H  H43  1  0.95564088  0.24228635  0.71930628  1  0.015153  0  0.092327  0.090101  0  1.011184  0
H  H44  1  0.46323405  0.21389209  0.29718432  1  0.077282  0  0.103739  0.094504  0  1.00171  0
H  H45  1  0.01612872  0.14556483  0.71063390  1  0.040935  0  0.094336  0.093309  0  0.978493  0
H  H46  1  0.98070163  0.23789945  0.80052851  1  0.028328  0  0.096411  0.097549  0  0.979178  0
H  H47  1  0.09918763  0.47091212  0.71968145  1  0.01372  0  0.089408  0.08318  0  1.003215  0
H  H48  1  0.12417219  0.46462577  0.80091205  1  0.027977  0  0.092149  0.088661  0  0.98801  0
H  H49  1  0.03975948  0.13990555  0.79210653  1  0.042008  0  0.096518  0.096599  0  0.977593  0
H  H50  1  0.21032925  0.51476914  0.28713462  1  0.047377  0  0.094604  0.095541  0  1.008101  0
H  H51  1  0.99953743  0.77407057  0.80181125  1  0.043017  0  0.104237  0.110394  0  0.964567  0
H  H52  1  0.96896278  0.75408839  0.72039376  1  0.045951  0  0.098221  0.099471  0  0.972704  0
H  H53  1  0.28567356  0.00724898  0.69611224  1  0.063613  0  0.096055  0.098497  0  0.98047  0
H  H54  1  0.13114533  0.97033696  0.70157698  1  0.016874  0  0.096051  0.094896  0  0.981628  0
H  H55  1  0.14819213  0.99131831  0.78348081  1  0.02383  0  0.097922  0.099837  0  0.978466  0
H  H56  1  0.51177188  0.40431049  0.23349311  1  0.051354  0  0.101849  0.09225  0  1.005729  0
H  H57  1  0.30563647  0.04216080  0.77696957  1  0.079011  0  0.091461  0.092788  0  1.026391  0
H  H58  1  0.23262853  0.69512316  0.71080033  1  0.046743  0  0.098008  0.105616  0  1.002177  0
H  H59  1  0.34430430  0.84659674  0.69973055  1  0.084417  0  0.100387  0.115111  0  0.980559  0
H  H60  1  0.26290529  0.72715071  0.79109152  1  0.107391  0  0.105046  0.07974  0  0.968702  0
H  H61  1  0.33292984  0.48763981  0.29413933  1  0.051074  0  0.097326  0.098327  0  0.971907  0
H  H62  1  0.00797309  0.63910241  0.72078962  1  0.057723  0  0.091809  0.087627  0  1.000164  0
H  H63  1  0.04841617  0.66657054  0.80131093  1  0.029724  0  0.094685  0.092074  0  0.984022  0
H  H64  1  0.98645422  0.18051065  0.20619645  1  0.020873  0  0.097049  0.098682  0  0.97202  0
H  H65  1  0.96672853  0.18729564  0.28804373  1  0.023082  0  0.096015  0.096047  0  0.974884  0
H  H66  1  0.29518174  0.27611544  0.30189882  1  0.038371  0  0.0931  0.088476  0  0.99368  0
H  H67  1  0.94986521  0.59213230  0.27061543  1  0.017078  0  0.085182  0.110718  0  1.046215  0
H  H68  1  0.03227333  0.51486977  0.26219422  1  0.002292  0  0.085304  0.111993  0  1.035735  0
H  H69  1  0.02178456  0.56699129  0.31918780  1  0.024672  0  0.091717  0.129226  0  1.005014  0
H  H70  1  0.22661474  0.50582529  0.20527879  1  0.028479  0  0.09377  0.093127  0  0.987715  0
H  H71  1  0.99185343  0.33547417  0.28322980  1  0.007992  0  0.090673  0.082515  0  1.027251  0
H  H72  1  0.01210691  0.32900931  0.20143223  1  0.023826  0  0.092832  0.090002  0  0.985656  0
H  H73  1  0.38538053  0.71769101  0.52238733  1  0.585213  0  0.292272  0.38248  0  0.92384  0
H  H74  1  0.94573285  0.96402593  0.02587842  1  0.578393  0  0.292575  0.382837  0  0.923063  0
C  C75  1  0.09855471  0.71797988  0.43233971  1  1.666075  0  0.27752  0.717036  0  4.159427  0
C  C76  1  0.70520318  0.35730138  0.34739532  1  -0.498753  0  -0.013676  -0.016749  0  4.045011  0
C  C77  1  0.02927547  0.27707868  0.27333560  1  0.0072  0  -0.155214  -0.196594  0  3.859811  0
C  C78  1  0.78369590  0.39630523  0.43494055  1  1.646873  0  0.282931  0.721624  0  4.149481  0
C  C79  1  0.20649356  0.24198837  0.28481673  1  0.011735  0  -0.152736  -0.187931  0  3.849349  0
C  C80  1  0.21893291  0.23626178  0.23088062  1  -0.009154  0  -0.153054  -0.184941  0  3.836954  0
C  C81  1  0.20251228  0.30060855  0.11370202  1  0.12605  0  -0.049732  -0.218445  0  3.977467  0
C  C82  1  0.15517208  0.32645440  0.29692766  1  0.157416  0  0.001449  0.173598  0  3.896863  0
C  C83  1  0.04241761  0.27257680  0.21947244  1  0.00248  0  -0.153516  -0.188114  0  3.853817  0
C  C84  1  0.17760447  0.31782177  0.20589300  1  0.14473  0  0.000562  0.169797  0  3.900853  0
C  C85  1  0.25648011  0.44887249  0.22315539  1  0.000419  0  -0.154843  -0.187989  0  3.855175  0
C  C86  1  0.73191665  0.37012462  0.38885208  1  0.233615  0  -0.04089  -0.204418  0  3.952406  0
C  C87  1  0.24438546  0.45378611  0.27702135  1  -0.066011  0  -0.154223  -0.19045  0  3.838787  0
C  C88  1  0.19092199  0.31031663  0.15561081  1  -0.398436  0  -0.016432  -0.027205  0  4.024755  0
C  C89  1  0.14035462  0.33398530  0.34709922  1  -0.545106  0  -0.014141  -0.021402  0  4.013717  0
C  C90  1  0.10049781  0.37726853  0.43424582  1  1.653851  0  0.281498  0.716085  0  4.160296  0
C  C91  1  0.12531872  0.34633510  0.38848717  1  0.246033  0  -0.046451  -0.216299  0  3.973626  0
C  C92  1  0.14712740  0.70731617  0.27017722  1  0.033549  0  -0.077131  0.03825  0  3.782414  0
C  C93  1  0.27769923  0.92987944  0.28396577  1  0.008557  0  -0.15267  -0.191712  0  3.865698  0
C  C94  1  0.29637780  0.95264294  0.23041846  1  -0.011233  0  -0.15358  -0.189906  0  3.853445  0
C  C95  1  0.21596123  0.89927441  0.11198447  1  0.297258  0  -0.050057  -0.219055  0  3.972651  0
C  C96  1  0.15080645  0.81886161  0.29460901  1  0.144646  0  0.002521  0.135258  0  3.874168  0
C  C97  1  0.57427703  0.37111201  0.24185322  1  -0.018645  0  -0.068765  -0.078314  0  3.628661  0
C  C98  1  0.16515520  0.73060824  0.21644931  1  -0.05757  0  -0.152186  -0.226603  0  3.825246  0
C  C99  1  0.18336154  0.85618608  0.20399824  1  0.161882  0  0.000771  0.172533  0  3.907803  0
C  C100  1  0.06863217  0.86131253  0.22062439  1  -0.035803  0  -0.153895  -0.186695  0  3.849247  0
C  C101  1  0.05184226  0.84331968  0.27437752  1  -0.053994  0  -0.155055  -0.184603  0  3.855039  0
C  C102  1  0.09844344  0.71958030  0.56549195  1  1.689642  0  0.277832  0.722499  0  4.155426  0
C  C103  1  0.20164298  0.87794829  0.15385627  1  -0.606735  0  -0.016031  -0.024228  0  4.018062  0
C  C104  1  0.13381136  0.79654440  0.34475626  1  -0.121413  0  -0.012923  -0.015529  0  4.017914  0
C  C105  1  0.11932357  0.77133595  0.38631841  1  -0.193942  0  -0.047318  -0.218913  0  3.965949  0
C  C106  1  0.78256320  0.32397506  0.72921573  1  -0.049996  0  -0.152386  -0.186514  0  3.841362  0
C  C107  1  0.55898755  0.24777920  0.71736991  1  -0.013444  0  -0.152427  -0.183193  0  3.834483  0
C  C108  1  0.62705929  0.31646168  0.20424770  1  0.08938  0  0.008992  0.112282  0  3.789694  0
C  C109  1  0.53725141  0.24253675  0.77110968  1  -0.030471  0  -0.157642  -0.192068  0  3.828545  0
C  C110  1  0.60705173  0.30830125  0.88850447  1  0.151611  0  -0.046722  -0.224423  0  3.951297  0
C  C111  1  0.68918517  0.35114382  0.70502270  1  0.140919  0  0.001821  0.166382  0  3.891216  0
C  C112  1  0.75887194  0.30942910  0.78292696  1  -0.057385  0  -0.152148  -0.188919  0  3.843277  0
C  C113  1  0.65496559  0.33554220  0.79639023  1  0.168158  0  0.002544  0.16927  0  3.891935  0
C  C114  1  0.78091776  0.39190411  0.56545825  1  1.669298  0  0.285407  0.731701  0  4.139848  0
C  C115  1  0.68951082  0.46340721  0.77892743  1  -0.021826  0  -0.152645  -0.187169  0  3.842774  0
C  C116  1  0.70379636  0.47059949  0.72476697  1  -0.036961  0  -0.154481  -0.187898  0  3.84343  0
C  C117  1  0.63148411  0.32285710  0.84671210  1  -0.411509  0  -0.001799  0.002723  0  3.976139  0
C  C118  1  0.71058944  0.36023533  0.65456856  1  -0.438285  0  -0.00263  7e-05  0  3.981881  0
C  C119  1  0.54705168  0.26548861  0.27642229  1  -0.006525  0  -0.06491  -0.071188  0  3.610568  0
C  C120  1  0.73195991  0.36920448  0.61252337  1  0.149605  0  -0.048486  -0.227321  0  3.955888  0
C  C121  1  0.17546393  0.45551480  0.72754467  1  -0.005868  0  -0.15334  -0.187666  0  3.846564  0
C  C122  1  0.25967143  0.31602713  0.71412926  1  -0.057795  0  -0.152438  -0.186439  0  3.845958  0
C  C123  1  0.27597076  0.31182263  0.76769343  1  -0.016315  0  -0.152985  -0.18729  0  3.836863  0
C  C124  1  0.21068756  0.31293774  0.88637140  1  0.241945  0  -0.047012  -0.214792  0  3.974877  0
C  C125  1  0.14997069  0.33517459  0.70453252  1  0.127205  0  0.000925  0.169438  0  3.90236  0
C  C126  1  0.09978394  0.38546634  0.56695209  1  1.669649  0  0.276059  0.720446  0  4.154494  0
C  C127  1  0.19206072  0.45165430  0.78106300  1  -0.061649  0  -0.154242  -0.191358  0  3.858296  0
C  C128  1  0.17813959  0.32847273  0.79504382  1  0.1351  0  0.001127  0.171661  0  3.89977  0
C  C129  1  0.04993293  0.22670041  0.78087093  1  -0.038405  0  -0.152841  -0.186208  0  3.839213  0
C  C130  1  0.67819298  0.34391272  0.29889465  1  0.120233  0  0.010495  0.115505  0  3.77891  0
C  C131  1  0.03376046  0.23018646  0.72731483  1  -0.005602  0  -0.154937  -0.18828  0  3.849179  0
C  C132  1  0.19573685  0.32270654  0.84492555  1  -0.509447  0  -0.015426  -0.027056  0  4.019893  0
C  C133  1  0.13421858  0.34269274  0.65458237  1  -0.032876  0  -0.01746  -0.029181  0  4.025534  0
C  C134  1  0.12034783  0.35478642  0.61322690  1  -0.257318  0  -0.050046  -0.217492  0  3.977521  0
C  C135  1  0.03966203  0.73288846  0.73101293  1  -0.068884  0  -0.153096  -0.191361  0  3.851292  0
C  C136  1  0.19946477  0.94883979  0.71495202  1  -0.03803  0  -0.152641  -0.187894  0  3.84431  0
C  C137  1  0.21459569  0.96820306  0.76851075  1  -0.04831  0  -0.156317  -0.189653  0  3.840585  0
C  C138  1  0.70412759  0.44872592  0.26281944  1  -0.030678  0  -0.069097  -0.07972  0  3.631949  0
C  C139  1  0.22415651  0.90061151  0.88507296  1  -0.300087  0  -0.040555  -0.19716  0  3.956647  0
C  C140  1  0.15902100  0.81600552  0.70335800  1  0.114419  0  0.001387  0.178034  0  3.90279  0
C  C141  1  0.60104727  0.21166916  0.24030594  1  -0.002884  0  -0.068061  -0.07454  0  3.621126  0
C  C142  1  0.06243648  0.74984184  0.78434943  1  -0.012313  0  -0.150797  -0.187489  0  3.845268  0
C  C143  1  0.19485981  0.85222742  0.79376256  1  0.156385  0  0.000177  0.129481  0  3.905491  0
C  C144  1  0.28056853  0.80964482  0.77260696  1  0.042468  0  -0.036089  0.070408  0  3.732382  0
C  C145  1  0.25968495  0.78873974  0.71942745  1  -0.0259  0  -0.156474  -0.246816  0  3.834771  0
C  C146  1  0.21243156  0.87538741  0.84367453  1  0.02373  0  -0.022973  -0.035156  0  4.040021  0
C  C147  1  0.13960963  0.79347661  0.65348558  1  -0.56368  0  -0.016667  -0.02523  0  4.013452  0
C  C148  1  0.12260412  0.76924306  0.61205557  1  0.280089  0  -0.046805  -0.213097  0  3.966608  0
C  C149  1  0.22362369  0.27427809  0.06655028  1  1.637898  0  0.277173  0.722568  0  4.153919  0
C  C150  1  0.75798152  0.39473601  0.22670142  1  -0.008114  0  -0.066071  -0.073889  0  3.626534  0
C  C151  1  0.54313128  0.27467237  0.06587790  1  1.63849  0  0.283117  0.721832  0  4.152707  0
C  C152  1  0.73080717  0.28921371  0.26124716  1  -0.021717  0  -0.067636  -0.074882  0  3.614279  0
C  C153  1  0.23728318  0.94665167  0.06491397  1  1.668202  0  0.277255  0.721476  0  4.157972  0
C  C154  1  0.23268741  0.28411977  0.93271415  1  1.668346  0  0.280164  0.715993  0  4.159407  0
C  C155  1  0.55459063  0.27941100  0.93499941  1  1.632961  0  0.286329  0.732429  0  4.137698  0
C  C156  1  0.24234527  0.95173810  0.93133011  1  1.671931  0  0.281012  0.715931  0  4.158119  0
C  C157  1  0.58660329  0.29594855  0.11323301  1  0.242351  0  -0.041393  -0.204866  0  3.957346  0
C  C158  1  0.03127863  0.58880777  0.28155806  1  -0.035838  0  -0.246178  -0.400148  0  3.943829  0
C  C159  1  0.60478960  0.30501248  0.15540454  1  -0.492449  0  -0.016178  -0.019941  0  4.053454  0
Cl  Cl160  1  0.43897733  0.91450275  0.78448897  1  -0.264727  0  -0.049761  -0.148629  0  1.363718  0
O  O161  1  0.17822641  0.47754550  0.45081216  1  -1.212708  0  -0.199021  -0.532708  0  2.279363  0
O  O162  1  0.52735280  0.17820225  0.04606327  1  -1.244376  0  -0.226865  -0.587085  0  2.245967  0
O  O163  1  0.34030758  0.97146253  0.04549267  1  -1.248972  0  -0.243216  -0.605126  0  2.229447  0
O  O164  1  0.17331097  0.68604663  0.44562807  1  -1.208579  0  -0.20393  -0.546918  0  2.293072  0
O  O165  1  0.16275293  0.97628662  0.94633479  1  -1.214969  0  -0.200911  -0.538036  0  2.287729  0
O  O166  1  0.15551070  0.18279570  0.94947130  1  -1.217064  0  -0.201037  -0.538993  0  2.285951  0
O  O167  1  0.33265145  0.36267451  0.95223644  1  -1.258494  0  -0.24284  -0.60725  0  2.231326  0
O  O168  1  0.52853897  0.35416394  0.95456619  1  -1.243383  0  -0.226082  -0.590553  0  2.245402  0
O  O169  1  0.53183158  0.17793097  0.95250309  1  -1.242144  0  -0.226783  -0.588201  0  2.238099  0
O  O170  1  0.34071460  0.97247542  0.95238413  1  -1.253924  0  -0.24066  -0.604236  0  2.234723  0
O  O171  1  0.32263176  0.16009199  0.99903271  1  -1.611903  0  -0.391322  -1.274689  0  2.292627  0
O  O172  1  0.80188949  0.49046185  0.54580448  1  -1.245111  0  -0.225981  -0.587533  0  2.243996  0
O  O173  1  0.00259463  0.70249132  0.45519658  1  -1.255711  0  -0.244747  -0.611052  0  2.2302  0
O  O174  1  0.80937703  0.49843345  0.45246894  1  -1.239448  0  -0.226274  -0.586716  0  2.243378  0
O  O175  1  0.80571971  0.31871443  0.45410509  1  -1.245912  0  -0.226447  -0.588262  0  2.246147  0
O  O176  1  0.99702786  0.30122409  0.45340002  1  -1.255035  0  -0.241762  -0.606902  0  2.235822  0
O  O177  1  0.17593460  0.48880027  0.55141596  1  -1.221526  0  -0.210212  -0.562139  0  2.293763  0
O  O178  1  0.17847556  0.70114069  0.54631957  1  -1.226165  0  -0.212457  -0.570516  0  2.28843  0
O  O179  1  0.99407999  0.69313192  0.54828036  1  -1.255582  0  -0.24101  -0.601438  0  2.230129  0
O  O180  1  0.80592181  0.31460981  0.54749357  1  -1.24051  0  -0.227277  -0.589729  0  2.239969  0
O  O181  1  0.00243248  0.30638020  0.54616044  1  -1.256259  0  -0.244601  -0.60987  0  2.232287  0
O  O182  1  0.00979197  0.50611160  0.49967763  1  -1.611725  0  -0.391281  -1.275076  0  2.296176  0
O  O183  1  0.15671916  0.96514905  0.04730993  1  -1.219188  0  -0.211173  -0.566633  0  2.294115  0
O  O184  1  0.14918929  0.17174007  0.05063614  1  -1.224762  0  -0.211392  -0.566602  0  2.29416  0
O  O185  1  0.32033673  0.35628173  0.04528895  1  -1.254808  0  -0.24388  -0.608337  0  2.231096  0
O  O186  1  0.51777936  0.35127388  0.04786102  1  -1.236739  0  -0.227182  -0.587427  0  2.244586  0
O  O187  1  0.34465599  0.66949648  0.49531067  1  -1.369331  0  -0.577144  -0.993554  0  1.794977  0
O  O188  1  0.98792571  0.98773566  0.99588589  1  -1.364853  0  -0.577241  -0.993946  0  1.795296  0
