# generated using pymatgen
data_PrH20C21(NO3)2
_symmetry_space_group_name_H-M   'P 1'
_cell_length_a   10.26083943
_cell_length_b   11.12370100
_cell_length_c   11.18533824
_cell_angle_alpha   98.47012102
_cell_angle_beta   114.66990985
_cell_angle_gamma   107.56014274
_symmetry_Int_Tables_number   1
_chemical_formula_structural   PrH20C21(NO3)2
_chemical_formula_sum   'Pr2 H40 C42 N4 O12'
_cell_volume   1049.64825013
_cell_formula_units_Z   2
loop_
 _symmetry_equiv_pos_site_id
 _symmetry_equiv_pos_as_xyz
  1  'x, y, z'
loop_
 _atom_site_type_symbol
 _atom_site_label
 _atom_site_symmetry_multiplicity
 _atom_site_fract_x
 _atom_site_fract_y
 _atom_site_fract_z
 _atom_site_occupancy
 _atom_site_hle17_bader_spin_density
 _atom_site_hle17_ddec_charge
 _atom_site_hle17_ddec_spin_density
 _atom_site_hle17_ddec_sum_bond_order
 _atom_site_hle17_magmom
 _atom_site_hse06_10hf_bader_spin_density
 _atom_site_hse06_10hf_ddec_charge
 _atom_site_hse06_10hf_ddec_spin_density
 _atom_site_hse06_10hf_ddec_sum_bond_order
 _atom_site_hse06_10hf_magmom
 _atom_site_hse06_bader_spin_density
 _atom_site_hse06_ddec_charge
 _atom_site_hse06_ddec_spin_density
 _atom_site_hse06_ddec_sum_bond_order
 _atom_site_hse06_magmom
 _atom_site_pbe_bader_spin_density
 _atom_site_pbe_cm5_charge
 _atom_site_pbe_ddec_charge
 _atom_site_pbe_ddec_spin_density
 _atom_site_pbe_ddec_sum_bond_order
 _atom_site_pbe_magmom
Pr  Pr0  1  0.99328994  0.64755018  0.12404514  1  0  2.19591  0  1.729417  0  0  1.996229  0  2.234701  0  0  2.043572  0  2.183767  0  0  1.499819  1.960863  0  2.272444  0
Pr  Pr1  1  0.00670897  0.35245296  0.87595780  1  0  2.195884  0  1.729413  0  0  1.996104  0  2.234856  0  0  2.04342  0  2.183985  0  0  1.49983  1.960734  0  2.272591  0
H  H2  1  0.75724041  0.13098664  0.10816615  1  0  0.09254  0  0.944162  0  0  0.1078  0  1.007952  0  0  0.109653  0  1.007586  0  0  0.097717  0.10671  0  1.008057  0
H  H3  1  0.24275928  0.86901151  0.89183279  1  0  0.092543  0  0.944143  0  0  0.107814  0  1.00794  0  0  0.109669  0  1.007572  0  0  0.097716  0.106724  0  1.008044  0
H  H4  1  0.58494281  0.13118993  0.98226990  1  0  0.092045  0  0.935091  0  0  0.110229  0  0.993441  0  0  0.112054  0  0.993054  0  0  0.096246  0.108823  0  0.994172  0
H  H5  1  0.41505583  0.86880824  0.01772596  1  0  0.09206  0  0.935104  0  0  0.110248  0  0.993457  0  0  0.11207  0  0.993074  0  0  0.096273  0.10884  0  0.994192  0
H  H6  1  0.61332037  0.15126465  0.22655491  1  0  0.049085  0  0.946979  0  0  0.066823  0  1.012706  0  0  0.067371  0  1.013721  0  0  0.079781  0.066299  0  1.01206  0
H  H7  1  0.38667319  0.84872757  0.77344079  1  0  0.049113  0  0.947029  0  0  0.06686  0  1.012732  0  0  0.06742  0  1.013731  0  0  0.079793  0.066333  0  1.012087  0
H  H8  1  0.76325782  0.31060862  0.28563402  1  0  0.063705  0  0.941322  0  0  0.080316  0  1.004148  0  0  0.081587  0  1.004278  0  0  0.087406  0.079286  0  1.004394  0
H  H9  1  0.23673573  0.68938360  0.71436436  1  0  0.063725  0  0.941387  0  0  0.08035  0  1.004183  0  0  0.081621  0  1.004316  0  0  0.087409  0.07932  0  1.004423  0
H  H10  1  0.53132037  0.34599528  0.24396380  1  0  0.049077  0  0.955188  0  0  0.069025  0  1.017616  0  0  0.069361  0  1.018332  0  0  0.082984  0.068757  0  1.017127  0
H  H11  1  0.46867066  0.65399398  0.75603138  1  0  0.04909  0  0.955157  0  0  0.069061  0  1.017572  0  0  0.069388  0  1.018298  0  0  0.082994  0.068797  0  1.017079  0
H  H12  1  0.56167909  0.37455606  0.10480567  1  0  0.091574  0  0.926948  0  0  0.109942  0  0.983591  0  0  0.1121  0  0.982358  0  0  0.099448  0.108351  0  0.984556  0
H  H13  1  0.43832368  0.62544404  0.89519833  1  0  0.091605  0  0.92694  0  0  0.109979  0  0.983587  0  0  0.112137  0  0.98235  0  0  0.099453  0.108391  0  0.984544  0
H  H14  1  0.32307081  0.12009371  0.09454950  1  0  0.092571  0  0.937006  0  0  0.109067  0  0.995896  0  0  0.111024  0  0.995137  0  0  0.09454  0.107589  0  0.996537  0
H  H15  1  0.67692130  0.87989756  0.90543120  1  0  0.092585  0  0.937085  0  0  0.109045  0  0.996016  0  0  0.111002  0  0.995262  0  0  0.094539  0.107571  0  0.996653  0
H  H16  1  0.36756625  0.13566591  0.96014333  1  0  0.082514  0  0.959383  0  0  0.099406  0  1.022631  0  0  0.100815  0  1.022927  0  0  0.094425  0.098338  0  1.022619  0
H  H17  1  0.63243259  0.86434126  0.03984587  1  0  0.082532  0  0.959329  0  0  0.099445  0  1.022568  0  0  0.100866  0  1.022852  0  0  0.094464  0.098376  0  1.022563  0
H  H18  1  0.38948587  0.45258190  0.24482119  1  0  0.114344  0  0.930997  0  0  0.133233  0  0.982496  0  0  0.135075  0  0.982448  0  0  0.110359  0.131772  0  0.982799  0
H  H19  1  0.61051108  0.54741929  0.75516998  1  0  0.114352  0  0.930856  0  0  0.133247  0  0.982378  0  0  0.135098  0  0.982323  0  0  0.110347  0.131781  0  0.982682  0
H  H20  1  0.26610105  0.36504645  0.30094289  1  0  0.105024  0  0.916903  0  0  0.12329  0  0.972295  0  0  0.125191  0  0.971957  0  0  0.107292  0.122008  0  0.972386  0
H  H21  1  0.73390488  0.63495562  0.69905636  1  0  0.105081  0  0.916874  0  0  0.123361  0  0.972262  0  0  0.125268  0  0.971924  0  0  0.107332  0.122075  0  0.972356  0
H  H22  1  0.55669498  0.62766410  0.46681076  1  0  0.050801  0  0.969757  0  0  0.069199  0  1.035164  0  0  0.06909  0  1.037185  0  0  0.084613  0.069459  0  1.033237  0
H  H23  1  0.44331424  0.37233795  0.53317635  1  0  0.050886  0  0.969855  0  0  0.069254  0  1.035273  0  0  0.069145  0  1.037293  0  0  0.084643  0.069513  0  1.033344  0
H  H24  1  0.41300162  0.58689178  0.51691366  1  0  0.064151  0  0.9488  0  0  0.081291  0  1.013396  0  0  0.082904  0  1.012206  0  0  0.088188  0.080052  0  1.014372  0
H  H25  1  0.58701532  0.41311516  0.48308430  1  0  0.064236  0  0.948704  0  0  0.081355  0  1.013322  0  0  0.082972  0  1.012126  0  0  0.088195  0.080115  0  1.014303  0
H  H26  1  0.30207935  0.94079280  0.19855181  1  0  0.085767  0  0.953598  0  0  0.091886  0  1.020029  0  0  0.095553  0  1.016026  0  0  0.122371  0.089186  0  1.022882  0
H  H27  1  0.69791705  0.05921837  0.80145401  1  0  0.0858  0  0.953555  0  0  0.091899  0  1.020016  0  0  0.095565  0  1.016016  0  0  0.12236  0.089203  0  1.022864  0
H  H28  1  0.51090936  0.15876912  0.38197113  1  0  0.108913  0  0.943091  0  0  0.121507  0  0.999397  0  0  0.124297  0  0.999307  0  0  0.110859  0.119362  0  1.000038  0
H  H29  1  0.48908318  0.84124510  0.61803364  1  0  0.109009  0  0.943041  0  0  0.121553  0  0.99941  0  0  0.124315  0  0.999352  0  0  0.110853  0.119404  0  1.000055  0
H  H30  1  0.51136266  0.22145270  0.60500006  1  0  0.110152  0  0.950613  0  0  0.12319  0  1.006347  0  0  0.125882  0  1.004676  0  0  0.115124  0.121402  0  1.007252  0
H  H31  1  0.48862259  0.77855761  0.39500133  1  0  0.110226  0  0.95048  0  0  0.123204  0  1.006288  0  0  0.125894  0  1.004616  0  0  0.115117  0.12142  0  1.007194  0
H  H32  1  0.94599840  0.79858118  0.68866026  1  0  0.105733  0  0.920309  0  0  0.121726  0  0.970581  0  0  0.124463  0  0.969006  0  0  0.117948  0.119683  0  0.971835  0
H  H33  1  0.05400558  0.20140391  0.31134112  1  0  0.105814  0  0.920221  0  0  0.121725  0  0.97056  0  0  0.124467  0  0.968986  0  0  0.117921  0.119683  0  0.971817  0
H  H34  1  0.77525363  0.57394338  0.50577936  1  0  0.106786  0  0.976279  0  0  0.119808  0  1.03249  0  0  0.121922  0  1.03309  0  0  0.11079  0.118163  0  1.032574  0
H  H35  1  0.22475563  0.42604365  0.49421899  1  0  0.106839  0  0.976117  0  0  0.119761  0  1.032438  0  0  0.121873  0  1.033043  0  0  0.110774  0.118116  0  1.032521  0
H  H36  1  0.79759433  0.53110440  0.29014473  1  0  0.089025  0  0.964378  0  0  0.094683  0  1.032848  0  0  0.097727  0  1.029564  0  0  0.127395  0.092359  0  1.035363  0
H  H37  1  0.20241942  0.46888957  0.70985547  1  0  0.089  0  0.964383  0  0  0.094631  0  1.032916  0  0  0.097676  0  1.029631  0  0  0.127401  0.092308  0  1.035422  0
H  H38  1  0.36655425  0.17877308  0.74024079  1  0  0.110024  0  0.92543  0  0  0.125757  0  0.975107  0  0  0.128398  0  0.974757  0  0  0.113693  0.123888  0  0.975445  0
H  H39  1  0.63343879  0.82122913  0.25976690  1  0  0.110029  0  0.925447  0  0  0.125751  0  0.97514  0  0  0.128389  0  0.974787  0  0  0.113666  0.123888  0  0.975477  0
H  H40  1  0.15544061  0.02422674  0.76726357  1  0  0.10506  0  0.952371  0  0  0.117198  0  1.012003  0  0  0.119593  0  1.0113  0  0  0.111652  0.11551  0  1.012571  0
H  H41  1  0.84455406  0.97576346  0.23273942  1  0  0.104978  0  0.95242  0  0  0.117138  0  1.012038  0  0  0.119535  0  1.011333  0  0  0.111623  0.115454  0  1.012607  0
C  C42  1  0.79011548  0.30548921  0.05013679  1  0  0.755009  0  3.800684  0  0  0.714365  0  4.092699  0  0  0.748477  0  4.083059  0  0  0.233789  0.691067  0  4.098426  0
C  C43  1  0.20988352  0.69451194  0.94986500  1  0  0.754766  0  3.80094  0  0  0.714319  0  4.092675  0  0  0.748432  0  4.083037  0  0  0.233801  0.69102  0  4.098398  0
C  C44  1  0.69197729  0.19424179  0.08121392  1  0  -0.263196  0  3.67346  0  0  -0.302439  0  3.92593  0  0  -0.308036  0  3.934722  0  0  -0.165051  -0.298707  0  3.919936  0
C  C45  1  0.30802133  0.80575637  0.91878551  1  0  -0.263126  0  3.673431  0  0  -0.302461  0  3.925904  0  0  -0.308067  0  3.934715  0  0  -0.165102  -0.298733  0  3.919916  0
C  C46  1  0.65402210  0.23776181  0.19418296  1  0  -0.083752  0  3.710488  0  0  -0.12607  0  3.978934  0  0  -0.126302  0  3.992629  0  0  -0.170697  -0.125581  0  3.969126  0
C  C47  1  0.34597505  0.76223337  0.80581546  1  0  -0.083867  0  3.710642  0  0  -0.126175  0  3.979113  0  0  -0.126415  0  3.992809  0  0  -0.170737  -0.125683  0  3.969299  0
C  C48  1  0.53095935  0.29697612  0.15074339  1  0  -0.095306  0  3.681846  0  0  -0.137053  0  3.945355  0  0  -0.137629  0  3.958738  0  0  -0.169333  -0.13644  0  3.935638  0
C  C49  1  0.46903615  0.70302008  0.84925544  1  0  -0.095347  0  3.681856  0  0  -0.13712  0  3.945438  0  0  -0.137691  0  3.958829  0  0  -0.169362  -0.136516  0  3.935719  0
C  C50  1  0.36552122  0.19268709  0.04831317  1  0  -0.248458  0  3.671877  0  0  -0.284885  0  3.920047  0  0  -0.290307  0  3.929446  0  0  -0.167108  -0.281053  0  3.913401  0
C  C51  1  0.63447638  0.80731109  0.95167871  1  0  -0.248515  0  3.671925  0  0  -0.284962  0  3.92018  0  0  -0.2904  0  3.929587  0  0  -0.167136  -0.281134  0  3.913542  0
C  C52  1  0.24299513  0.24850601  0.98676045  1  0  0.674938  0  3.899662  0  0  0.636006  0  4.201133  0  0  0.668142  0  4.194882  0  0  0.180002  0.614352  0  4.204106  0
C  C53  1  0.75700439  0.75149614  0.01323633  1  0  0.675051  0  3.899548  0  0  0.636138  0  4.201025  0  0  0.668274  0  4.194779  0  0  0.179981  0.614491  0  4.203992  0
C  C54  1  0.22554643  0.52972818  0.24841874  1  0  0.734651  0  3.832517  0  0  0.6931  0  4.123167  0  0  0.726723  0  4.114  0  0  0.216205  0.670221  0  4.128484  0
C  C55  1  0.77445571  0.47027493  0.75158098  1  0  0.734747  0  3.832249  0  0  0.693202  0  4.122916  0  0  0.726828  0  4.113745  0  0  0.21617  0.670324  0  4.128228  0
C  C56  1  0.33825154  0.46663378  0.31189974  1  0  -0.263775  0  3.663025  0  0  -0.299418  0  3.909517  0  0  -0.304946  0  3.917566  0  0  -0.157124  -0.295599  0  3.9038  0
C  C57  1  0.66175286  0.53336732  0.68809519  1  0  -0.263772  0  3.662796  0  0  -0.299493  0  3.909416  0  0  -0.305043  0  3.917487  0  0  -0.157114  -0.295667  0  3.903691  0
C  C58  1  0.46369964  0.54280481  0.46250501  1  0  -0.095908  0  3.732096  0  0  -0.141212  0  4.002346  0  0  -0.141343  0  4.015578  0  0  -0.173565  -0.141023  0  3.992606  0
C  C59  1  0.53630856  0.45719525  0.53748767  1  0  -0.096127  0  3.732089  0  0  -0.141398  0  4.00242  0  0  -0.141527  0  4.015661  0  0  -0.173615  -0.141211  0  3.992686  0
C  C60  1  0.30537879  0.97412268  0.29704515  1  0  0.153104  0  3.694858  0  0  0.124275  0  3.952766  0  0  0.131832  0  3.968004  0  0  0.066845  0.119905  0  3.942167  0
C  C61  1  0.69461977  0.02588847  0.70295704  1  0  0.153071  0  3.695128  0  0  0.124247  0  3.953007  0  0  0.131805  0  3.968233  0  0  0.066899  0.119875  0  3.9424  0
C  C62  1  0.42056269  0.09540835  0.39915390  1  0  -0.1154  0  3.728317  0  0  -0.131153  0  3.986221  0  0  -0.138236  0  4.008664  0  0  -0.079958  -0.12691  0  3.971357  0
C  C63  1  0.57942682  0.90460190  0.60085091  1  0  -0.115567  0  3.728408  0  0  -0.13128  0  3.986288  0  0  -0.138339  0  4.008736  0  0  -0.080036  -0.127034  0  3.971427  0
C  C64  1  0.41946161  0.13086558  0.52217920  1  0  -0.05015  0  3.699975  0  0  -0.077346  0  3.953208  0  0  -0.075074  0  3.971775  0  0  -0.063184  -0.078251  0  3.939794  0
C  C65  1  0.58052909  0.86914267  0.47782041  1  0  -0.050065  0  3.699863  0  0  -0.077228  0  3.953048  0  0  -0.074952  0  3.971604  0  0  -0.063082  -0.078144  0  3.93964  0
C  C66  1  0.30039440  0.04724454  0.54118601  1  0  0.019396  0  3.80373  0  0  0.034505  0  4.03773  0  0  0.031385  0  4.063461  0  0  -0.00146  0.03673  0  4.021102  0
C  C67  1  0.69960166  0.95276163  0.45882343  1  0  0.019248  0  3.803727  0  0  0.034433  0  4.037612  0  0  0.031315  0  4.063339  0  0  -0.001543  0.036675  0  4.020953  0
C  C68  1  0.19179596  0.92456856  0.43393852  1  0  0.137535  0  3.746145  0  0  0.134756  0  3.981832  0  0  0.138899  0  4.002858  0  0  0.126023  0.13198  0  3.968562  0
C  C69  1  0.80820293  0.07543458  0.56606710  1  0  0.137576  0  3.746005  0  0  0.134768  0  3.981674  0  0  0.138909  0  4.0027  0  0  0.12606  0.132003  0  3.968388  0
C  C70  1  0.07428100  0.83260527  0.45334300  1  0  0.147599  0  3.744812  0  0  0.143103  0  3.981404  0  0  0.147558  0  4.002296  0  0  0.128589  0.140131  0  3.967245  0
C  C71  1  0.92572080  0.16739284  0.54665944  1  0  0.147672  0  3.744613  0  0  0.143197  0  3.98123  0  0  0.14765  0  4.002121  0  0  0.128618  0.140202  0  3.967094  0
C  C72  1  0.06548489  0.86902422  0.57628359  1  0  0.023464  0  3.791457  0  0  0.039072  0  4.025661  0  0  0.036114  0  4.051028  0  0  0.000319  0.041302  0  4.00881  0
C  C73  1  0.93451697  0.13097188  0.42372304  1  0  0.023546  0  3.791429  0  0  0.039077  0  4.025716  0  0  0.036119  0  4.051086  0  0  0.000263  0.041315  0  4.008874  0
C  C74  1  0.95393053  0.77405366  0.59440658  1  0  -0.042465  0  3.684001  0  0  -0.069315  0  3.935522  0  0  -0.067249  0  3.954278  0  0  -0.058044  -0.070548  0  3.923103  0
C  C75  1  0.04607591  0.22593640  0.40559469  1  0  -0.042653  0  3.683915  0  0  -0.069387  0  3.935392  0  0  -0.067329  0  3.954152  0  0  -0.057992  -0.070619  0  3.922978  0
C  C76  1  0.85895964  0.65141484  0.49378744  1  0  -0.116613  0  3.724126  0  0  -0.128924  0  3.973149  0  0  -0.135572  0  3.994782  0  0  -0.080696  -0.125371  0  3.959683  0
C  C77  1  0.14104942  0.34857618  0.50621499  1  0  -0.116548  0  3.724178  0  0  -0.128769  0  3.973195  0  0  -0.135415  0  3.994828  0  0  -0.080664  -0.12522  0  3.959729  0
C  C78  1  0.87203975  0.62578887  0.37333217  1  0  0.156906  0  3.690918  0  0  0.127808  0  3.944259  0  0  0.136155  0  3.958826  0  0  0.070819  0.122413  0  3.935086  0
C  C79  1  0.12797069  0.37420714  0.62666973  1  0  0.156824  0  3.69124  0  0  0.127721  0  3.944594  0  0  0.136067  0  3.959159  0  0  0.070701  0.122322  0  3.935408  0
C  C80  1  0.28547204  0.08189999  0.66196186  1  0  -0.100008  0  3.739049  0  0  -0.12417  0  3.998282  0  0  -0.127306  0  4.02151  0  0  -0.081949  -0.122394  0  3.982934  0
C  C81  1  0.71452392  0.91809719  0.33804176  1  0  -0.099933  0  3.738951  0  0  -0.124114  0  3.998155  0  0  -0.127243  0  4.021376  0  0  -0.081916  -0.122351  0  3.982815  0
C  C82  1  0.17016217  0.99692031  0.67740219  1  0  -0.104029  0  3.748571  0  0  -0.130568  0  4.012043  0  0  -0.133476  0  4.035435  0  0  -0.082695  -0.128496  0  3.996757  0
C  C83  1  0.82983443  0.00307386  0.32260481  1  0  -0.104027  0  3.74869  0  0  -0.130559  0  4.012184  0  0  -0.133471  0  4.035581  0  0  -0.082659  -0.128491  0  3.996909  0
N  N84  1  0.19609428  0.88979175  0.31442764  1  0  -0.400494  0  3.201678  0  0  -0.348576  0  3.463288  0  0  -0.361936  0  3.480154  0  0  -0.356984  -0.339637  0  3.451756  0
N  N85  1  0.80390346  0.11021341  0.68557604  1  0  -0.400492  0  3.201654  0  0  -0.348559  0  3.463252  0  0  -0.361914  0  3.480117  0  0  -0.357022  -0.339619  0  3.451709  0
N  N86  1  0.97614608  0.71328043  0.35342933  1  0  -0.417377  0  3.23149  0  0  -0.36367  0  3.493739  0  0  -0.377506  0  3.510572  0  0  -0.372315  -0.354516  0  3.482361  0
N  N87  1  0.02386197  0.28672161  0.64657252  1  0  -0.41732  0  3.231325  0  0  -0.363588  0  3.493551  0  0  -0.377419  0  3.510382  0  0  -0.372206  -0.354422  0  3.482169  0
O  O88  1  0.84154012  0.42509802  0.12312198  1  0  -0.7114  0  1.996621  0  0  -0.653369  0  2.24164  0  0  -0.678241  0  2.231539  0  0  -0.376882  -0.635542  0  2.247988  0
O  O89  1  0.15845366  0.57490120  0.87687572  1  0  -0.711329  0  1.99662  0  0  -0.653342  0  2.241531  0  0  -0.678207  0  2.23143  0  0  -0.376903  -0.635526  0  2.247903  0
O  O90  1  0.81512391  0.26739078  0.95140099  1  0  -0.746024  0  2.008955  0  0  -0.69114  0  2.258771  0  0  -0.716368  0  2.247556  0  0  -0.404373  -0.673053  0  2.265752  0
O  O91  1  0.18487722  0.73261034  0.04860252  1  0  -0.7459  0  2.009165  0  0  -0.691097  0  2.258884  0  0  -0.716326  0  2.247664  0  0  -0.404337  -0.67301  0  2.265868  0
O  O92  1  0.10415260  0.18474811  0.96514978  1  0  -0.716166  0  1.884843  0  0  -0.67149  0  2.111505  0  0  -0.693542  0  2.10102  0  0  -0.409307  -0.655869  0  2.118236  0
O  O93  1  0.89584201  0.81524612  0.03483590  1  0  -0.716228  0  1.884697  0  0  -0.671567  0  2.111365  0  0  -0.693621  0  2.100876  0  0  -0.409333  -0.655945  0  2.118095  0
O  O94  1  0.27953913  0.35521768  0.95566917  1  0  -0.696956  0  1.89264  0  0  -0.650865  0  2.121972  0  0  -0.673972  0  2.112974  0  0  -0.391602  -0.63459  0  2.127464  0
O  O95  1  0.72046626  0.64479438  0.04434383  1  0  -0.696976  0  1.8927  0  0  -0.650886  0  2.122005  0  0  -0.673995  0  2.113006  0  0  -0.391554  -0.634619  0  2.127504  0
O  O96  1  0.13271601  0.48263993  0.11700846  1  0  -0.823454  0  2.162334  0  0  -0.755788  0  2.420942  0  0  -0.781892  0  2.410491  0  0  -0.449875  -0.737156  0  2.426517  0
O  O97  1  0.86727880  0.51735926  0.88299411  1  0  -0.823526  0  2.162328  0  0  -0.755855  0  2.420911  0  0  -0.78196  0  2.410457  0  0  -0.449849  -0.737226  0  2.426486  0
O  O98  1  0.22156405  0.62467956  0.32283975  1  0  -0.676486  0  1.928713  0  0  -0.631081  0  2.162683  0  0  -0.6539  0  2.154479  0  0  -0.363023  -0.615147  0  2.168268  0
O  O99  1  0.77844588  0.37532846  0.67716102  1  0  -0.676555  0  1.928584  0  0  -0.631115  0  2.162537  0  0  -0.653939  0  2.154346  0  0  -0.363055  -0.615185  0  2.168121  0
