# generated using pymatgen
data_ZnH15C12N2O5
_symmetry_space_group_name_H-M   'P 1'
_cell_length_a   5.21082564
_cell_length_b   9.14935737
_cell_length_c   16.32021418
_cell_angle_alpha   96.83278206
_cell_angle_beta   97.26559471
_cell_angle_gamma   100.64174848
_symmetry_Int_Tables_number   1
_chemical_formula_structural   ZnH15C12N2O5
_chemical_formula_sum   'Zn2 H30 C24 N4 O10'
_cell_volume   750.42845876
_cell_formula_units_Z   2
loop_
 _symmetry_equiv_pos_site_id
 _symmetry_equiv_pos_as_xyz
  1  'x, y, z'
loop_
 _atom_site_type_symbol
 _atom_site_label
 _atom_site_symmetry_multiplicity
 _atom_site_fract_x
 _atom_site_fract_y
 _atom_site_fract_z
 _atom_site_occupancy
 _atom_site_hle17_bader_spin_density
 _atom_site_hle17_ddec_charge
 _atom_site_hle17_ddec_spin_density
 _atom_site_hle17_ddec_sum_bond_order
 _atom_site_hle17_magmom
 _atom_site_hse06_10hf_bader_spin_density
 _atom_site_hse06_10hf_ddec_charge
 _atom_site_hse06_10hf_ddec_spin_density
 _atom_site_hse06_10hf_ddec_sum_bond_order
 _atom_site_hse06_10hf_magmom
 _atom_site_hse06_bader_spin_density
 _atom_site_hse06_ddec_charge
 _atom_site_hse06_ddec_spin_density
 _atom_site_hse06_ddec_sum_bond_order
 _atom_site_hse06_magmom
 _atom_site_pbe_bader_spin_density
 _atom_site_pbe_cm5_charge
 _atom_site_pbe_ddec_charge
 _atom_site_pbe_ddec_spin_density
 _atom_site_pbe_ddec_sum_bond_order
 _atom_site_pbe_magmom
Zn  Zn0  1  0.86662053  0.89759269  0.64055905  1  0  1.07645  0  1.762603  0  0  0.884454  0  2.2318  0  0  0.934694  0  2.172954  0  0  0.683281  0.848677  0  2.272785  0
Zn  Zn1  1  0.13337871  0.10240778  0.35943927  1  0  1.076413  0  1.7626  0  0  0.884418  0  2.231801  0  0  0.934666  0  2.172955  0  0  0.683268  0.848636  0  2.27279  0
H  H2  1  0.20685896  0.73907663  0.73915923  1  0  0.090049  0  0.961868  0  0  0.099045  0  1.022528  0  0  0.101331  0  1.020288  0  0  0.121686  0.097295  0  1.024218  0
H  H3  1  0.79314151  0.26092720  0.26083813  1  0  0.09007  0  0.961805  0  0  0.099002  0  1.022537  0  0  0.101287  0  1.020298  0  0  0.121682  0.09725  0  1.024226  0
H  H4  1  0.04713626  0.16556618  0.77278137  1  0  0.086513  0  0.943727  0  0  0.09687  0  1.002166  0  0  0.09895  0  1.000706  0  0  0.122367  0.095239  0  1.003399  0
H  H5  1  0.95286615  0.83443766  0.22721607  1  0  0.08646  0  0.943655  0  0  0.096836  0  1.002074  0  0  0.098911  0  1.000614  0  0  0.122359  0.095204  0  1.003302  0
H  H6  1  0.49024034  0.35292540  0.71203184  1  0  0.060436  0  0.941348  0  0  0.076176  0  1.004339  0  0  0.078022  0  1.003163  0  0  0.083721  0.074829  0  1.005188  0
H  H7  1  0.50976498  0.64707057  0.28796767  1  0  0.060526  0  0.941317  0  0  0.076269  0  1.004296  0  0  0.078118  0  1.003122  0  0  0.083796  0.074925  0  1.005142  0
H  H8  1  0.21051050  0.25444331  0.64061646  1  0  0.059443  0  0.956501  0  0  0.077285  0  1.019722  0  0  0.077702  0  1.020786  0  0  0.085929  0.076906  0  1.018877  0
H  H9  1  0.78949177  0.74555492  0.35938369  1  0  0.059483  0  0.956511  0  0  0.077322  0  1.019738  0  0  0.077742  0  1.020803  0  0  0.085906  0.076939  0  1.018895  0
H  H10  1  0.47588881  0.23867947  0.52653283  1  0  0.109366  0  0.949307  0  0  0.123089  0  1.011488  0  0  0.125522  0  1.010911  0  0  0.100564  0.121293  0  1.01221  0
H  H11  1  0.52410766  0.76131878  0.47346708  1  0  0.109364  0  0.949252  0  0  0.12308  0  1.011452  0  0  0.125503  0  1.010869  0  0  0.100556  0.121279  0  1.012172  0
H  H12  1  0.75332271  0.35575759  0.58925676  1  0  0.109773  0  0.930317  0  0  0.126752  0  0.987685  0  0  0.128374  0  0.987798  0  0  0.104851  0.125559  0  0.987665  0
H  H13  1  0.24668109  0.64423951  0.41074277  1  0  0.109759  0  0.930316  0  0  0.126744  0  0.987682  0  0  0.128357  0  0.987787  0  0  0.104863  0.125547  0  0.98766  0
H  H14  1  0.59854169  0.80936927  0.85299363  1  0  0.111179  0  0.946918  0  0  0.117099  0  1.009935  0  0  0.121118  0  1.007953  0  0  0.111824  0.114043  0  1.01193  0
H  H15  1  0.40145256  0.19063348  0.14700524  1  0  0.111172  0  0.94699  0  0  0.117089  0  1.010002  0  0  0.121108  0  1.00802  0  0  0.111812  0.114027  0  1.011997  0
H  H16  1  0.41822406  0.25270705  0.89063106  1  0  0.098538  0  0.944328  0  0  0.113765  0  0.995927  0  0  0.116171  0  0.996107  0  0  0.110352  0.111749  0  0.996555  0
H  H17  1  0.58177253  0.74729682  0.10936860  1  0  0.098555  0  0.944342  0  0  0.113779  0  0.995945  0  0  0.116191  0  0.996117  0  0  0.110383  0.111758  0  0.996579  0
H  H18  1  0.27249040  0.47383028  0.55491258  1  0  0.110915  0  0.912495  0  0  0.129317  0  0.966906  0  0  0.131536  0  0.966074  0  0  0.102653  0.127528  0  0.967686  0
H  H19  1  0.72752234  0.52617019  0.44508998  1  0  0.110992  0  0.912432  0  0  0.129338  0  0.966894  0  0  0.131558  0  0.966059  0  0  0.102675  0.127546  0  0.967679  0
H  H20  1  0.17636770  0.51637694  0.65219620  1  0  0.11353  0  0.943614  0  0  0.129194  0  1.003879  0  0  0.131789  0  1.002446  0  0  0.101294  0.127405  0  1.005005  0
H  H21  1  0.82364035  0.48362129  0.34780602  1  0  0.113564  0  0.943578  0  0  0.129209  0  1.003847  0  0  0.131803  0  1.002416  0  0  0.101285  0.127424  0  1.004969  0
H  H22  1  0.88209727  0.31969942  0.94283464  1  0  0.123185  0  0.930608  0  0  0.148298  0  0.982642  0  0  0.149246  0  0.982841  0  0  0.101157  0.148061  0  0.981291  0
H  H23  1  0.11789961  0.68029996  0.05716597  1  0  0.123179  0  0.930559  0  0  0.148264  0  0.982626  0  0  0.149212  0  0.982825  0  0  0.101156  0.148034  0  0.981272  0
H  H24  1  0.01986995  0.26182689  0.03737083  1  0  0.131798  0  0.958855  0  0  0.146466  0  1.023909  0  0  0.149974  0  1.021018  0  0  0.099744  0.143845  0  1.025758  0
H  H25  1  0.98012458  0.73817137  0.96262961  1  0  0.131746  0  0.958892  0  0  0.146418  0  1.023943  0  0  0.149926  0  1.021053  0  0  0.099734  0.143807  0  1.025783  0
H  H26  1  0.68071402  0.27560482  0.01978451  1  0  0.124445  0  0.937572  0  0  0.147618  0  0.99451  0  0  0.148708  0  0.994646  0  0  0.100589  0.146514  0  0.99492  0
H  H27  1  0.31928175  0.72439680  0.98021558  1  0  0.124402  0  0.937544  0  0  0.147569  0  0.994498  0  0  0.148661  0  0.994631  0  0  0.100556  0.146469  0  0.994909  0
H  H28  1  0.24976857  0.77758886  0.58423326  1  0  0.427569  0  0.879102  0  0  0.393111  0  0.948377  0  0  0.404377  0  0.932318  0  0  0.290161  0.385056  0  0.95986  0
H  H29  1  0.75023410  0.22241052  0.41576820  1  0  0.427572  0  0.8791  0  0  0.393104  0  0.948392  0  0  0.40437  0  0.932331  0  0  0.290176  0.38505  0  0.959871  0
H  H30  1  0.12572253  0.86289126  0.51277381  1  0  0.431284  0  0.870742  0  0  0.399024  0  0.934963  0  0  0.410592  0  0.918508  0  0  0.290345  0.39082  0  0.946625  0
H  H31  1  0.87428209  0.13710808  0.48722528  1  0  0.431251  0  0.870802  0  0  0.399001  0  0.934994  0  0  0.41057  0  0.91854  0  0  0.290345  0.3908  0  0.946652  0
C  C32  1  0.67074922  0.13633141  0.62004960  1  0  0.691223  0  3.827066  0  0  0.64328  0  4.123584  0  0  0.676409  0  4.116981  0  0  0.204574  0.620625  0  4.127801  0
C  C33  1  0.32925072  0.86366569  0.37994854  1  0  0.691185  0  3.827228  0  0  0.643283  0  4.123692  0  0  0.676398  0  4.117084  0  0  0.204589  0.620622  0  4.127909  0
C  C34  1  0.26622032  0.85182177  0.77406714  1  0  0.148048  0  3.675726  0  0  0.114609  0  3.925323  0  0  0.122534  0  3.942661  0  0  0.056033  0.109499  0  3.913378  0
C  C35  1  0.73377864  0.14818320  0.22593023  1  0  0.148122  0  3.675694  0  0  0.114735  0  3.925279  0  0  0.122665  0  3.942622  0  0  0.056104  0.109621  0  3.913329  0
C  C36  1  0.17472814  0.09083728  0.79324186  1  0  0.149902  0  3.68552  0  0  0.113349  0  3.945723  0  0  0.121741  0  3.962667  0  0  0.057448  0.108048  0  3.93382  0
C  C37  1  0.82526846  0.90916658  0.20675596  1  0  0.149827  0  3.685459  0  0  0.113279  0  3.945672  0  0  0.121684  0  3.962614  0  0  0.05736  0.107989  0  3.933757  0
C  C38  1  0.39725033  0.33606560  0.64644644  1  0  -0.050847  0  3.718635  0  0  -0.094421  0  3.978194  0  0  -0.093775  0  3.991767  0  0  -0.171204  -0.094427  0  3.968206  0
C  C39  1  0.60275580  0.66393263  0.35355448  1  0  -0.051093  0  3.718662  0  0  -0.094695  0  3.978237  0  0  -0.094073  0  3.991806  0  0  -0.171303  -0.094707  0  3.968245  0
C  C40  1  0.54223489  0.03739664  0.88224171  1  0  0.072006  0  3.709431  0  0  0.072242  0  3.957489  0  0  0.076009  0  3.978666  0  0  0.014713  0.069957  0  3.943138  0
C  C41  1  0.45775784  0.96260724  0.11775779  1  0  0.072028  0  3.709254  0  0  0.072271  0  3.957314  0  0  0.076037  0  3.978494  0  0  0.014769  0.069983  0  3.942966  0
C  C42  1  0.57571936  0.27042575  0.59142802  1  0  -0.271979  0  3.676483  0  0  -0.304791  0  3.9192  0  0  -0.311574  0  3.928682  0  0  -0.167187  -0.300261  0  3.912948  0
C  C43  1  0.42428292  0.72957247  0.40857090  1  0  -0.271863  0  3.67643  0  0  -0.304705  0  3.919199  0  0  -0.311427  0  3.928613  0  0  -0.167172  -0.300158  0  3.912923  0
C  C44  1  0.47827913  0.89077647  0.83810796  1  0  -0.127439  0  3.676794  0  0  -0.144969  0  3.932134  0  0  -0.152485  0  3.952302  0  0  -0.072163  -0.140218  0  3.918712  0
C  C45  1  0.52171665  0.10922514  0.16189029  1  0  -0.1275  0  3.676897  0  0  -0.145014  0  3.932205  0  0  -0.15253  0  3.952374  0  0  -0.072183  -0.140255  0  3.918773  0
C  C46  1  0.38205637  0.13760450  0.85897018  1  0  -0.130937  0  3.677549  0  0  -0.150112  0  3.932714  0  0  -0.157563  0  3.95338  0  0  -0.076152  -0.145543  0  3.919212  0
C  C47  1  0.61793981  0.86239824  0.14102878  1  0  -0.130948  0  3.677462  0  0  -0.150127  0  3.932631  0  0  -0.157582  0  3.953292  0  0  -0.076209  -0.145564  0  3.919136  0
C  C48  1  0.77089004  0.08389538  0.94961222  1  0  0.262763  0  3.656505  0  0  0.26768  0  3.918435  0  0  0.275495  0  3.934406  0  0  0.154637  0.262262  0  3.907529  0
C  C49  1  0.22909717  0.91610403  0.05038860  1  0  0.262746  0  3.656461  0  0  0.267635  0  3.918417  0  0  0.27545  0  3.93439  0  0  0.154593  0.262208  0  3.907531  0
C  C50  1  0.34046106  0.48419949  0.62254096  1  0  -0.277007  0  3.672618  0  0  -0.314474  0  3.924785  0  0  -0.320902  0  3.93382  0  0  -0.167868  -0.309927  0  3.918177  0
C  C51  1  0.65954547  0.51579988  0.37746189  1  0  -0.277083  0  3.672551  0  0  -0.314442  0  3.924632  0  0  -0.320869  0  3.933674  0  0  -0.167874  -0.309895  0  3.918028  0
C  C52  1  0.57551236  0.61467540  0.64610604  1  0  0.694801  0  3.832285  0  0  0.648309  0  4.130663  0  0  0.680567  0  4.12545  0  0  0.20779  0.626329  0  4.133324  0
C  C53  1  0.42448989  0.38532285  0.35389656  1  0  0.694704  0  3.83258  0  0  0.648191  0  4.130968  0  0  0.680449  0  4.125759  0  0  0.207747  0.626213  0  4.133622  0
C  C54  1  0.84501038  0.24485274  0.98994437  1  0  -0.385262  0  3.735289  0  0  -0.467631  0  3.96924  0  0  -0.4703  0  3.975378  0  0  -0.239722  -0.464909  0  3.963402  0
C  C55  1  0.15498415  0.75514553  0.01005669  1  0  -0.385127  0  3.735267  0  0  -0.467462  0  3.96922  0  0  -0.470133  0  3.975358  0  0  -0.239644  -0.464748  0  3.963378  0
N  N56  1  0.11816986  0.95069560  0.75088444  1  0  -0.330512  0  3.298817  0  0  -0.246134  0  3.582496  0  0  -0.265966  0  3.59526  0  0  -0.324533  -0.232579  0  3.573367  0
N  N57  1  0.88183103  0.04930936  0.24911301  1  0  -0.330446  0  3.298853  0  0  -0.246081  0  3.582513  0  0  -0.265931  0  3.59529  0  0  -0.32447  -0.232525  0  3.573377  0
N  N58  1  0.89281613  0.97732378  0.96910489  1  0  -0.246183  0  3.054848  0  0  -0.22183  0  3.337478  0  0  -0.232158  0  3.356675  0  0  -0.20631  -0.215112  0  3.325044  0
N  N59  1  0.10716637  0.02267342  0.03089805  1  0  -0.246088  0  3.054786  0  0  -0.221729  0  3.337438  0  0  -0.232057  0  3.356636  0  0  -0.206269  -0.215006  0  3.325001  0
O  O60  1  0.79862384  0.06326329  0.57063725  1  0  -0.677094  0  2.019428  0  0  -0.592251  0  2.265023  0  0  -0.622276  0  2.250607  0  0  -0.327807  -0.570763  0  2.274613  0
O  O61  1  0.20137458  0.93673495  0.42936151  1  0  -0.677105  0  2.019472  0  0  -0.592246  0  2.265016  0  0  -0.622305  0  2.250658  0  0  -0.327797  -0.570757  0  2.274607  0
O  O62  1  0.63642894  0.09591729  0.68927353  1  0  -0.627059  0  1.958014  0  0  -0.573897  0  2.194319  0  0  -0.599482  0  2.188707  0  0  -0.315488  -0.55613  0  2.197612  0
O  O63  1  0.36356906  0.90407983  0.31072575  1  0  -0.627065  0  1.958108  0  0  -0.573922  0  2.194398  0  0  -0.599503  0  2.188788  0  0  -0.315532  -0.556158  0  2.197693  0
O  O64  1  0.78789170  0.60321540  0.68678198  1  0  -0.614657  0  1.905386  0  0  -0.570081  0  2.124034  0  0  -0.592642  0  2.115744  0  0  -0.322833  -0.554267  0  2.129437  0
O  O65  1  0.21211910  0.39678509  0.31322112  1  0  -0.614558  0  1.905639  0  0  -0.569959  0  2.124271  0  0  -0.592521  0  2.115983  0  0  -0.322745  -0.554148  0  2.129672  0
O  O66  1  0.53705428  0.74159367  0.62134576  1  0  -0.703134  0  2.125069  0  0  -0.615461  0  2.392788  0  0  -0.647122  0  2.378472  0  0  -0.330671  -0.592957  0  2.401893  0
O  O67  1  0.46294990  0.25840459  0.37865692  1  0  -0.703088  0  2.125095  0  0  -0.615415  0  2.392827  0  0  -0.647073  0  2.378509  0  0  -0.330688  -0.592912  0  2.401926  0
O  O68  1  0.08253220  0.80698338  0.56044912  1  0  -0.841138  0  1.900306  0  0  -0.771013  0  2.125473  0  0  -0.79464  0  2.087883  0  0  -0.583789  -0.754473  0  2.152008  0
O  O69  1  0.91747242  0.19301597  0.43955058  1  0  -0.841122  0  1.900365  0  0  -0.771006  0  2.125564  0  0  -0.794635  0  2.087971  0  0  -0.583818  -0.754471  0  2.152099  0
