# generated using pymatgen
data_MgH8C13NO5
_symmetry_space_group_name_H-M   'P 1'
_cell_length_a   12.09744414
_cell_length_b   12.45444305
_cell_length_c   12.36490000
_cell_angle_alpha   94.68876722
_cell_angle_beta   112.04073647
_cell_angle_gamma   112.22146492
_symmetry_Int_Tables_number   1
_chemical_formula_structural   MgH8C13NO5
_chemical_formula_sum   'Mg4 H32 C52 N4 O20'
_cell_volume   1543.31543358
_cell_formula_units_Z   4
loop_
 _symmetry_equiv_pos_site_id
 _symmetry_equiv_pos_as_xyz
  1  'x, y, z'
loop_
 _atom_site_type_symbol
 _atom_site_label
 _atom_site_symmetry_multiplicity
 _atom_site_fract_x
 _atom_site_fract_y
 _atom_site_fract_z
 _atom_site_occupancy
 _atom_site_hle17_bader_spin_density
 _atom_site_hle17_ddec_charge
 _atom_site_hle17_ddec_spin_density
 _atom_site_hle17_ddec_sum_bond_order
 _atom_site_hle17_magmom
 _atom_site_hse06_10hf_bader_spin_density
 _atom_site_hse06_10hf_ddec_charge
 _atom_site_hse06_10hf_ddec_spin_density
 _atom_site_hse06_10hf_ddec_sum_bond_order
 _atom_site_hse06_10hf_magmom
 _atom_site_hse06_bader_spin_density
 _atom_site_hse06_ddec_charge
 _atom_site_hse06_ddec_spin_density
 _atom_site_hse06_ddec_sum_bond_order
 _atom_site_hse06_magmom
 _atom_site_pbe_bader_charge
 _atom_site_pbe_bader_spin_density
 _atom_site_pbe_cm5_charge
 _atom_site_pbe_ddec_charge
 _atom_site_pbe_ddec_spin_density
 _atom_site_pbe_ddec_sum_bond_order
 _atom_site_pbe_magmom
Mg  Mg0  1  0.74983800  0.69571950  0.30383337  1  0  1.507737  0  1.157697  0  0  1.404557  0  1.408737  0  0  1.42775  0  1.373069  0  1.697282  0  0.831509  1.388706  0  1.432377  0
Mg  Mg1  1  0.25016177  0.30427964  0.69616656  1  0  1.507733  0  1.157722  0  0  1.40457  0  1.408723  0  0  1.42776  0  1.373056  0  1.697283  0  0.831503  1.388715  0  1.432373  0
Mg  Mg2  1  0.50000010  0.50000002  0.00000008  1  0  1.490126  0  1.119619  0  0  1.379197  0  1.377298  0  0  1.40576  0  1.337411  0  1.698014  0  0.801243  1.360535  0  1.405148  0
Mg  Mg3  1  0.00000000  0.00000000  0.50000000  1  0  1.487312  0  1.123935  0  0  1.377494  0  1.379606  0  0  1.403652  0  1.340172  0  1.697459  0  0.800543  1.359221  0  1.407073  0
H  H4  1  0.59939903  0.93074315  0.89279027  1  0  0.113491  0  0.937578  0  0  0.127266  0  0.987641  0  0  0.130217  0  0.987101  0  0.079682  0  0.118386  0.125066  0  0.988402  0
H  H5  1  0.90097280  0.10614166  0.06959585  1  0  0.113313  0  0.939017  0  0  0.127043  0  0.989014  0  0  0.130001  0  0.988449  0  0.080358  0  0.118479  0.124741  0  0.989934  0
H  H6  1  0.40060207  0.06925688  0.10721022  1  0  0.113535  0  0.937631  0  0  0.12729  0  0.98771  0  0  0.130242  0  0.987167  0  0.079671  0  0.118387  0.125089  0  0.98847  0
H  H7  1  0.09902518  0.89385748  0.93040422  1  0  0.113344  0  0.939042  0  0  0.127078  0  0.989029  0  0  0.130037  0  0.988464  0  0.080357  0  0.118508  0.124777  0  0.989948  0
H  H8  1  0.64744840  0.76339609  0.96158194  1  0  0.13281  0  0.950079  0  0  0.135979  0  1.016567  0  0  0.139909  0  1.013239  0  0.202043  0  0.139746  0.133119  0  1.018964  0
H  H9  1  0.85219928  0.03723785  0.23818691  1  0  0.133528  0  0.951224  0  0  0.13697  0  1.017016  0  0  0.140958  0  1.013664  0  0.195774  0  0.140316  0.134049  0  1.019458  0
H  H10  1  0.35255314  0.23660484  0.03841878  1  0  0.132796  0  0.950114  0  0  0.13596  0  1.016598  0  0  0.13989  0  1.013271  0  0.202011  0  0.139739  0.133099  0  1.018996  0
H  H11  1  0.14780136  0.96276308  0.76181429  1  0  0.13354  0  0.95122  0  0  0.136969  0  1.017017  0  0  0.140955  0  1.013667  0  0.195925  0  0.140328  0.134047  0  1.019461  0
H  H12  1  0.44265973  0.93491533  0.15602890  1  0  0.113562  0  0.936546  0  0  0.128706  0  0.983949  0  0  0.131707  0  0.983276  0  0.084786  0  0.120322  0.126478  0  0.984698  0
H  H13  1  0.05709110  0.84497365  0.06435780  1  0  0.114342  0  0.937085  0  0  0.129331  0  0.984382  0  0  0.132347  0  0.983691  0  0.077514  0  0.120658  0.12715  0  0.985079  0
H  H14  1  0.55734004  0.06508380  0.84397183  1  0  0.113585  0  0.936553  0  0  0.128714  0  0.983972  0  0  0.131731  0  0.983271  0  0.084772  0  0.120346  0.126493  0  0.98472  0
H  H15  1  0.94290688  0.15502548  0.93564066  1  0  0.114349  0  0.937059  0  0  0.129339  0  0.984355  0  0  0.132354  0  0.983666  0  0.077439  0  0.120658  0.127158  0  0.985053  0
H  H16  1  0.02378123  0.58698416  0.33489466  1  0  0.099651  0  0.93894  0  0  0.109208  0  0.996966  0  0  0.112995  0  0.994685  0  0.098044  0  0.103895  0.106478  0  0.998655  0
H  H17  1  0.47629184  0.66567695  0.41186189  1  0  0.099638  0  0.937895  0  0  0.109407  0  0.995813  0  0  0.113241  0  0.993445  0  0.088519  0  0.104076  0.106622  0  0.997584  0
H  H18  1  0.97621898  0.41301588  0.66510631  1  0  0.099642  0  0.938953  0  0  0.109209  0  0.996971  0  0  0.112996  0  0.994688  0  0.097992  0  0.103895  0.106479  0  0.998659  0
H  H19  1  0.52370836  0.33432308  0.58813826  1  0  0.099647  0  0.937884  0  0  0.109408  0  0.995811  0  0  0.113251  0  0.993432  0  0.088529  0  0.104082  0.106624  0  0.997582  0
H  H20  1  0.74901761  0.15251086  0.27283788  1  0  0.087145  0  0.96462  0  0  0.095313  0  1.029811  0  0  0.098777  0  1.027824  0  0.066398  0  0.092736  0.09287  0  1.031165  0
H  H21  1  0.75084016  0.72646909  0.84856197  1  0  0.088255  0  0.963545  0  0  0.096622  0  1.028444  0  0  0.100105  0  1.026424  0  0.059508  0  0.093433  0.094164  0  1.029832  0
H  H22  1  0.25098305  0.84748828  0.72716237  1  0  0.087162  0  0.964604  0  0  0.095346  0  1.029779  0  0  0.098811  0  1.02779  0  0.066407  0  0.092732  0.092903  0  1.031133  0
H  H23  1  0.24915960  0.27353184  0.15143810  1  0  0.088253  0  0.963522  0  0  0.096619  0  1.028424  0  0  0.100101  0  1.026404  0  0.059491  0  0.093427  0.09416  0  1.029812  0
H  H24  1  0.65270006  0.27182667  0.14675301  1  0  0.075893  0  1.013667  0  0  0.082685  0  1.085119  0  0  0.084727  0  1.085802  0  0.096097  0  0.087213  0.081335  0  1.084614  0
H  H25  1  0.84709773  0.85305118  0.72856299  1  0  0.076549  0  1.012986  0  0  0.083298  0  1.084321  0  0  0.085327  0  1.08501  0  0.097566  0  0.087579  0.081947  0  1.083825  0
H  H26  1  0.34730103  0.72817336  0.85324748  1  0  0.075901  0  1.013655  0  0  0.082689  0  1.085112  0  0  0.084732  0  1.085795  0  0.096087  0  0.087225  0.081339  0  1.084607  0
H  H27  1  0.15290291  0.14694975  0.27143740  1  0  0.076512  0  1.013052  0  0  0.083289  0  1.084357  0  0  0.085339  0  1.085024  0  0.097577  0  0.087578  0.081938  0  1.083861  0
H  H28  1  0.12274721  0.46686337  0.45677358  1  0  0.109162  0  0.942949  0  0  0.118792  0  1.001607  0  0  0.122767  0  0.99904  0  0.08875  0  0.108456  0.115946  0  1.003473  0
H  H29  1  0.37734045  0.54336586  0.53272128  1  0  0.109338  0  0.942666  0  0  0.119069  0  1.001172  0  0  0.123127  0  0.998494  0  0.094669  0  0.108732  0.116155  0  1.003135  0
H  H30  1  0.87725210  0.53313666  0.54322625  1  0  0.109164  0  0.942876  0  0  0.118792  0  1.001537  0  0  0.122767  0  0.998971  0  0.088707  0  0.108447  0.115946  0  1.003407  0
H  H31  1  0.62265975  0.45663417  0.46727807  1  0  0.109345  0  0.942657  0  0  0.119078  0  1.001157  0  0  0.123135  0  0.998483  0  0.094445  0  0.108747  0.116165  0  1.003119  0
H  H32  1  0.50391590  0.77087978  0.21502972  1  0  0.148368  0  0.912288  0  0  0.156092  0  0.965968  0  0  0.1604  0  0.961474  0  0.20313  0  0.150724  0.152831  0  0.969401  0
H  H33  1  0.99516679  0.78560009  0.22954058  1  0  0.148716  0  0.911861  0  0  0.156476  0  0.965625  0  0  0.160802  0  0.961089  0  0.198177  0  0.151041  0.153213  0  0.969067  0
H  H34  1  0.49608341  0.22912026  0.78497011  1  0  0.148366  0  0.91229  0  0  0.15609  0  0.965968  0  0  0.160398  0  0.961476  0  0.20311  0  0.15072  0.152829  0  0.969402  0
H  H35  1  0.00483209  0.21439905  0.77045821  1  0  0.148794  0  0.911836  0  0  0.156536  0  0.965623  0  0  0.16086  0  0.961088  0  0.198093  0  0.151068  0.153272  0  0.969065  0
C  C36  1  0.57597567  0.90105547  0.96520975  1  0  -0.136062  0  3.73213  0  0  -0.154843  0  3.984967  0  0  -0.161498  0  4.004313  0  0.07424  0  -0.07081  -0.151087  0  3.972813  0
C  C37  1  0.92387859  0.03412039  0.09946544  1  0  -0.135918  0  3.734989  0  0  -0.154273  0  3.988155  0  0  -0.160934  0  4.007428  0  0.020777  0  -0.071123  -0.150491  0  3.976111  0
C  C38  1  0.42402409  0.09894366  0.03479098  1  0  -0.136069  0  3.732126  0  0  -0.154843  0  3.98496  0  0  -0.161497  0  4.0043  0  0.074232  0  -0.0708  -0.151086  0  3.972803  0
C  C39  1  0.07611895  0.96587784  0.90053360  1  0  -0.135973  0  3.735029  0  0  -0.154355  0  3.988177  0  0  -0.161013  0  4.007446  0  0.020728  0  -0.071146  -0.150572  0  3.976129  0
C  C40  1  0.60573579  0.80953530  0.00133784  1  0  0.023684  0  3.58278  0  0  -0.01913  0  3.850893  0  0  -0.011449  0  3.862223  0  0.305816  0  0.05465  -0.024311  0  3.843902  0
C  C41  1  0.89370919  0.99785824  0.19134697  1  0  0.025071  0  3.585823  0  0  -0.018322  0  3.854102  0  0  -0.010507  0  3.865219  0  0.368221  0  0.055242  -0.02357  0  3.847183  0
C  C42  1  0.39426396  0.19046563  0.99866384  1  0  0.023645  0  3.582683  0  0  -0.019146  0  3.850776  0  0  -0.011469  0  3.86211  0  0.305816  0  0.054637  -0.024328  0  3.843786  0
C  C43  1  0.10628924  0.00213999  0.80865158  1  0  0.025053  0  3.585795  0  0  -0.01831  0  3.854054  0  0  -0.010498  0  3.865177  0  0.367937  0  0.055196  -0.023559  0  3.847142  0
C  C44  1  0.00245121  0.23449360  0.45004065  1  0  0.695415  0  3.880965  0  0  0.643419  0  4.178974  0  0  0.677119  0  4.169278  0  1.61086  0  0.224015  0.620668  0  4.18483  0
C  C45  1  0.49782390  0.54955495  0.76576695  1  0  0.697158  0  3.883901  0  0  0.64372  0  4.183516  0  0  0.677427  0  4.173774  0  1.614173  0  0.223946  0.620951  0  4.189414  0
C  C46  1  0.99754899  0.76550644  0.54996032  1  0  0.695433  0  3.880833  0  0  0.64344  0  4.178823  0  0  0.67714  0  4.169127  0  1.610783  0  0.224024  0.62069  0  4.184679  0
C  C47  1  0.50217630  0.45044508  0.23423321  1  0  0.697212  0  3.883795  0  0  0.643761  0  4.183435  0  0  0.677467  0  4.173692  0  1.614169  0  0.22397  0.620991  0  4.189333  0
C  C48  1  0.51657583  0.95148275  0.01882098  1  0  0.07849  0  3.769411  0  0  0.083983  0  4.012769  0  0  0.08849  0  4.033221  0  -0.022497  0  0.008219  0.080982  0  3.998968  0
C  C49  1  0.98329259  0.98102759  0.04869415  1  0  0.07849  0  3.773611  0  0  0.083315  0  4.018277  0  0  0.087826  0  4.038698  0  0.029395  0  0.007963  0.080312  0  4.004495  0
C  C50  1  0.48342348  0.04851728  0.98117885  1  0  0.078493  0  3.76941  0  0  0.083971  0  4.012765  0  0  0.08848  0  4.033218  0  0.015411  0  0.0082  0.080971  0  3.998966  0
C  C51  1  0.01670406  0.01897065  0.95130375  1  0  0.078508  0  3.77368  0  0  0.083395  0  4.018291  0  0  0.087902  0  4.03871  0  -0.007682  0  0.008005  0.080391  0  4.004509  0
C  C52  1  0.94287004  0.30224026  0.37034995  1  0  -0.062169  0  3.741636  0  0  -0.040437  0  3.972015  0  0  -0.047172  0  3.995745  0  -0.088688  0  -0.019592  -0.035996  0  3.955845  0
C  C53  1  0.55713573  0.62946957  0.69791112  1  0  -0.062528  0  3.746351  0  0  -0.04015  0  3.976694  0  0  -0.046946  0  4.000474  0  -0.07895  0  -0.018871  -0.035664  0  3.960494  0
C  C54  1  0.05713062  0.69775887  0.62964949  1  0  -0.062168  0  3.741681  0  0  -0.040401  0  3.972005  0  0  -0.047136  0  3.995736  0  -0.088612  0  -0.019581  -0.035959  0  3.955834  0
C  C55  1  0.44286671  0.37052957  0.30208978  1  0  -0.062605  0  3.746396  0  0  -0.040228  0  3.976749  0  0  -0.04702  0  4.000526  0  -0.078935  0  -0.018868  -0.035739  0  3.960549  0
C  C56  1  0.76746761  0.50819883  0.16641745  1  0  0.701447  0  3.87886  0  0  0.650508  0  4.17602  0  0  0.685309  0  4.163956  0  1.587972  0  0.222988  0.62684  0  4.183376  0
C  C57  1  0.73248987  0.83383886  0.49137619  1  0  0.703885  0  3.878572  0  0  0.652442  0  4.176132  0  0  0.687274  0  4.164037  0  1.583623  0  0.22374  0.628762  0  4.18348  0
C  C58  1  0.23253260  0.49180120  0.83358271  1  0  0.701452  0  3.878813  0  0  0.650494  0  4.176006  0  0  0.685296  0  4.163941  0  1.587967  0  0.223012  0.626825  0  4.183361  0
C  C59  1  0.26751078  0.16616207  0.50862501  1  0  0.703986  0  3.878499  0  0  0.652546  0  4.176061  0  0  0.687375  0  4.163968  0  1.58368  0  0.223785  0.628864  0  4.183413  0
C  C60  1  0.83274699  0.43542560  0.23091005  1  0  -0.053138  0  3.726318  0  0  -0.032523  0  3.958486  0  0  -0.038425  0  3.980242  0  -0.106887  0  -0.01555  -0.028704  0  3.943786  0
C  C61  1  0.66708992  0.76928960  0.56443581  1  0  -0.056222  0  3.731536  0  0  -0.034975  0  3.96339  0  0  -0.040896  0  3.985122  0  -0.110528  0  -0.016405  -0.031147  0  3.948693  0
C  C62  1  0.16725278  0.56457353  0.76909068  1  0  -0.053172  0  3.726382  0  0  -0.032551  0  3.95856  0  0  -0.038454  0  3.980316  0  -0.106905  0  -0.015565  -0.028732  0  3.943858  0
C  C63  1  0.33291205  0.23071222  0.43556434  1  0  -0.056193  0  3.731544  0  0  -0.034952  0  3.963393  0  0  -0.040869  0  3.985132  0  -0.110549  0  -0.016363  -0.031122  0  3.948697  0
C  C64  1  0.48913560  0.90253783  0.10963926  1  0  -0.129285  0  3.712535  0  0  -0.148993  0  3.963913  0  0  -0.155228  0  3.982021  0  0.071436  0  -0.068079  -0.145055  0  3.952004  0
C  C65  1  0.01051866  0.89062413  0.09730005  1  0  -0.129975  0  3.714045  0  0  -0.149126  0  3.965575  0  0  -0.155362  0  3.983625  0  0.067644  0  -0.067724  -0.145227  0  3.953689  0
C  C66  1  0.51086461  0.09746220  0.89036009  1  0  -0.129352  0  3.712526  0  0  -0.149034  0  3.963892  0  0  -0.155277  0  3.981987  0  0.071454  0  -0.06811  -0.145106  0  3.951993  0
C  C67  1  0.98948022  0.10937500  0.90269874  1  0  -0.130004  0  3.714049  0  0  -0.149161  0  3.965563  0  0  -0.155396  0  3.983612  0  0.067749  0  -0.067746  -0.145261  0  3.953676  0
C  C68  1  0.75628713  0.31269676  0.21294266  1  0  -0.085566  0  3.773776  0  0  -0.10692  0  4.019699  0  0  -0.108872  0  4.042704  0  -0.04363  0  -0.099398  -0.105397  0  4.003681  0
C  C69  1  0.74357452  0.78695308  0.68771492  1  0  -0.084048  0  3.773531  0  0  -0.105463  0  4.019259  0  0  -0.107404  0  4.042246  0  -0.033056  0  -0.098543  -0.103919  0  4.003233  0
C  C70  1  0.24371352  0.68730237  0.78705759  1  0  -0.085501  0  3.773731  0  0  -0.106852  0  4.019653  0  0  -0.108803  0  4.042658  0  -0.043634  0  -0.099393  -0.105328  0  4.003634  0
C  C71  1  0.25642613  0.21304785  0.31228628  1  0  -0.084032  0  3.773635  0  0  -0.105468  0  4.019353  0  0  -0.107429  0  4.042328  0  -0.033037  0  -0.098564  -0.103925  0  4.003327  0
C  C72  1  0.51968214  0.81082990  0.14399046  1  0  0.055999  0  3.537518  0  0  0.014731  0  3.797204  0  0  0.024715  0  3.804644  0  0.352852  0  0.069205  0.008023  0  3.792689  0
C  C73  1  0.97960441  0.85616953  0.18940236  1  0  0.057108  0  3.540864  0  0  0.015415  0  3.800788  0  0  0.025399  0  3.808265  0  0.365651  0  0.070003  0.008687  0  3.796298  0
C  C74  1  0.48031850  0.18917103  0.85600993  1  0  0.056047  0  3.537435  0  0  0.014788  0  3.797085  0  0  0.024769  0  3.804532  0  0.352876  0  0.069242  0.00808  0  3.792573  0
C  C75  1  0.02039357  0.14382960  0.81059610  1  0  0.057064  0  3.540761  0  0  0.015365  0  3.800723  0  0  0.025353  0  3.808192  0  0.365636  0  0.069985  0.008636  0  3.796235  0
C  C76  1  0.81005942  0.24664897  0.28251234  1  0  -0.098107  0  3.780097  0  0  -0.116659  0  4.024873  0  0  -0.118958  0  4.047195  0  -0.050814  0  -0.098057  -0.114725  0  4.009218  0
C  C77  1  0.68986081  0.71715806  0.75400474  1  0  -0.098862  0  3.77848  0  0  -0.117716  0  4.023438  0  0  -0.12  0  4.045697  0  -0.058361  0  -0.098398  -0.11579  0  4.007827  0
C  C78  1  0.18994123  0.75335016  0.71748710  1  0  -0.098199  0  3.78013  0  0  -0.11678  0  4.024902  0  0  -0.11908  0  4.047224  0  -0.05079  0  -0.098075  -0.114847  0  4.009248  0
C  C79  1  0.31014028  0.28284377  0.24599589  1  0  -0.098823  0  3.778371  0  0  -0.117672  0  4.02333  0  0  -0.119957  0  4.045593  0  -0.058341  0  -0.098385  -0.115748  0  4.007719  0
C  C80  1  0.02042424  0.42467264  0.38679289  1  0  -0.07066  0  3.732614  0  0  -0.092876  0  3.98026  0  0  -0.094347  0  4.001481  0  0.008187  0  -0.082049  -0.091756  0  3.965811  0
C  C81  1  0.47954729  0.61330822  0.57494564  1  0  -0.070117  0  3.733114  0  0  -0.092576  0  3.980984  0  0  -0.094113  0  4.002191  0  0.003165  0  -0.082001  -0.091404  0  3.966522  0
C  C82  1  0.97957686  0.57532740  0.61320760  1  0  -0.070629  0  3.732649  0  0  -0.092852  0  3.980286  0  0  -0.094326  0  4.00151  0  0.008011  0  -0.08203  -0.091734  0  3.965836  0
C  C83  1  0.52045335  0.38669271  0.42505476  1  0  -0.070035  0  3.733235  0  0  -0.09249  0  3.981096  0  0  -0.09403  0  4.002307  0  0.003341  0  -0.081982  -0.09132  0  3.966635  0
C  C84  1  0.96564093  0.49081566  0.31858620  1  0  -0.067291  0  3.738439  0  0  -0.090634  0  3.989404  0  0  -0.091901  0  4.010062  0  0.002971  0  -0.082566  -0.089705  0  3.975395  0
C  C85  1  0.53426398  0.68175564  0.50854432  1  0  -0.066458  0  3.736714  0  0  -0.090343  0  3.987974  0  0  -0.091608  0  4.008577  0  0.015585  0  -0.082688  -0.08939  0  3.974013  0
C  C86  1  0.03435927  0.50918438  0.68141477  1  0  -0.067281  0  3.738524  0  0  -0.090635  0  3.989491  0  0  -0.091901  0  4.01015  0  0.003241  0  -0.082554  -0.089706  0  3.975481  0
C  C87  1  0.46573755  0.31824529  0.49145559  1  0  -0.066545  0  3.736814  0  0  -0.090418  0  3.988082  0  0  -0.091693  0  4.00868  0  0.015546  0  -0.082741  -0.089466  0  3.974122  0
N  N88  1  0.57852963  0.76637609  0.09039410  1  0  0.310692  0  3.671638  0  0  0.354209  0  3.944917  0  0  0.354625  0  3.963031  0  -0.638712  0  -0.101513  0.353543  0  3.933152  0
N  N89  1  0.92085987  0.90933963  0.23424095  1  0  0.306986  0  3.676025  0  0  0.350882  0  3.949278  0  0  0.35113  0  3.967445  0  -0.650716  0  -0.103724  0.350369  0  3.937437  0
N  N90  1  0.42147058  0.23362394  0.90960687  1  0  0.310731  0  3.671498  0  0  0.354238  0  3.944774  0  0  0.354655  0  3.962892  0  -0.638691  0  -0.101483  0.353574  0  3.933008  0
N  N91  1  0.07913812  0.09065770  0.76575817  1  0  0.306991  0  3.675944  0  0  0.350892  0  3.949185  0  0  0.351135  0  3.967363  0  -0.650546  0  -0.10371  0.350378  0  3.93735  0
O  O92  1  0.60931060  0.67970100  0.12426152  1  0  -0.644663  0  1.898215  0  0  -0.601591  0  2.146608  0  0  -0.620374  0  2.139265  0  -0.725988  0  -0.248252  -0.589123  0  2.151792  0
O  O93  1  0.89018279  0.87538185  0.32159890  1  0  -0.646045  0  1.906507  0  0  -0.602599  0  2.15446  0  0  -0.621136  0  2.147104  0  -0.728997  0  -0.250424  -0.590372  0  2.159677  0
O  O94  1  0.39068871  0.32029903  0.87573912  1  0  -0.64469  0  1.898174  0  0  -0.601633  0  2.146597  0  0  -0.620409  0  2.139228  0  -0.725988  0  -0.248291  -0.589164  0  2.151773  0
O  O95  1  0.10981698  0.12461728  0.67840021  1  0  -0.646039  0  1.906461  0  0  -0.602613  0  2.154433  0  0  -0.621125  0  2.147053  0  -0.729068  0  -0.250409  -0.590381  0  2.15965  0
O  O96  1  0.82735580  0.62185292  0.21290994  1  0  -0.753478  0  2.023068  0  0  -0.702312  0  2.264613  0  0  -0.72573  0  2.251007  0  -1.252351  0  -0.367623  -0.685155  0  2.2731  0
O  O97  1  0.67281680  0.78736634  0.37713481  1  0  -0.753431  0  2.029131  0  0  -0.702131  0  2.271247  0  0  -0.725707  0  2.257915  0  -1.25127  0  -0.367424  -0.684822  0  2.279523  0
O  O98  1  0.17264441  0.37814711  0.78709022  1  0  -0.753508  0  2.023034  0  0  -0.70233  0  2.26458  0  0  -0.725752  0  2.250975  0  -1.252331  0  -0.367638  -0.685174  0  2.273069  0
O  O99  1  0.32718252  0.21263369  0.62286421  1  0  -0.753496  0  2.029203  0  0  -0.702199  0  2.271321  0  0  -0.725775  0  2.25799  0  -1.251291  0  -0.367469  -0.684891  0  2.2796  0
O  O100  1  0.11890497  0.29558490  0.53361080  1  0  -0.712002  0  2.054275  0  0  -0.659544  0  2.297651  0  0  -0.682154  0  2.285843  0  -1.249422  0  -0.354784  -0.644025  0  2.305453  0
O  O101  1  0.38166339  0.46585177  0.70452701  1  0  -0.712539  0  2.053914  0  0  -0.659524  0  2.297723  0  0  -0.682066  0  2.285758  0  -1.251491  0  -0.354312  -0.644059  0  2.305676  0
O  O102  1  0.88109568  0.70441603  0.46638959  1  0  -0.712021  0  2.054274  0  0  -0.659571  0  2.297651  0  0  -0.682175  0  2.285833  0  -1.2494  0  -0.354815  -0.644054  0  2.305456  0
O  O103  1  0.61833860  0.53414826  0.29547461  1  0  -0.712591  0  2.053852  0  0  -0.659569  0  2.297662  0  0  -0.682112  0  2.285697  0  -1.251514  0  -0.354351  -0.644105  0  2.305616  0
O  O104  1  0.93306153  0.12144323  0.42818371  1  0  -0.722814  0  2.002209  0  0  -0.668772  0  2.23753  0  0  -0.691731  0  2.224476  0  -1.234128  0  -0.355337  -0.652639  0  2.245879  0
O  O105  1  0.56742050  0.57150021  0.87938641  1  0  -0.725681  0  2.005569  0  0  -0.670799  0  2.242002  0  0  -0.693715  0  2.228713  0  -1.239561  0  -0.358311  -0.65467  0  2.250534  0
O  O106  1  0.06693911  0.87855770  0.57181668  1  0  -0.722805  0  2.002088  0  0  -0.668763  0  2.237398  0  0  -0.691721  0  2.224346  0  -1.234135  0  -0.355317  -0.652629  0  2.245747  0
O  O107  1  0.43258148  0.42850162  0.12061455  1  0  -0.725668  0  2.005582  0  0  -0.670776  0  2.242012  0  0  -0.693692  0  2.228724  0  -1.239526  0  -0.358291  -0.654647  0  2.250543  0
O  O108  1  0.65532753  0.45308728  0.07474540  1  0  -0.708253  0  2.008554  0  0  -0.656599  0  2.245949  0  0  -0.679858  0  2.234515  0  -1.237276  0  -0.35171  -0.640126  0  2.253119  0
O  O109  1  0.84440487  0.92543000  0.54672581  1  0  -0.709321  0  2.007074  0  0  -0.657964  0  2.24484  0  0  -0.681111  0  2.233239  0  -1.235621  0  -0.352902  -0.641563  0  2.252081  0
O  O110  1  0.34467356  0.54691275  0.92525508  1  0  -0.708241  0  2.008541  0  0  -0.656579  0  2.245941  0  0  -0.679837  0  2.234507  0  -1.237287  0  -0.351736  -0.640105  0  2.25311  0
O  O111  1  0.15559533  0.07457003  0.45327354  1  0  -0.709372  0  2.007025  0  0  -0.658022  0  2.244802  0  0  -0.681167  0  2.233201  0  -1.235605  0  -0.352917  -0.641619  0  2.252044  0
