# generated using pymatgen
data_YbH24C24(NO2)6
_symmetry_space_group_name_H-M   'P 1'
_cell_length_a   15.72930141
_cell_length_b   15.72931415
_cell_length_c   16.77303172
_cell_angle_alpha   90.00010097
_cell_angle_beta   89.99980004
_cell_angle_gamma   120.00001006
_symmetry_Int_Tables_number   1
_chemical_formula_structural   YbH24C24(NO2)6
_chemical_formula_sum   'Yb4 H96 C96 N24 O48'
_cell_volume   3593.86183594
_cell_formula_units_Z   4
loop_
 _symmetry_equiv_pos_site_id
 _symmetry_equiv_pos_as_xyz
  1  'x, y, z'
loop_
 _atom_site_type_symbol
 _atom_site_label
 _atom_site_symmetry_multiplicity
 _atom_site_fract_x
 _atom_site_fract_y
 _atom_site_fract_z
 _atom_site_occupancy
 _atom_site_pbe_bader_charge
 _atom_site_pbe_bader_spin_density
 _atom_site_pbe_cm5_charge
 _atom_site_pbe_ddec_charge
 _atom_site_pbe_ddec_spin_density
 _atom_site_pbe_ddec_sum_bond_order
 _atom_site_pbe_magmom
Yb  Yb0  1  0.66666697  0.33333518  0.17343116  1  2.147487  0  1.593652  1.922358  0  2.287545  0
Yb  Yb1  1  0.33333494  0.66666639  0.32656947  1  2.147533  0  1.593656  1.922351  0  2.287552  0
Yb  Yb2  1  0.33333274  0.66666512  0.82657031  1  2.147494  0  1.593653  1.922356  0  2.287574  0
Yb  Yb3  1  0.66666514  0.33333355  0.67343081  1  2.147618  0  1.593667  1.922347  0  2.287543  0
H  H4  1  0.74997614  0.26308305  0.99593343  1  0.08779  0  0.106995  0.128449  0  1.011622  0
H  H5  1  0.73691249  0.48688944  0.99593185  1  0.087334  0  0.106995  0.12848  0  1.011591  0
H  H6  1  0.51310803  0.25002386  0.99593262  1  0.082804  0  0.106974  0.128415  0  1.011608  0
H  H7  1  0.26308492  0.74997439  0.50406708  1  0.087772  0  0.106978  0.128417  0  1.011634  0
H  H8  1  0.25002574  0.51310789  0.50406751  1  0.082809  0  0.107008  0.128452  0  1.011591  0
H  H9  1  0.48688936  0.73691308  0.50406790  1  0.087342  0  0.106967  0.128417  0  1.011602  0
H  H10  1  0.25002230  0.73691599  0.00406744  1  0.087771  0  0.106974  0.128436  0  1.011615  0
H  H11  1  0.26308659  0.51311023  0.00406843  1  0.087352  0  0.106991  0.128464  0  1.011626  0
H  H12  1  0.48689151  0.74997407  0.00406766  1  0.082823  0  0.107008  0.128451  0  1.011584  0
H  H13  1  0.73691553  0.25002518  0.49593260  1  0.087789  0  0.106986  0.128445  0  1.011619  0
H  H14  1  0.74997524  0.48689368  0.49593277  1  0.082854  0  0.106988  0.128407  0  1.01168  0
H  H15  1  0.51310972  0.26308659  0.49593238  1  0.087329  0  0.106968  0.128416  0  1.011618  0
H  H16  1  0.80893619  0.15824963  0.93369405  1  0.057587  0  0.102902  0.100055  0  1.011518  0
H  H17  1  0.84174639  0.65068667  0.93369560  1  0.056917  0  0.102921  0.100051  0  1.011522  0
H  H18  1  0.34931350  0.19106351  0.93369483  1  0.059008  0  0.102933  0.100087  0  1.011543  0
H  H19  1  0.15825141  0.80893658  0.56630471  1  0.05759  0  0.102917  0.10005  0  1.011472  0
H  H20  1  0.19106267  0.34931222  0.56630547  1  0.059012  0  0.102923  0.100056  0  1.011515  0
H  H21  1  0.65068623  0.84174720  0.56630453  1  0.056927  0  0.102925  0.100095  0  1.011515  0
H  H22  1  0.19105924  0.84174859  0.06630503  1  0.057236  0  0.102926  0.100061  0  1.011539  0
H  H23  1  0.15825232  0.34931336  0.06630468  1  0.056918  0  0.102902  0.100018  0  1.011481  0
H  H24  1  0.65068722  0.80893706  0.06630545  1  0.059018  0  0.102909  0.100046  0  1.011541  0
H  H25  1  0.84174967  0.19106363  0.43369497  1  0.05759  0  0.102916  0.100061  0  1.011503  0
H  H26  1  0.80893705  0.65068808  0.43369421  1  0.059003  0  0.102929  0.1001  0  1.011522  0
H  H27  1  0.34931348  0.15825310  0.43369575  1  0.056915  0  0.102919  0.100045  0  1.011527  0
H  H28  1  0.58325424  0.90529301  0.05622934  1  0.051872  0  0.102972  0.099664  0  1.041753  0
H  H29  1  0.09470231  0.67795806  0.05622995  1  0.107643  0  0.102966  0.099623  0  1.041825  0
H  H30  1  0.32203937  0.41674577  0.05622877  1  0.093471  0  0.102974  0.099657  0  1.04175  0
H  H31  1  0.90529596  0.58325364  0.44376910  1  0.051914  0  0.102979  0.099665  0  1.041779  0
H  H32  1  0.41674596  0.32203863  0.44377147  1  0.093459  0  0.102964  0.099645  0  1.041753  0
H  H33  1  0.67795755  0.09470305  0.44377026  1  0.107611  0  0.102969  0.099623  0  1.041826  0
H  H34  1  0.41674256  0.09470512  0.94377034  1  0.051903  0  0.102968  0.099641  0  1.041765  0
H  H35  1  0.90529703  0.32204261  0.94377032  1  0.107622  0  0.10298  0.099648  0  1.041825  0
H  H36  1  0.67796107  0.58325380  0.94377151  1  0.093469  0  0.102941  0.099597  0  1.041802  0
H  H37  1  0.09470623  0.41674546  0.55622999  1  0.051874  0  0.102968  0.099672  0  1.041752  0
H  H38  1  0.58325339  0.67796204  0.55622821  1  0.09344  0  0.102952  0.099624  0  1.041778  0
H  H39  1  0.32204180  0.90529762  0.55622942  1  0.107616  0  0.102959  0.099633  0  1.041783  0
H  H40  1  0.46494210  0.91322113  0.13405328  1  0.147719  0  0.12832  0.099555  0  1.011551  0
H  H41  1  0.08677600  0.55171947  0.13405300  1  0.110752  0  0.128296  0.099545  0  1.011573  0
H  H42  1  0.44827866  0.53505751  0.13405359  1  0.149137  0  0.128321  0.099556  0  1.011521  0
H  H43  1  0.91322256  0.46494225  0.36594645  1  0.14776  0  0.128321  0.099555  0  1.011555  0
H  H44  1  0.53505854  0.44827862  0.36594586  1  0.149131  0  0.128311  0.099567  0  1.011483  0
H  H45  1  0.55171870  0.08677582  0.36594732  1  0.110749  0  0.128299  0.099537  0  1.011586  0
H  H46  1  0.53505560  0.08677863  0.86594581  1  0.147731  0  0.128325  0.099549  0  1.011553  0
H  H47  1  0.91322499  0.44828211  0.86594668  1  0.110767  0  0.128305  0.099543  0  1.01156  0
H  H48  1  0.55172115  0.46494142  0.86594609  1  0.149121  0  0.128319  0.099567  0  1.011482  0
H  H49  1  0.08677889  0.53505759  0.63405324  1  0.147726  0  0.128314  0.099545  0  1.011547  0
H  H50  1  0.46494118  0.55172168  0.63405382  1  0.149129  0  0.128315  0.0996  0  1.011446  0
H  H51  1  0.44828037  0.91322385  0.63405296  1  0.110745  0  0.128299  0.099533  0  1.011578  0
H  H52  1  0.72799540  0.97909898  0.96534865  1  0.055347  0  0.098985  0.100976  0  1.004863  0
H  H53  1  0.02089651  0.74889354  0.96534962  1  0.070924  0  0.099007  0.101003  0  1.004946  0
H  H54  1  0.25110372  0.27200468  0.96534885  1  0.052719  0  0.098974  0.100968  0  1.004911  0
H  H55  1  0.97910148  0.72799537  0.53465011  1  0.05542  0  0.099001  0.101013  0  1.004919  0
H  H56  1  0.27200467  0.25110328  0.53465147  1  0.052704  0  0.098997  0.10103  0  1.004926  0
H  H57  1  0.74889307  0.02089768  0.53465050  1  0.070881  0  0.098996  0.101009  0  1.00496  0
H  H58  1  0.27200204  0.02089978  0.03465043  1  0.055255  0  0.099028  0.101077  0  1.004833  0
H  H59  1  0.97910220  0.25110649  0.03465006  1  0.070928  0  0.098996  0.101004  0  1.004949  0
H  H60  1  0.74889636  0.72799525  0.03465083  1  0.052713  0  0.098994  0.100998  0  1.00494  0
H  H61  1  0.02089997  0.27200447  0.46534958  1  0.055373  0  0.098976  0.100964  0  1.004953  0
H  H62  1  0.72799440  0.74889639  0.46534822  1  0.052701  0  0.098987  0.101004  0  1.004951  0
H  H63  1  0.25110628  0.97910299  0.46534978  1  0.070912  0  0.099  0.100998  0  1.004963  0
H  H64  1  0.49481785  0.11271568  0.15374668  1  0.515265  0  0.31618  0.274727  0  0.991601  0
H  H65  1  0.88728076  0.38209646  0.15374686  1  0.557554  0  0.316212  0.274828  0  0.99157  0
H  H66  1  0.61789773  0.50518283  0.15374621  1  0.512707  0  0.316194  0.274759  0  0.991512  0
H  H67  1  0.11271783  0.49481473  0.34625248  1  0.515231  0  0.316169  0.274734  0  0.991589  0
H  H68  1  0.50518176  0.61789699  0.34625372  1  0.512804  0  0.316184  0.274707  0  0.991584  0
H  H69  1  0.38209703  0.88728157  0.34625236  1  0.557584  0  0.316167  0.27473  0  0.99161  0
H  H70  1  0.50518197  0.88728325  0.84625360  1  0.515256  0  0.316166  0.274715  0  0.991592  0
H  H71  1  0.11272032  0.61790374  0.84625283  1  0.55755  0  0.31624  0.274864  0  0.991536  0
H  H72  1  0.38210262  0.49481811  0.84625407  1  0.512705  0  0.316174  0.274694  0  0.99161  0
H  H73  1  0.88728408  0.50518338  0.65374661  1  0.515271  0  0.316174  0.274747  0  0.991575  0
H  H74  1  0.49481859  0.38210395  0.65374715  1  0.512811  0  0.316191  0.274744  0  0.991538  0
H  H75  1  0.61790269  0.11271874  0.65374732  1  0.557579  0  0.316177  0.274753  0  0.991545  0
H  H76  1  0.33241388  0.90917731  0.19524100  1  0.112362  0  0.118366  0.10114  0  1.00188  0
H  H77  1  0.09082225  0.42323669  0.19524040  1  0.12036  0  0.118364  0.101152  0  1.001888  0
H  H78  1  0.57676257  0.66758566  0.19524159  1  0.115923  0  0.11835  0.101105  0  1.001878  0
H  H79  1  0.90917728  0.33241337  0.30475884  1  0.112361  0  0.118345  0.101104  0  1.001885  0
H  H80  1  0.66758613  0.57676330  0.30475765  1  0.109648  0  0.118363  0.10111  0  1.00186  0
H  H81  1  0.42323690  0.09082238  0.30475824  1  0.120361  0  0.118348  0.10109  0  1.001915  0
H  H82  1  0.66758547  0.09082336  0.80475928  1  0.112351  0  0.118356  0.101115  0  1.001873  0
H  H83  1  0.90917973  0.57676515  0.80475809  1  0.120396  0  0.118352  0.101134  0  1.001948  0
H  H84  1  0.42323651  0.33241401  0.80475809  1  0.115943  0  0.118362  0.10111  0  1.001872  0
H  H85  1  0.09082407  0.66758783  0.69523906  1  0.112382  0  0.118377  0.101156  0  1.001865  0
H  H86  1  0.33241358  0.42323700  0.69524204  1  0.109636  0  0.118356  0.101086  0  1.001882  0
H  H87  1  0.57676282  0.90917792  0.69524204  1  0.120362  0  0.118345  0.101097  0  1.001924  0
H  H88  1  0.31950023  0.01399057  0.18075572  1  0.087693  0  0.123737  0.10811  0  0.949511  0
H  H89  1  0.98601016  0.30550926  0.18075546  1  0.104483  0  0.123737  0.108127  0  0.949527  0
H  H90  1  0.69448924  0.68049932  0.18075566  1  0.100471  0  0.123752  0.108111  0  0.949533  0
H  H91  1  0.01398965  0.31949786  0.31924306  1  0.087747  0  0.123731  0.108115  0  0.94949  0
H  H92  1  0.68049872  0.69448956  0.31924348  1  0.100479  0  0.123765  0.10812  0  0.949502  0
H  H93  1  0.30550910  0.98601024  0.31924314  1  0.104494  0  0.123741  0.108107  0  0.9495  0
H  H94  1  0.68049912  0.98601010  0.81924456  1  0.08769  0  0.123753  0.108135  0  0.949451  0
H  H95  1  0.01399320  0.69449248  0.81924243  1  0.104492  0  0.123754  0.108166  0  0.949509  0
H  H96  1  0.30551011  0.31950135  0.81924403  1  0.100472  0  0.123749  0.108094  0  0.949539  0
H  H97  1  0.98601053  0.68050071  0.68075483  1  0.087656  0  0.123723  0.108087  0  0.949477  0
H  H98  1  0.31950163  0.30551138  0.68075621  1  0.100486  0  0.123752  0.108088  0  0.949474  0
H  H99  1  0.69449061  0.01399007  0.68075654  1  0.104508  0  0.123738  0.108121  0  0.949466  0
C  C100  1  0.63422486  0.14543095  0.06242190  1  0.690129  0  0.106715  0.369027  0  4.067048  0
C  C101  1  0.85456882  0.48879138  0.06241885  1  0.735743  0  0.10677  0.369245  0  4.06685  0
C  C102  1  0.51120533  0.36577555  0.06241990  1  0.697459  0  0.106733  0.369073  0  4.067006  0
C  C103  1  0.14543052  0.63422127  0.43757950  1  0.689723  0  0.106663  0.369052  0  4.066821  0
C  C104  1  0.36577750  0.51120627  0.43758082  1  0.697476  0  0.106762  0.369126  0  4.066956  0
C  C105  1  0.48879127  0.85456892  0.43758031  1  0.735742  0  0.106763  0.369188  0  4.066921  0
C  C106  1  0.36577421  0.85456872  0.93757897  1  0.690127  0  0.106686  0.368986  0  4.067105  0
C  C107  1  0.14543025  0.51120829  0.93758143  1  0.735419  0  0.106734  0.369138  0  4.066777  0
C  C108  1  0.48879348  0.63422312  0.93758097  1  0.697464  0  0.106754  0.369098  0  4.067014  0
C  C109  1  0.85456976  0.36577593  0.56242078  1  0.690076  0  0.106762  0.369146  0  4.067022  0
C  C110  1  0.63422486  0.48879521  0.56242124  1  0.697452  0  0.106682  0.368917  0  4.067212  0
C  C111  1  0.51120781  0.14543075  0.56241937  1  0.735752  0  0.106732  0.369105  0  4.066948  0
C  C112  1  0.71430929  0.18472383  0.00842382  1  -0.04461  0  -0.107444  -0.226106  0  3.941352  0
C  C113  1  0.81527300  0.52957999  0.00842274  1  -0.00657  0  -0.107549  -0.226359  0  3.941562  0
C  C114  1  0.47041548  0.28569179  0.00842311  1  -0.066488  0  -0.107463  -0.226128  0  3.941426  0
C  C115  1  0.18472540  0.71430471  0.49157630  1  -0.044541  0  -0.107538  -0.226232  0  3.94159  0
C  C116  1  0.28569394  0.47041595  0.49157712  1  -0.066443  0  -0.107538  -0.226197  0  3.941483  0
C  C117  1  0.52957985  0.81527306  0.49157641  1  -0.006565  0  -0.107535  -0.226237  0  3.941543  0
C  C118  1  0.28569015  0.81527548  0.99157646  1  -0.044467  0  -0.107429  -0.226089  0  3.941381  0
C  C119  1  0.18472671  0.47042031  0.99157754  1  -0.00633  0  -0.107525  -0.2263  0  3.941584  0
C  C120  1  0.52958343  0.71430551  0.99157717  1  -0.066479  0  -0.107535  -0.226182  0  3.941483  0
C  C121  1  0.81527588  0.28569276  0.50842279  1  -0.066925  0  -0.107528  -0.226248  0  3.941546  0
C  C122  1  0.71430868  0.52958653  0.50842375  1  -0.066468  0  -0.107433  -0.226028  0  3.941548  0
C  C123  1  0.47041923  0.18472660  0.50842327  1  -0.006536  0  -0.107515  -0.226226  0  3.941476  0
C  C124  1  0.58580962  0.04143135  0.07795457  1  -0.001157  0  -0.034371  -0.097639  0  4.016323  0
C  C125  1  0.95856622  0.54437510  0.07795318  1  0.012241  0  -0.034282  -0.097524  0  4.016216  0
C  C126  1  0.45562145  0.41419053  0.07795330  1  0.044218  0  -0.03442  -0.09769  0  4.016369  0
C  C127  1  0.04143186  0.58580632  0.42204636  1  0.006386  0  -0.034238  -0.097453  0  4.016  0
C  C128  1  0.41419269  0.45562114  0.42204683  1  0.044223  0  -0.034393  -0.097762  0  4.016456  0
C  C129  1  0.54437529  0.95856727  0.42204585  1  0.007851  0  -0.034307  -0.097524  0  4.016202  0
C  C130  1  0.41419010  0.95856896  0.92204571  1  -0.001066  0  -0.034351  -0.097593  0  4.016308  0
C  C131  1  0.04143312  0.45562557  0.92204650  1  0.01209  0  -0.034291  -0.097511  0  4.016122  0
C  C132  1  0.54437809  0.58580740  0.92204698  1  0.044224  0  -0.034375  -0.097736  0  4.016413  0
C  C133  1  0.95856878  0.41419051  0.57795332  1  0.006068  0  -0.034402  -0.097649  0  4.016369  0
C  C134  1  0.58580903  0.54437971  0.57795404  1  0.044266  0  -0.034408  -0.09766  0  4.016469  0
C  C135  1  0.45562379  0.04143240  0.57795324  1  0.007829  0  -0.034329  -0.097602  0  4.016262  0
C  C136  1  0.74702396  0.12572530  0.97493771  1  -0.055481  0  -0.081367  -0.035639  0  4.014519  0
C  C137  1  0.87426989  0.62129488  0.97493792  1  -0.148727  0  -0.0813  -0.035478  0  4.014377  0
C  C138  1  0.37870193  0.25297590  0.97493664  1  -0.038811  0  -0.08136  -0.035623  0  4.01457  0
C  C139  1  0.12572826  0.74702337  0.52506172  1  -0.055538  0  -0.081286  -0.03546  0  4.014385  0
C  C140  1  0.25297745  0.37870227  0.52506359  1  -0.038873  0  -0.081301  -0.035525  0  4.014507  0
C  C141  1  0.62129483  0.87427036  0.52506161  1  -0.148731  0  -0.081306  -0.035566  0  4.01447  0
C  C142  1  0.25297348  0.87427346  0.02506256  1  -0.055259  0  -0.081346  -0.035595  0  4.014507  0
C  C143  1  0.12572946  0.37870579  0.02506236  1  -0.148953  0  -0.081296  -0.035437  0  4.014408  0
C  C144  1  0.62129725  0.74702240  0.02506364  1  -0.038861  0  -0.08133  -0.035599  0  4.01453  0
C  C145  1  0.87427383  0.25297710  0.47493737  1  -0.033169  0  -0.081324  -0.035533  0  4.014458  0
C  C146  1  0.74702353  0.62129931  0.47493669  1  -0.038828  0  -0.081397  -0.035694  0  4.014596  0
C  C147  1  0.37870425  0.12572931  0.47493748  1  -0.148771  0  -0.081273  -0.03545  0  4.014418  0
C  C148  1  0.62108947  0.98332939  0.04231892  1  -0.013526  0  -0.081273  -0.078973  0  3.99076  0
C  C149  1  0.01666704  0.63775797  0.04231724  1  -0.085216  0  -0.081331  -0.079035  0  3.990962  0
C  C150  1  0.36224039  0.37891112  0.04231765  1  -0.0634  0  -0.081271  -0.078922  0  3.990789  0
C  C151  1  0.98333191  0.62109059  0.45768122  1  -0.020841  0  -0.081355  -0.079095  0  3.990886  0
C  C152  1  0.37891086  0.36223992  0.45768259  1  -0.063403  0  -0.081333  -0.078952  0  3.990899  0
C  C153  1  0.63775780  0.01666745  0.45768248  1  -0.084649  0  -0.081321  -0.079024  0  3.99097  0
C  C154  1  0.37890834  0.01666901  0.95768196  1  -0.013531  0  -0.081281  -0.078929  0  3.990827  0
C  C155  1  0.98333230  0.36224270  0.95768244  1  -0.084757  0  -0.081364  -0.079118  0  3.990932  0
C  C156  1  0.63775932  0.62108918  0.95768263  1  -0.063395  0  -0.081291  -0.078917  0  3.990863  0
C  C157  1  0.01667045  0.37891089  0.54231966  1  -0.020789  0  -0.081274  -0.079005  0  3.9909  0
C  C158  1  0.62108886  0.63776038  0.54231828  1  -0.063408  0  -0.081306  -0.07896  0  3.990871  0
C  C159  1  0.36224128  0.98333221  0.54231661  1  -0.08464  0  -0.081289  -0.078953  0  3.990864  0
C  C160  1  0.50047631  0.99282231  0.12616145  1  0.574512  0  0.103851  0.140125  0  3.842677  0
C  C161  1  0.00717431  0.50765008  0.12616007  1  0.598835  0  0.103788  0.14007  0  3.842806  0
C  C162  1  0.49234565  0.49952372  0.12616106  1  0.524768  0  0.103858  0.140135  0  3.842655  0
C  C163  1  0.99282425  0.50047471  0.37383878  1  0.574126  0  0.103793  0.14009  0  3.84268  0
C  C164  1  0.49952404  0.49234489  0.37383839  1  0.524717  0  0.103821  0.140108  0  3.842738  0
C  C165  1  0.50764993  0.00717481  0.37383916  1  0.602653  0  0.10381  0.14009  0  3.842783  0
C  C166  1  0.49952276  0.00717736  0.87384002  1  0.574515  0  0.103802  0.140096  0  3.842716  0
C  C167  1  0.99282604  0.49235086  0.87383961  1  0.598823  0  0.103833  0.140191  0  3.842747  0
C  C168  1  0.50765480  0.50047585  0.87383863  1  0.524744  0  0.103824  0.140152  0  3.842686  0
C  C169  1  0.00717730  0.49952376  0.62616150  1  0.574523  0  0.103845  0.140112  0  3.842721  0
C  C170  1  0.50047668  0.50765568  0.62616189  1  0.524739  0  0.103838  0.140058  0  3.842713  0
C  C171  1  0.49234979  0.99282549  0.62616052  1  0.602667  0  0.103825  0.140137  0  3.842795  0
C  C172  1  0.70122999  0.02446003  0.99210753  1  -0.038228  0  -0.114253  -0.139835  0  4.062926  0
C  C173  1  0.97553772  0.67676760  0.99210822  1  -0.00039  0  -0.114285  -0.139889  0  4.062992  0
C  C174  1  0.32323051  0.29877099  0.99210659  1  -0.021985  0  -0.114265  -0.139895  0  4.062981  0
C  C175  1  0.02446193  0.70122916  0.50789083  1  -0.038034  0  -0.114281  -0.139937  0  4.06317  0
C  C176  1  0.29877139  0.32322970  0.50789365  1  -0.021912  0  -0.114266  -0.139954  0  4.063087  0
C  C177  1  0.67676722  0.97553851  0.50789178  1  -0.000309  0  -0.114277  -0.139914  0  4.063131  0
C  C178  1  0.29876936  0.97554064  0.00789275  1  -0.038213  0  -0.114323  -0.14002  0  4.063023  0
C  C179  1  0.02446162  0.32323307  0.00789206  1  -0.000371  0  -0.114254  -0.139874  0  4.063081  0
C  C180  1  0.67677030  0.70122821  0.00789369  1  -0.021917  0  -0.11423  -0.139843  0  4.063023  0
C  C181  1  0.97553952  0.29877068  0.49210766  1  -0.038205  0  -0.114247  -0.139856  0  4.063016  0
C  C182  1  0.70122896  0.67677124  0.49210782  1  -0.021978  0  -0.114202  -0.139844  0  4.063005  0
C  C183  1  0.32323213  0.02446216  0.49210731  1  -0.000382  0  -0.114302  -0.139952  0  4.063094  0
C  C184  1  0.36763986  0.98847763  0.20534115  1  0.317122  0  -0.045225  -0.051698  0  3.883353  0
C  C185  1  0.01152182  0.37916100  0.20534123  1  0.262623  0  -0.0452  -0.05164  0  3.883339  0
C  C186  1  0.62083669  0.63236003  0.20534163  1  0.30334  0  -0.045198  -0.051605  0  3.883272  0
C  C187  1  0.98847678  0.36763774  0.29465800  1  0.316288  0  -0.045174  -0.051539  0  3.883209  0
C  C188  1  0.63235982  0.62083675  0.29465760  1  0.272966  0  -0.045179  -0.051541  0  3.883165  0
C  C189  1  0.37916122  0.01152203  0.29465810  1  0.261898  0  -0.045152  -0.051471  0  3.883174  0
C  C190  1  0.63235949  0.01152304  0.79465853  1  0.317142  0  -0.045231  -0.051687  0  3.883261  0
C  C191  1  0.98847889  0.62083958  0.79465726  1  0.261572  0  -0.045209  -0.051645  0  3.883374  0
C  C192  1  0.37916302  0.36764028  0.79465745  1  0.266819  0  -0.045182  -0.051538  0  3.883227  0
C  C193  1  0.01152467  0.63236210  0.70534049  1  0.317387  0  -0.045213  -0.051615  0  3.883197  0
C  C194  1  0.36763989  0.37916356  0.70534208  1  0.309475  0  -0.045189  -0.051529  0  3.88313  0
C  C195  1  0.62083786  0.98847764  0.70534217  1  0.261883  0  -0.045174  -0.051545  0  3.883229  0
N  N196  1  0.49198816  0.28370376  0.26417707  1  0.833242  0  0.081235  0.732118  0  4.407356  0
N  N197  1  0.71629478  0.20828888  0.26417843  1  0.842762  0  0.081175  0.73198  0  4.407569  0
N  N198  1  0.79171289  0.50801494  0.26417498  1  0.826203  0  0.081241  0.732158  0  4.40745  0
N  N199  1  0.28370399  0.49198891  0.23582255  1  0.833227  0  0.081224  0.732046  0  4.407407  0
N  N200  1  0.50801362  0.79171253  0.23582481  1  0.82607  0  0.081257  0.732206  0  4.407381  0
N  N201  1  0.20828764  0.71629398  0.23582345  1  0.842755  0  0.081156  0.731864  0  4.407599  0
N  N202  1  0.50801055  0.71629628  0.73582321  1  0.833241  0  0.081165  0.731975  0  4.407328  0
N  N203  1  0.28370556  0.79171206  0.73582244  1  0.842767  0  0.081195  0.73198  0  4.40754  0
N  N204  1  0.20828746  0.49198600  0.73582530  1  0.826054  0  0.081243  0.73217  0  4.407364  0
N  N205  1  0.71629709  0.50801130  0.76417714  1  0.833251  0  0.081181  0.732042  0  4.407372  0
N  N206  1  0.49198546  0.20828713  0.76417487  1  0.826065  0  0.081221  0.732138  0  4.40746  0
N  N207  1  0.79171180  0.28370532  0.76417802  1  0.842754  0  0.081206  0.732024  0  4.407443  0
N  N208  1  0.45968201  0.03747413  0.16197894  1  -1.224743  0  -0.3748  -0.167569  0  3.611511  0
N  N209  1  0.96252312  0.42220441  0.16197843  1  -1.29497  0  -0.374823  -0.167774  0  3.611614  0
N  N210  1  0.57779170  0.54031844  0.16197857  1  -1.225179  0  -0.374831  -0.167643  0  3.611386  0
N  N211  1  0.03747549  0.45967964  0.33802090  1  -1.224375  0  -0.374785  -0.167671  0  3.611438  0
N  N212  1  0.54031781  0.57779067  0.33802137  1  -1.225244  0  -0.374815  -0.167597  0  3.611431  0
N  N213  1  0.42220399  0.96252361  0.33802129  1  -1.295016  0  -0.374802  -0.167685  0  3.611485  0
N  N214  1  0.54031707  0.96252554  0.83802074  1  -1.224831  0  -0.374767  -0.167551  0  3.611379  0
N  N215  1  0.03747760  0.57779616  0.83802065  1  -1.294987  0  -0.374836  -0.167862  0  3.611661  0
N  N216  1  0.42220902  0.45968213  0.83802112  1  -1.225171  0  -0.374827  -0.167646  0  3.61145  0
N  N217  1  0.96252706  0.54031910  0.66197878  1  -1.224726  0  -0.374801  -0.167616  0  3.611491  0
N  N218  1  0.45968163  0.42220863  0.66197950  1  -1.225245  0  -0.374827  -0.167621  0  3.611365  0
N  N219  1  0.57779509  0.03747606  0.66197899  1  -1.294974  0  -0.374768  -0.167654  0  3.611416  0
O  O220  1  0.60414164  0.20052850  0.09664897  1  -1.195393  0  -0.441583  -0.663502  0  2.391915  0
O  O221  1  0.79946920  0.40360886  0.09664405  1  -1.198732  0  -0.441558  -0.663572  0  2.391783  0
O  O222  1  0.59638671  0.39585925  0.09664556  1  -1.194221  0  -0.441551  -0.663499  0  2.391836  0
O  O223  1  0.20052957  0.60413808  0.40335361  1  -1.19545  0  -0.441498  -0.663482  0  2.391665  0
O  O224  1  0.39586125  0.59638764  0.40335388  1  -1.194239  0  -0.441542  -0.663467  0  2.391787  0
O  O225  1  0.40360875  0.79946938  0.40335463  1  -1.198772  0  -0.441553  -0.663559  0  2.391824  0
O  O226  1  0.39585881  0.79947107  0.90335251  1  -1.195388  0  -0.441541  -0.663466  0  2.391911  0
O  O227  1  0.20053115  0.59639208  0.90335623  1  -1.198737  0  -0.441558  -0.663538  0  2.391702  0
O  O228  1  0.40361146  0.60413878  0.90335352  1  -1.194258  0  -0.441544  -0.66346  0  2.39186  0
O  O229  1  0.79947198  0.39586039  0.59664667  1  -1.195368  0  -0.44155  -0.663526  0  2.391872  0
O  O230  1  0.60414174  0.40361448  0.59664819  1  -1.194358  0  -0.441531  -0.663376  0  2.39193  0
O  O231  1  0.59639033  0.20053029  0.59664505  1  -1.198728  0  -0.441569  -0.663555  0  2.391839  0
O  O232  1  0.48949478  0.23340665  0.20313023  1  -0.585147  0  -0.236222  -0.514035  0  2.070986  0
O  O233  1  0.76659284  0.25608936  0.20313039  1  -0.589297  0  -0.236235  -0.514023  0  2.071027  0
O  O234  1  0.74390978  0.51050397  0.20312706  1  -0.58656  0  -0.236242  -0.514034  0  2.070908  0
O  O235  1  0.23340746  0.48949466  0.29687003  1  -0.585126  0  -0.236222  -0.514024  0  2.071031  0
O  O236  1  0.51050394  0.74390927  0.29687336  1  -0.586585  0  -0.236263  -0.514066  0  2.070861  0
O  O237  1  0.25608840  0.76659153  0.29687082  1  -0.589334  0  -0.236246  -0.51401  0  2.071041  0
O  O238  1  0.51050494  0.76659365  0.79687065  1  -0.585172  0  -0.236195  -0.513987  0  2.070876  0
O  O239  1  0.23340751  0.74391158  0.79687048  1  -0.589335  0  -0.236268  -0.514063  0  2.071054  0
O  O240  1  0.25609093  0.48949660  0.79687381  1  -0.586585  0  -0.236282  -0.514074  0  2.070838  0
O  O241  1  0.76659463  0.51050582  0.70313085  1  -0.585147  0  -0.236194  -0.514002  0  2.070986  0
O  O242  1  0.48949641  0.25609167  0.70312692  1  -0.586599  0  -0.236236  -0.514034  0  2.070914  0
O  O243  1  0.74391168  0.23340841  0.70313006  1  -0.589303  0  -0.236241  -0.514037  0  2.071047  0
O  O244  1  0.57559634  0.36074092  0.27848628  1  -0.588667  0  -0.250494  -0.534763  0  2.034239  0
O  O245  1  0.63926262  0.21486648  0.27848963  1  -0.594183  0  -0.250476  -0.534725  0  2.034285  0
O  O246  1  0.78514507  0.42440844  0.27848658  1  -0.591929  0  -0.250493  -0.534804  0  2.034333  0
O  O247  1  0.36074059  0.57559643  0.22151321  1  -0.588676  0  -0.250494  -0.534704  0  2.034197  0
O  O248  1  0.42440743  0.78514433  0.22151328  1  -0.591804  0  -0.250497  -0.534818  0  2.034344  0
O  O249  1  0.21486468  0.63926129  0.22151231  1  -0.594196  0  -0.250457  -0.534666  0  2.034228  0
O  O250  1  0.42440264  0.63926012  0.72151400  1  -0.588667  0  -0.250488  -0.534725  0  2.034244  0
O  O251  1  0.36073773  0.78513446  0.72151184  1  -0.594158  0  -0.250434  -0.534654  0  2.034227  0
O  O252  1  0.21485565  0.57559213  0.72151369  1  -0.591787  0  -0.250475  -0.534792  0  2.03434  0
O  O253  1  0.63926023  0.42440277  0.77848707  1  -0.588669  0  -0.250482  -0.534722  0  2.034219  0
O  O254  1  0.57559165  0.21485534  0.77848641  1  -0.591775  0  -0.250492  -0.53481  0  2.034365  0
O  O255  1  0.78513376  0.36073774  0.77848916  1  -0.594186  0  -0.250476  -0.534735  0  2.034176  0
O  O256  1  0.41931528  0.25986749  0.30667933  1  -0.482544  0  -0.154453  -0.385007  0  1.925129  0
O  O257  1  0.74012691  0.15944737  0.30667931  1  -0.482506  0  -0.154403  -0.38489  0  1.925184  0
O  O258  1  0.84054613  0.58068983  0.30667592  1  -0.470813  0  -0.154448  -0.384995  0  1.925096  0
O  O259  1  0.25986718  0.41931554  0.19332037  1  -0.482541  0  -0.154449  -0.384993  0  1.925135  0
O  O260  1  0.58068928  0.84054647  0.19332377  1  -0.470795  0  -0.154437  -0.384996  0  1.925103  0
O  O261  1  0.15944842  0.74012767  0.19332140  1  -0.48247  0  -0.154405  -0.384864  0  1.925257  0
O  O262  1  0.58068380  0.74013218  0.69332036  1  -0.482509  0  -0.154412  -0.384936  0  1.92512  0
O  O263  1  0.25987217  0.84055230  0.69332096  1  -0.48251  0  -0.154446  -0.384949  0  1.925232  0
O  O264  1  0.15945422  0.41931111  0.69332436  1  -0.470776  0  -0.154427  -0.384977  0  1.925106  0
O  O265  1  0.74013190  0.58068413  0.80667991  1  -0.482538  0  -0.154446  -0.38499  0  1.925103  0
O  O266  1  0.41931007  0.15945420  0.80667591  1  -0.470813  0  -0.154439  -0.384984  0  1.925108  0
O  O267  1  0.84055230  0.25987290  0.80667888  1  -0.482498  0  -0.154434  -0.384924  0  1.925186  0
