# generated using pymatgen
data_Ag2HC5O4
_symmetry_space_group_name_H-M   'P 1'
_cell_length_a   6.27682057
_cell_length_b   8.40572649
_cell_length_c   10.89416977
_cell_angle_alpha   89.67168139
_cell_angle_beta   90.00042112
_cell_angle_gamma   89.99851720
_symmetry_Int_Tables_number   1
_chemical_formula_structural   Ag2HC5O4
_chemical_formula_sum   'Ag8 H4 C20 O16'
_cell_volume   574.78043507
_cell_formula_units_Z   4
loop_
 _symmetry_equiv_pos_site_id
 _symmetry_equiv_pos_as_xyz
  1  'x, y, z'
loop_
 _atom_site_type_symbol
 _atom_site_label
 _atom_site_symmetry_multiplicity
 _atom_site_fract_x
 _atom_site_fract_y
 _atom_site_fract_z
 _atom_site_occupancy
 _atom_site_hle17_bader_spin_density
 _atom_site_hle17_ddec_charge
 _atom_site_hle17_ddec_spin_density
 _atom_site_hle17_ddec_sum_bond_order
 _atom_site_hle17_magmom
 _atom_site_hse06_10hf_bader_spin_density
 _atom_site_hse06_10hf_ddec_charge
 _atom_site_hse06_10hf_ddec_spin_density
 _atom_site_hse06_10hf_ddec_sum_bond_order
 _atom_site_hse06_10hf_magmom
 _atom_site_hse06_bader_spin_density
 _atom_site_hse06_ddec_charge
 _atom_site_hse06_ddec_spin_density
 _atom_site_hse06_ddec_sum_bond_order
 _atom_site_hse06_magmom
 _atom_site_pbe_bader_spin_density
 _atom_site_pbe_cm5_charge
 _atom_site_pbe_ddec_charge
 _atom_site_pbe_ddec_spin_density
 _atom_site_pbe_ddec_sum_bond_order
 _atom_site_pbe_magmom
Ag  Ag0  1  0.54746246  0.89961962  0.29769205  1  0  0.64368  0  1.401208  0  0  0.533816  0  1.853077  0  0  0.564989  0  1.793714  0  0  0.438163  0.512737  0  1.894304  0
Ag  Ag1  1  0.04746473  0.10037077  0.20230431  1  0  0.643583  0  1.40138  0  0  0.53374  0  1.853231  0  0  0.564915  0  1.793866  0  0  0.438147  0.512664  0  1.894464  0
Ag  Ag2  1  0.45255539  0.10034643  0.70231924  1  0  0.643657  0  1.401222  0  0  0.53378  0  1.853084  0  0  0.56496  0  1.793722  0  0  0.438131  0.512693  0  1.894308  0
Ag  Ag3  1  0.95254037  0.89966425  0.79768589  1  0  0.643637  0  1.401235  0  0  0.533782  0  1.852991  0  0  0.564961  0  1.793627  0  0  0.438123  0.512694  0  1.894221  0
Ag  Ag4  1  0.83120862  0.14925418  0.55768647  1  0  0.626244  0  1.326134  0  0  0.510665  0  1.764408  0  0  0.546092  0  1.706433  0  0  0.426127  0.485438  0  1.805268  0
Ag  Ag5  1  0.33119579  0.85074341  0.94231683  1  0  0.626228  0  1.326367  0  0  0.510676  0  1.764633  0  0  0.54609  0  1.70666  0  0  0.426107  0.485463  0  1.805497  0
Ag  Ag6  1  0.16880603  0.85072875  0.44232068  1  0  0.626255  0  1.326281  0  0  0.510723  0  1.764533  0  0  0.54614  0  1.706561  0  0  0.426135  0.485502  0  1.805387  0
Ag  Ag7  1  0.66881409  0.14928443  0.05767408  1  0  0.626289  0  1.326437  0  0  0.510752  0  1.764697  0  0  0.546166  0  1.706723  0  0  0.426113  0.48555  0  1.805552  0
H  H8  1  0.80204919  0.61140828  0.37855597  1  0  0.125025  0  0.958136  0  0  0.131429  0  1.024033  0  0  0.135795  0  1.02088  0  0  0.107159  0.128297  0  1.026517  0
H  H9  1  0.30203865  0.38857182  0.12145412  1  0  0.12509  0  0.957989  0  0  0.13138  0  1.024025  0  0  0.13575  0  1.020877  0  0  0.107139  0.128248  0  1.026513  0
H  H10  1  0.19796388  0.38857025  0.62144463  1  0  0.125111  0  0.95809  0  0  0.131451  0  1.024076  0  0  0.13581  0  1.02092  0  0  0.107178  0.128319  0  1.026561  0
H  H11  1  0.69796167  0.61143880  0.87854735  1  0  0.125158  0  0.958079  0  0  0.131474  0  1.024111  0  0  0.135834  0  1.020949  0  0  0.107165  0.128345  0  1.026594  0
C  C12  1  0.58403790  0.64922094  0.52947472  1  0  -0.07945  0  3.74976  0  0  -0.063065  0  3.987743  0  0  -0.069273  0  4.006724  0  0  -0.015648  -0.058748  0  3.975475  0
C  C13  1  0.08402707  0.35076673  0.97053454  1  0  -0.079562  0  3.74983  0  0  -0.063173  0  3.987762  0  0  -0.069379  0  4.006768  0  0  -0.01565  -0.058854  0  3.975487  0
C  C14  1  0.41598313  0.35078038  0.47054488  1  0  -0.079629  0  3.750168  0  0  -0.063048  0  3.988088  0  0  -0.06925  0  4.007077  0  0  -0.015541  -0.058771  0  3.975774  0
C  C15  1  0.91596051  0.64920321  0.02944838  1  0  -0.079459  0  3.750422  0  0  -0.062914  0  3.988308  0  0  -0.069122  0  4.007312  0  0  -0.015477  -0.058622  0  3.975998  0
C  C16  1  0.66702022  0.56404779  0.43017992  1  0  -0.074227  0  3.662911  0  0  -0.108066  0  3.916542  0  0  -0.106932  0  3.931217  0  0  -0.079275  -0.109248  0  3.907358  0
C  C17  1  0.16699139  0.43593884  0.06982239  1  0  -0.07416  0  3.662909  0  0  -0.107966  0  3.916493  0  0  -0.106843  0  3.931186  0  0  -0.079231  -0.109142  0  3.907338  0
C  C18  1  0.33298966  0.43591247  0.56982846  1  0  -0.074191  0  3.663834  0  0  -0.108111  0  3.917321  0  0  -0.10701  0  3.932045  0  0  -0.079431  -0.109226  0  3.908139  0
C  C19  1  0.83296751  0.56409109  0.93017410  1  0  -0.074237  0  3.664229  0  0  -0.108213  0  3.917832  0  0  -0.107075  0  3.932513  0  0  -0.079467  -0.109338  0  3.908673  0
C  C20  1  0.41584608  0.58447914  0.59983373  1  0  -0.028102  0  3.678929  0  0  -0.013158  0  3.910135  0  0  -0.015533  0  3.927743  0  0  -0.002614  -0.012423  0  3.899084  0
C  C21  1  0.91583034  0.41553804  0.90017416  1  0  -0.028177  0  3.678619  0  0  -0.013224  0  3.909867  0  0  -0.015619  0  3.927502  0  0  -0.002606  -0.012473  0  3.898797  0
C  C22  1  0.58417017  0.41547789  0.40016812  1  0  -0.027813  0  3.678827  0  0  -0.013289  0  3.910439  0  0  -0.015702  0  3.92809  0  0  -0.002606  -0.012397  0  3.899181  0
C  C23  1  0.08414449  0.58452410  0.09984341  1  0  -0.027955  0  3.678955  0  0  -0.013275  0  3.910271  0  0  -0.015688  0  3.927935  0  0  -0.002664  -0.012416  0  3.89906  0
C  C24  1  0.67177721  0.80819893  0.56235155  1  0  0.636082  0  3.894347  0  0  0.579438  0  4.177642  0  0  0.616229  0  4.171508  0  0  0.19639  0.553858  0  4.181626  0
C  C25  1  0.17177948  0.19179283  0.93763892  1  0  0.636133  0  3.895063  0  0  0.579558  0  4.178226  0  0  0.616342  0  4.172094  0  0  0.196405  0.553981  0  4.182221  0
C  C26  1  0.32822789  0.19176688  0.43766432  1  0  0.63554  0  3.894613  0  0  0.578945  0  4.177874  0  0  0.615744  0  4.171746  0  0  0.196231  0.553362  0  4.181861  0
C  C27  1  0.82822244  0.80822327  0.06234892  1  0  0.635712  0  3.893887  0  0  0.579045  0  4.177218  0  0  0.615846  0  4.17109  0  0  0.19624  0.55346  0  4.18121  0
C  C28  1  0.31242011  0.68018941  0.69990148  1  0  0.67192  0  3.888881  0  0  0.619762  0  4.170123  0  0  0.655513  0  4.165627  0  0  0.210391  0.595447  0  4.171945  0
C  C29  1  0.81243026  0.31983126  0.80007755  1  0  0.672342  0  3.888129  0  0  0.620149  0  4.169429  0  0  0.655898  0  4.164937  0  0  0.210563  0.59583  0  4.171256  0
C  C30  1  0.68758817  0.31979263  0.30010013  1  0  0.671942  0  3.888621  0  0  0.619963  0  4.169723  0  0  0.655741  0  4.165181  0  0  0.210488  0.595594  0  4.171575  0
C  C31  1  0.18756847  0.68019593  0.19990324  1  0  0.671861  0  3.889506  0  0  0.619959  0  4.170416  0  0  0.655726  0  4.165889  0  0  0.2104  0.5956  0  4.17227  0
O  O32  1  0.75732956  0.89571670  0.47752584  1  0  -0.649686  0  2.190451  0  0  -0.555377  0  2.483309  0  0  -0.590146  0  2.467867  0  0  -0.328968  -0.531512  0  2.494107  0
O  O33  1  0.25733083  0.10428068  0.02246615  1  0  -0.649622  0  2.19048  0  0  -0.555355  0  2.483318  0  0  -0.590124  0  2.467879  0  0  -0.328937  -0.531487  0  2.494121  0
O  O34  1  0.24267395  0.10425341  0.52247637  1  0  -0.649318  0  2.191143  0  0  -0.555058  0  2.484027  0  0  -0.589817  0  2.468582  0  0  -0.328904  -0.531198  0  2.494824  0
O  O35  1  0.74264559  0.89575769  0.97750576  1  0  -0.649545  0  2.190274  0  0  -0.555177  0  2.483066  0  0  -0.589953  0  2.467634  0  0  -0.32885  -0.531305  0  2.493863  0
O  O36  1  0.65382702  0.85215593  0.67294446  1  0  -0.634567  0  2.212503  0  0  -0.556656  0  2.500571  0  0  -0.587206  0  2.484928  0  0  -0.317012  -0.534949  0  2.510696  0
O  O37  1  0.15383092  0.14785516  0.82706942  1  0  -0.634575  0  2.213203  0  0  -0.556711  0  2.501243  0  0  -0.587256  0  2.485599  0  0  -0.31705  -0.535004  0  2.511373  0
O  O38  1  0.34618286  0.14781441  0.32705316  1  0  -0.634327  0  2.212147  0  0  -0.5565  0  2.50026  0  0  -0.587057  0  2.48462  0  0  -0.316945  -0.534791  0  2.51039  0
O  O39  1  0.84616303  0.85219286  0.17294501  1  0  -0.634429  0  2.212441  0  0  -0.556548  0  2.500594  0  0  -0.587092  0  2.484945  0  0  -0.317002  -0.534846  0  2.510729  0
O  O40  1  0.35580963  0.64862954  0.81059943  1  0  -0.584969  0  2.051174  0  0  -0.51209  0  2.302983  0  0  -0.546611  0  2.296778  0  0  -0.307063  -0.487566  0  2.306102  0
O  O41  1  0.85580442  0.35137551  0.68941153  1  0  -0.584839  0  2.051938  0  0  -0.511925  0  2.303724  0  0  -0.546453  0  2.297564  0  0  -0.306901  -0.48741  0  2.306843  0
O  O42  1  0.64419388  0.35136761  0.18940902  1  0  -0.584985  0  2.051134  0  0  -0.512121  0  2.302857  0  0  -0.546651  0  2.296635  0  0  -0.307118  -0.487604  0  2.306033  0
O  O43  1  0.14419590  0.64862569  0.31058785  1  0  -0.584947  0  2.051174  0  0  -0.512146  0  2.302832  0  0  -0.546682  0  2.296642  0  0  -0.30711  -0.487615  0  2.305969  0
O  O44  1  0.18099317  0.78658103  0.66194667  1  0  -0.652111  0  2.161908  0  0  -0.566733  0  2.446269  0  0  -0.602916  0  2.433527  0  0  -0.327643  -0.541438  0  2.454148  0
O  O45  1  0.68097411  0.21342543  0.83805527  1  0  -0.652527  0  2.161053  0  0  -0.567124  0  2.445449  0  0  -0.603313  0  2.4327  0  0  -0.327848  -0.541823  0  2.453338  0
O  O46  1  0.81901512  0.21340511  0.33804495  1  0  -0.652036  0  2.161704  0  0  -0.566716  0  2.446067  0  0  -0.602903  0  2.433314  0  0  -0.327654  -0.541421  0  2.453977  0
O  O47  1  0.31898160  0.78658019  0.16195066  1  0  -0.652047  0  2.162302  0  0  -0.566751  0  2.44655  0  0  -0.602934  0  2.433798  0  0  -0.327578  -0.541457  0  2.454461  0
