# generated using pymatgen
data_Zn2H14C29N4O9
_symmetry_space_group_name_H-M   'P 1'
_cell_length_a   10.34550847
_cell_length_b   11.83727180
_cell_length_c   12.35000000
_cell_angle_alpha   92.37250029
_cell_angle_beta   106.74697558
_cell_angle_gamma   99.44867454
_symmetry_Int_Tables_number   1
_chemical_formula_structural   Zn2H14C29N4O9
_chemical_formula_sum   'Zn4 H28 C58 N8 O18'
_cell_volume   1422.30547138
_cell_formula_units_Z   2
loop_
 _symmetry_equiv_pos_site_id
 _symmetry_equiv_pos_as_xyz
  1  'x, y, z'
loop_
 _atom_site_type_symbol
 _atom_site_label
 _atom_site_symmetry_multiplicity
 _atom_site_fract_x
 _atom_site_fract_y
 _atom_site_fract_z
 _atom_site_occupancy
 _atom_site_hle17_bader_spin_density
 _atom_site_hle17_ddec_charge
 _atom_site_hle17_ddec_spin_density
 _atom_site_hle17_ddec_sum_bond_order
 _atom_site_hle17_magmom
 _atom_site_hse06_10hf_bader_spin_density
 _atom_site_hse06_10hf_ddec_charge
 _atom_site_hse06_10hf_ddec_spin_density
 _atom_site_hse06_10hf_ddec_sum_bond_order
 _atom_site_hse06_10hf_magmom
 _atom_site_hse06_bader_spin_density
 _atom_site_hse06_ddec_charge
 _atom_site_hse06_ddec_spin_density
 _atom_site_hse06_ddec_sum_bond_order
 _atom_site_hse06_magmom
 _atom_site_pbe_bader_charge
 _atom_site_pbe_bader_spin_density
 _atom_site_pbe_cm5_charge
 _atom_site_pbe_ddec_charge
 _atom_site_pbe_ddec_spin_density
 _atom_site_pbe_ddec_sum_bond_order
 _atom_site_pbe_magmom
Zn  Zn0  1  0.87769045  0.91751953  0.59608079  1  0  1.061148  0  1.804269  0  0  0.872664  0  2.275754  0  0  0.923362  0  2.216716  0  1.309175  0  0.697967  0.837061  0  2.316443  0
Zn  Zn1  1  0.12231020  0.08248114  0.40391867  1  0  1.061172  0  1.804262  0  0  0.872693  0  2.275764  0  0  0.923391  0  2.216724  0  1.309203  0  0.697976  0.837091  0  2.316453  0
Zn  Zn2  1  0.10985257  0.53858974  0.44550690  1  0  1.076082  0  1.827376  0  0  0.907097  0  2.291938  0  0  0.959167  0  2.227444  0  1.312298  0  0.682645  0.870868  0  2.336299  0
Zn  Zn3  1  0.89014606  0.46141093  0.55449288  1  0  1.076064  0  1.827447  0  0  0.907069  0  2.292014  0  0  0.95914  0  2.227519  0  1.312397  0  0.68263  0.87084  0  2.336375  0
H  H4  1  0.18535685  0.85395525  0.20732583  1  0  0.335569  0  0.822083  0  0  0.327078  0  0.86272  0  0  0.333176  0  0.859036  0  0.523794  0  0.357472  0.322684  0  0.865503  0
H  H5  1  0.81464361  0.14604456  0.79267355  1  0  0.335571  0  0.822072  0  0  0.327081  0  0.862708  0  0  0.333179  0  0.859022  0  0.523794  0  0.357472  0.322686  0  0.865492  0
H  H6  1  0.04468801  0.66864129  0.23484868  1  0  0.113508  0  0.90512  0  0  0.125994  0  0.956764  0  0  0.128279  0  0.953977  0  0.159113  0  0.155183  0.124032  0  0.959175  0
H  H7  1  0.95531245  0.33135852  0.76514908  1  0  0.113497  0  0.905139  0  0  0.125973  0  0.956798  0  0  0.128257  0  0.954013  0  0.15911  0  0.155186  0.124011  0  0.959207  0
H  H8  1  0.39352990  0.55202792  0.55809565  1  0  0.11349  0  0.987152  0  0  0.120333  0  1.054609  0  0  0.124009  0  1.051371  0  0.159412  0  0.109483  0.117594  0  1.057148  0
H  H9  1  0.60647037  0.44797102  0.44190446  1  0  0.113482  0  0.987185  0  0  0.12032  0  1.054636  0  0  0.123997  0  1.051398  0  0.159402  0  0.109485  0.117581  0  1.057175  0
H  H10  1  0.61350255  0.55589026  0.71255104  1  0  0.10126  0  0.941584  0  0  0.116012  0  0.990986  0  0  0.118663  0  0.991102  0  0.064515  0  0.11037  0.114  0  0.991322  0
H  H11  1  0.38649873  0.44410869  0.28744688  1  0  0.101238  0  0.941577  0  0  0.115976  0  0.990993  0  0  0.118643  0  0.991089  0  0.064494  0  0.110355  0.113963  0  0.991329  0
H  H12  1  0.81153226  0.71774202  0.73438177  1  0  0.098537  0  0.941457  0  0  0.105937  0  1.002835  0  0  0.108725  0  0.999788  0  0.155345  0  0.125105  0.103708  0  1.005229  0
H  H13  1  0.18846902  0.28225693  0.26561696  1  0  0.098585  0  0.941462  0  0  0.105979  0  1.002829  0  0  0.108764  0  0.999784  0  0.155333  0  0.125105  0.103749  0  1.005226  0
H  H14  1  0.38617825  0.01735128  0.23060528  1  0  0.104859  0  0.914406  0  0  0.121177  0  0.964957  0  0  0.1238  0  0.963019  0  0.092154  0  0.117315  0.119307  0  0.966328  0
H  H15  1  0.61382101  0.98264767  0.76939377  1  0  0.104884  0  0.914374  0  0  0.121195  0  0.96493  0  0  0.123816  0  0.962991  0  0.09217  0  0.117317  0.119324  0  0.966301  0
H  H16  1  0.60434872  0.16145606  0.28152050  1  0  0.108258  0  0.974935  0  0  0.116929  0  1.036341  0  0  0.11845  0  1.038647  0  0.130188  0  0.107817  0.115787  0  1.034913  0
H  H17  1  0.39564992  0.83854460  0.71847928  1  0  0.10825  0  0.974935  0  0  0.116964  0  1.036304  0  0  0.118486  0  1.038607  0  0.130217  0  0.107819  0.115821  0  1.034879  0
H  H18  1  0.80903549  0.12574019  0.43427862  1  0  0.114098  0  0.937619  0  0  0.11678  0  1.004378  0  0  0.120631  0  1.000639  0  0.190831  0  0.123985  0.113893  0  1.007188  0
H  H19  1  0.19096295  0.87425962  0.56572108  1  0  0.114084  0  0.937604  0  0  0.116769  0  1.004351  0  0  0.120621  0  1.000608  0  0.190815  0  0.123991  0.11388  0  1.007165  0
H  H20  1  0.73123530  0.07655516  0.01043368  1  0  0.123049  0  0.929472  0  0  0.133485  0  0.98916  0  0  0.138003  0  0.985604  0  0.088084  0  0.109803  0.130224  0  0.991838  0
H  H21  1  0.26876554  0.92344637  0.98956585  1  0  0.12304  0  0.929504  0  0  0.133477  0  0.989194  0  0  0.137992  0  0.985637  0  0.088078  0  0.109804  0.130215  0  0.991873  0
H  H22  1  0.45490254  0.30175012  0.04614766  1  0  0.115594  0  0.936839  0  0  0.12983  0  0.986686  0  0  0.133036  0  0.985641  0  0.076106  0  0.108184  0.127519  0  0.987545  0
H  H23  1  0.54509691  0.69824968  0.95385391  1  0  0.115551  0  0.936856  0  0  0.129752  0  0.986732  0  0  0.132994  0  0.985645  0  0.076108  0  0.108163  0.12744  0  0.987593  0
H  H24  1  0.63549128  0.40713174  0.21667125  1  0  0.092111  0  0.957591  0  0  0.102407  0  1.020213  0  0  0.104765  0  1.019538  0  0.066808  0  0.099311  0.100609  0  1.020935  0
H  H25  1  0.36450697  0.59286720  0.78333080  1  0  0.092139  0  0.957628  0  0  0.10243  0  1.020249  0  0  0.104789  0  1.019571  0  0.066779  0  0.099322  0.100634  0  1.020967  0
H  H26  1  0.22680341  0.05215877  0.81236622  1  0  0.13332  0  0.937816  0  0  0.142304  0  0.998797  0  0  0.145527  0  0.997515  0  0.114758  0  0.114566  0.139967  0  0.999773  0
H  H27  1  0.77319623  0.94784189  0.18763299  1  0  0.133355  0  0.937747  0  0  0.142332  0  0.998736  0  0  0.145556  0  0.997453  0  0.114748  0  0.114602  0.139996  0  0.999712  0
H  H28  1  0.43997989  0.42328561  0.70917517  1  0  0.086411  0  0.969736  0  0  0.098235  0  1.033528  0  0  0.10103  0  1.031678  0  0.079637  0  0.100113  0.096199  0  1.034988  0
H  H29  1  0.56002178  0.57671506  0.29082696  1  0  0.086416  0  0.969727  0  0  0.098217  0  1.03354  0  0  0.10101  0  1.031693  0  0.079602  0  0.100114  0.096185  0  1.034996  0
H  H30  1  0.57926271  0.32157364  0.86078517  1  0  0.111935  0  0.943251  0  0  0.124584  0  0.99646  0  0  0.127837  0  0.995437  0  0.077339  0  0.10557  0.122251  0  0.997387  0
H  H31  1  0.42073775  0.67842617  0.13921502  1  0  0.111947  0  0.943255  0  0  0.124598  0  0.996464  0  0  0.12785  0  0.995441  0  0.077346  0  0.105577  0.122264  0  0.997392  0
C  C32  1  0.15156157  0.70019548  0.28159391  1  0  0.287951  0  3.608228  0  0  0.222042  0  3.884256  0  0  0.238615  0  3.8941  0  1.063104  0  0.17636  0.210898  0  3.877662  0
C  C33  1  0.84843990  0.29980433  0.71840570  1  0  0.287977  0  3.608235  0  0  0.222067  0  3.884264  0  0  0.238639  0  3.894108  0  1.063067  0  0.176341  0.210922  0  3.877671  0
C  C34  1  0.35280979  0.72247145  0.40715500  1  0  0.104222  0  3.775307  0  0  0.095152  0  4.025863  0  0  0.097164  0  4.051047  0  0.455225  0  0.095337  0.093653  0  4.008984  0
C  C35  1  0.64718847  0.27752750  0.59284462  1  0  0.104197  0  3.775367  0  0  0.095164  0  4.025902  0  0  0.097176  0  4.051087  0  0.455248  0  0.095327  0.093664  0  4.009025  0
C  C36  1  0.35415687  0.81591939  0.34138064  1  0  0.108424  0  3.768759  0  0  0.087186  0  4.030998  0  0  0.089576  0  4.054276  0  0.330295  0  0.098029  0.085531  0  4.015559  0
C  C37  1  0.64584057  0.18408042  0.65861800  1  0  0.108482  0  3.768839  0  0  0.087185  0  4.03113  0  0  0.089573  0  4.054407  0  0.330242  0  0.098021  0.085529  0  4.015691  0
C  C38  1  0.46951622  0.90673853  0.35955237  1  0  -0.028424  0  3.799719  0  0  -0.016717  0  4.042557  0  0  -0.019692  0  4.065787  0  0.038154  0  0.001489  -0.014762  0  4.026934  0
C  C39  1  0.53048424  0.09326128  0.64044701  1  0  -0.028516  0  3.799809  0  0  -0.016795  0  4.042652  0  0  -0.01977  0  4.065881  0  0.038179  0  0.001466  -0.01484  0  4.027029  0
C  C40  1  0.58886143  0.89600226  0.44803081  1  0  0.125845  0  3.771306  0  0  0.117773  0  4.012781  0  0  0.121056  0  4.037075  0  0.501902  0  0.116568  0.11562  0  3.996394  0
C  C41  1  0.41113922  0.10399840  0.55197026  1  0  0.125848  0  3.771382  0  0  0.117776  0  4.012862  0  0  0.121059  0  4.037154  0  0.501861  0  0.11657  0.115626  0  3.996476  0
C  C42  1  0.58922858  0.79938101  0.51686874  1  0  0.132316  0  3.763773  0  0  0.121141  0  4.006379  0  0  0.125831  0  4.029802  0  0.488808  0  0.118972  0.117965  0  3.990634  0
C  C43  1  0.41076986  0.20061880  0.48313096  1  0  0.132344  0  3.763657  0  0  0.121196  0  4.006224  0  0  0.125886  0  4.029644  0  0.488839  0  0.118962  0.118014  0  3.990478  0
C  C44  1  0.47151578  0.71153647  0.49813685  1  0  -0.020756  0  3.76501  0  0  -0.008443  0  4.000538  0  0  -0.012388  0  4.024188  0  0.041356  0  0.005323  -0.005974  0  3.984661  0
C  C45  1  0.52848147  0.28846247  0.50186252  1  0  -0.020775  0  3.765003  0  0  -0.008496  0  4.000525  0  0  -0.012444  0  4.024177  0  0.041245  0  0.005294  -0.006027  0  3.984649  0
C  C46  1  0.48079607  0.62195775  0.57013034  1  0  -0.023454  0  3.652326  0  0  -0.054337  0  3.910011  0  0  -0.050505  0  3.926498  0  -0.038263  0  -0.059075  -0.056732  0  3.899029  0
C  C47  1  0.51920540  0.37804206  0.42986928  1  0  -0.023451  0  3.652337  0  0  -0.054315  0  3.910017  0  0  -0.050476  0  3.92649  0  -0.038148  0  -0.059071  -0.056709  0  3.899028  0
C  C48  1  0.60207788  0.62392161  0.65569755  1  0  -0.110707  0  3.712355  0  0  -0.123048  0  3.96897  0  0  -0.131124  0  3.98982  0  -0.034315  0  -0.077168  -0.117832  0  3.955337  0
C  C49  1  0.39792359  0.37607820  0.34430207  1  0  -0.110623  0  3.712336  0  0  -0.122973  0  3.968924  0  0  -0.131061  0  3.989772  0  -0.034251  0  -0.077144  -0.117756  0  3.955292  0
C  C50  1  0.71397207  0.71335409  0.66875112  1  0  0.18002  0  3.648093  0  0  0.142575  0  3.90362  0  0  0.153128  0  3.917706  0  0.553832  0  0.069606  0.135586  0  3.894246  0
C  C51  1  0.28602840  0.28664571  0.33124663  1  0  0.179873  0  3.64826  0  0  0.142454  0  3.903736  0  0  0.153007  0  3.917832  0  0.553782  0  0.069574  0.135461  0  3.89436  0
C  C52  1  0.47530468  0.00478706  0.29884175  1  0  -0.029251  0  3.672444  0  0  -0.062949  0  3.935504  0  0  -0.059281  0  3.950258  0  -0.053071  0  -0.062957  -0.065453  0  3.925548  0
C  C53  1  0.52469358  0.99521188  0.70115787  1  0  -0.029206  0  3.672426  0  0  -0.062891  0  3.935477  0  0  -0.05922  0  3.950231  0  -0.053222  0  -0.062942  -0.065394  0  3.925521  0
C  C54  1  0.59593701  0.08481402  0.32649043  1  0  -0.092802  0  3.684084  0  0  -0.1079  0  3.945165  0  0  -0.113784  0  3.966021  0  0.000628  0  -0.074765  -0.104068  0  3.931237  0
C  C55  1  0.40406144  0.91518578  0.67350764  1  0  -0.092861  0  3.684227  0  0  -0.108004  0  3.945304  0  0  -0.11389  0  3.966157  0  0.000774  0  -0.074798  -0.104171  0  3.931374  0
C  C56  1  0.71075968  0.06651910  0.41335628  1  0  0.161018  0  3.625314  0  0  0.124204  0  3.891983  0  0  0.133043  0  3.905753  0  0.499337  0  0.063153  0.118251  0  3.882688  0
C  C57  1  0.28923959  0.93347985  0.58664196  1  0  0.161067  0  3.625299  0  0  0.124278  0  3.891967  0  0  0.133119  0  3.905735  0  0.499326  0  0.063192  0.118328  0  3.882672  0
C  C58  1  0.05908578  0.12679136  0.63320692  1  0  0.676094  0  3.867207  0  0  0.62047  0  4.164618  0  0  0.656234  0  4.154578  0  1.586808  0  0.217182  0.596081  0  4.170679  0
C  C59  1  0.94091386  0.87320930  0.36679310  1  0  0.67611  0  3.867169  0  0  0.620493  0  4.164601  0  0  0.656255  0  4.154562  0  1.586811  0  0.217204  0.596103  0  4.170659  0
C  C60  1  0.94431254  0.16354465  0.19678126  1  0  0.640233  0  3.953601  0  0  0.590147  0  4.257795  0  0  0.62316  0  4.250445  0  1.62426  0  0.191341  0.567683  0  4.262021  0
C  C61  1  0.05568729  0.83645688  0.80321884  1  0  0.640329  0  3.953414  0  0  0.590142  0  4.257765  0  0  0.623155  0  4.250416  0  1.624402  0  0.191346  0.567678  0  4.261993  0
C  C62  1  0.88129791  0.36532559  0.31717224  1  0  0.701699  0  3.852915  0  0  0.647583  0  4.148193  0  0  0.684399  0  4.137614  0  1.604448  0  0.220414  0.622428  0  4.154747  0
C  C63  1  0.11869915  0.63467250  0.68282948  1  0  0.701783  0  3.852931  0  0  0.647659  0  4.148248  0  0  0.684474  0  4.137666  0  1.604409  0  0.220419  0.622505  0  4.154802  0
C  C64  1  0.78344474  0.30071443  0.21002388  1  0  -0.079772  0  3.723266  0  0  -0.06865  0  3.958451  0  0  -0.074059  0  3.977196  0  -0.068495  0  -0.017229  -0.065149  0  3.946002  0
C  C65  1  0.21655251  0.69928451  0.78997711  1  0  -0.079769  0  3.723266  0  0  -0.068686  0  3.958521  0  0  -0.074098  0  3.97727  0  -0.068498  0  -0.017213  -0.065185  0  3.946073  0
C  C66  1  0.81137270  0.20762004  0.15192880  1  0  -0.024379  0  3.711851  0  0  -0.010767  0  3.947738  0  0  -0.0132  0  3.967327  0  -0.012476  0  -0.006326  -0.009402  0  3.934853  0
C  C67  1  0.18862695  0.79238063  0.84807122  1  0  -0.024467  0  3.711811  0  0  -0.01082  0  3.947754  0  0  -0.013254  0  3.967342  0  -0.012478  0  -0.006329  -0.009454  0  3.934869  0
C  C68  1  0.71083229  0.14976582  0.05525173  1  0  -0.192588  0  3.725601  0  0  -0.230862  0  3.990507  0  0  -0.23383  0  4.006463  0  0.068209  0  -0.098757  -0.228985  0  3.980147  0
C  C69  1  0.28916735  0.85023484  0.94474829  1  0  -0.192572  0  3.725616  0  0  -0.230845  0  3.990515  0  0  -0.233803  0  4.006454  0  0.068186  0  -0.098766  -0.228967  0  3.980153  0
C  C70  1  0.58377693  0.18350752  0.01907198  1  0  0.270097  0  3.808674  0  0  0.2591  0  4.080082  0  0  0.269765  0  4.094721  0  0.326192  0  0.076749  0.251744  0  4.070049  0
C  C71  1  0.41622271  0.81649315  0.98092885  1  0  0.270044  0  3.808668  0  0  0.25907  0  4.080051  0  0  0.269765  0  4.094692  0  0.326751  0  0.076735  0.251716  0  4.070016  0
C  C72  1  0.55490649  0.27639202  0.07591666  1  0  -0.197504  0  3.794125  0  0  -0.219245  0  4.046231  0  0  -0.22356  0  4.06448  0  0.033676  0  -0.107815  -0.216023  0  4.033429  0
C  C73  1  0.44509277  0.72360692  0.92408401  1  0  -0.197455  0  3.794034  0  0  -0.219158  0  4.046137  0  0  -0.223505  0  4.064369  0  0.033649  0  -0.107748  -0.215936  0  4.033336  0
C  C74  1  0.65586064  0.33484752  0.17063407  1  0  -0.068907  0  3.78964  0  0  -0.089116  0  4.039249  0  0  -0.088318  0  4.058385  0  -0.046162  0  -0.091807  -0.089392  0  4.026097  0
C  C75  1  0.34413761  0.66515142  0.82936717  1  0  -0.06897  0  3.789641  0  0  -0.089159  0  4.039257  0  0  -0.088358  0  4.058399  0  -0.046075  0  -0.09187  -0.089436  0  4.026106  0
C  C76  1  0.41011512  0.18207011  0.84650335  1  0  0.273431  0  3.806521  0  0  0.263827  0  4.073166  0  0  0.27423  0  4.088418  0  0.489545  0  0.08349  0.256788  0  4.062526  0
C  C77  1  0.58988433  0.81792970  0.15349740  1  0  0.273482  0  3.806263  0  0  0.263795  0  4.073036  0  0  0.274227  0  4.088284  0  0.489546  0  0.083481  0.25676  0  4.062392  0
C  C78  1  0.27322652  0.13408765  0.79069209  1  0  -0.173669  0  3.686192  0  0  -0.205411  0  3.936131  0  0  -0.208356  0  3.953807  0  -0.092705  0  -0.090667  -0.203289  0  3.924148  0
C  C79  1  0.72677394  0.86591215  0.20930809  1  0  -0.17376  0  3.686039  0  0  -0.205448  0  3.936022  0  0  -0.208391  0  3.953687  0  -0.0927  0  -0.090672  -0.203326  0  3.924032  0
C  C80  1  0.19697978  0.19027392  0.70446129  1  0  -0.041378  0  3.736536  0  0  -0.027829  0  3.972631  0  0  -0.030916  0  3.991672  0  0.012035  0  -0.009856  -0.025746  0  3.960101  0
C  C81  1  0.80301986  0.80972674  0.29553873  1  0  -0.041233  0  3.736476  0  0  -0.027722  0  3.972617  0  0  -0.030812  0  3.991659  0  0.012045  0  -0.009803  -0.025623  0  3.960093  0
C  C82  1  0.25620748  0.29643661  0.67637547  1  0  -0.084379  0  3.737528  0  0  -0.075591  0  3.981451  0  0  -0.081624  0  4.001418  0  -0.03342  0  -0.021781  -0.071824  0  3.968277  0
C  C83  1  0.74379317  0.70356405  0.32362479  1  0  -0.084507  0  3.737618  0  0  -0.075722  0  3.981562  0  0  -0.081746  0  4.001515  0  -0.033449  0  -0.021866  -0.072004  0  3.968453  0
C  C84  1  0.39391430  0.34222123  0.73267192  1  0  -0.060391  0  3.784721  0  0  -0.085986  0  4.043516  0  0  -0.084812  0  4.062809  0  -0.02335  0  -0.090474  -0.086498  0  4.030231  0
C  C85  1  0.60608737  0.65777943  0.26732939  1  0  -0.060382  0  3.784726  0  0  -0.085948  0  4.043517  0  0  -0.084774  0  4.062805  0  -0.0233  0  -0.090476  -0.086447  0  4.030246  0
C  C86  1  0.47179010  0.28584142  0.81724778  1  0  -0.196661  0  3.787792  0  0  -0.220598  0  4.047873  0  0  -0.225198  0  4.067039  0  -0.021856  0  -0.107972  -0.21739  0  4.03471  0
C  C87  1  0.52821036  0.71415839  0.18275241  1  0  -0.196691  0  3.787736  0  0  -0.220597  0  4.047825  0  0  -0.225194  0  4.066983  0  -0.021853  0  -0.10796  -0.217388  0  4.034659  0
C  C88  1  0.17046773  0.36656343  0.59727927  1  0  0.685637  0  3.866133  0  0  0.630276  0  4.163893  0  0  0.666251  0  4.154558  0  1.575811  0  0.216126  0.605779  0  4.16947  0
C  C89  1  0.82953273  0.63343638  0.40272091  1  0  0.685599  0  3.866195  0  0  0.630265  0  4.163926  0  0  0.666238  0  4.15459  0  1.575826  0  0.216145  0.605781  0  4.169506  0
N  N90  1  0.22449244  0.65149302  0.36840063  1  0  -0.407882  0  3.143825  0  0  -0.336458  0  3.430891  0  0  -0.357945  0  3.44256  0  -1.218767  0  -0.337048  -0.321765  0  3.422788  0
N  N91  1  0.77550683  0.34850592  0.63160085  1  0  -0.407917  0  3.143834  0  0  -0.336488  0  3.43087  0  0  -0.357977  0  3.442542  0  -1.218731  0  -0.337024  -0.321796  0  3.422766  0
N  N92  1  0.22602458  0.79822317  0.26205226  1  0  -0.309598  0  3.384133  0  0  -0.251377  0  3.625818  0  0  -0.267276  0  3.638274  0  -1.269784  0  -0.361165  -0.240572  0  3.617413  0
N  N93  1  0.77397386  0.20177664  0.73794663  1  0  -0.309589  0  3.38412  0  0  -0.25135  0  3.625811  0  0  -0.267244  0  3.638262  0  -1.269742  0  -0.361149  -0.240545  0  3.617407  0
N  N94  1  0.70643983  0.97475009  0.47227864  1  0  -0.36238  0  3.272339  0  0  -0.295356  0  3.547226  0  0  -0.313873  0  3.564106  0  -1.251578  0  -0.312215  -0.282917  0  3.535764  0
N  N95  1  0.29355981  0.02525057  0.52772058  1  0  -0.362332  0  3.272354  0  0  -0.295367  0  3.547312  0  0  -0.313884  0  3.564191  0  -1.251571  0  -0.312223  -0.282933  0  3.535852  0
N  N96  1  0.70679949  0.79805887  0.60074102  1  0  -0.35664  0  3.299745  0  0  -0.284578  0  3.58249  0  0  -0.303555  0  3.595316  0  -1.251285  0  -0.32016  -0.271892  0  3.573823  0
N  N97  1  0.29319833  0.20194266  0.39925698  1  0  -0.356618  0  3.299804  0  0  -0.284544  0  3.582479  0  0  -0.303522  0  3.595306  0  -1.251297  0  -0.320121  -0.271847  0  3.573802  0
O  O98  1  0.97712559  0.07483990  0.68286137  1  0  -0.630812  0  2.011009  0  0  -0.569256  0  2.276684  0  0  -0.595847  0  2.260457  0  -1.171866  0  -0.321225  -0.550556  0  2.287333  0
O  O99  1  0.02287506  0.92516076  0.31713809  1  0  -0.630834  0  2.010961  0  0  -0.569287  0  2.27665  0  0  -0.595876  0  2.260422  0  -1.171879  0  -0.321236  -0.550593  0  2.287313  0
O  O100  1  0.03377675  0.12191742  0.52628021  1  0  -0.622494  0  2.116366  0  0  -0.550095  0  2.387164  0  0  -0.578091  0  2.372132  0  -1.163706  0  -0.305945  -0.530469  0  2.396788  0
O  O101  1  0.96622308  0.87808411  0.47371908  1  0  -0.62249  0  2.116342  0  0  -0.550083  0  2.387134  0  0  -0.578078  0  2.372102  0  -1.163727  0  -0.305951  -0.530456  0  2.396758  0
O  O102  1  0.97643247  0.15777609  0.30543497  1  0  -0.652191  0  2.073105  0  0  -0.578518  0  2.344179  0  0  -0.610064  0  2.332738  0  -1.180855  0  -0.330855  -0.555942  0  2.351  0
O  O103  1  0.02357455  0.84223060  0.69456546  1  0  -0.652237  0  2.073045  0  0  -0.578526  0  2.344159  0  0  -0.610073  0  2.332717  0  -1.181123  0  -0.330879  -0.555948  0  2.350981  0
O  O104  1  0.00794722  0.13673022  0.13102275  1  0  -0.617137  0  1.828129  0  0  -0.583596  0  2.023522  0  0  -0.60348  0  2.013812  0  -1.170764  0  -0.358793  -0.569527  0  2.02966  0
O  O105  1  0.99204983  0.86326787  0.86897493  1  0  -0.617128  0  1.828097  0  0  -0.583552  0  2.023544  0  0  -0.603434  0  2.013836  0  -1.170644  0  -0.358771  -0.569483  0  2.029681  0
O  O106  1  0.99729558  0.41924779  0.31479924  1  0  -0.627725  0  2.030119  0  0  -0.566874  0  2.288112  0  0  -0.595785  0  2.273739  0  -1.164473  0  -0.318532  -0.546693  0  2.297456  0
O  O107  1  0.00270412  0.58074858  0.68520224  1  0  -0.627771  0  2.030168  0  0  -0.566887  0  2.288141  0  0  -0.595799  0  2.27377  0  -1.164536  0  -0.318532  -0.546707  0  2.297487  0
O  O108  1  0.83223722  0.36593634  0.40061262  1  0  -0.643488  0  2.072823  0  0  -0.577816  0  2.341519  0  0  -0.607189  0  2.327962  0  -1.173699  0  -0.315077  -0.557443  0  2.350294  0
O  O109  1  0.16776022  0.63406347  0.59939008  1  0  -0.643494  0  2.072791  0  0  -0.577852  0  2.341531  0  0  -0.607233  0  2.327994  0  -1.173602  0  -0.315089  -0.557478  0  2.350307  0
O  O110  1  0.48364487  0.11997765  0.92664156  1  0  -0.296521  0  2.331569  0  0  -0.231072  0  2.558697  0  0  -0.248717  0  2.560894  0  -1.102451  0  -0.155582  -0.218436  0  2.556703  0
O  O111  1  0.51635237  0.88002130  0.07335863  1  0  -0.296429  0  2.331497  0  0  -0.230987  0  2.558684  0  0  -0.248708  0  2.560926  0  -1.102982  0  -0.155583  -0.218357  0  2.556695  0
O  O112  1  0.22288701  0.42207357  0.52884879  1  0  -0.635208  0  2.063794  0  0  -0.565041  0  2.322843  0  0  -0.594211  0  2.311376  0  -1.17347  0  -0.313654  -0.544666  0  2.330214  0
O  O113  1  0.77711326  0.57792537  0.47115213  1  0  -0.635183  0  2.063748  0  0  -0.565049  0  2.322818  0  0  -0.594222  0  2.311349  0  -1.173483  0  -0.313676  -0.544676  0  2.330191  0
O  O114  1  0.05367837  0.36959566  0.60947969  1  0  -0.649156  0  2.11084  0  0  -0.584852  0  2.37147  0  0  -0.614242  0  2.360072  0  -1.176436  0  -0.30813  -0.564322  0  2.378695  0
O  O115  1  0.94632209  0.63040414  0.39052050  1  0  -0.649113  0  2.11096  0  0  -0.584806  0  2.371577  0  0  -0.614201  0  2.360186  0  -1.176425  0  -0.308102  -0.564274  0  2.378796  0
