# generated using pymatgen
data_CaH9C11N3O5
_symmetry_space_group_name_H-M   'P 1'
_cell_length_a   8.76567324
_cell_length_b   11.38489441
_cell_length_c   12.71700000
_cell_angle_alpha   90.00000000
_cell_angle_beta   100.19770895
_cell_angle_gamma   90.00000000
_symmetry_Int_Tables_number   1
_chemical_formula_structural   CaH9C11N3O5
_chemical_formula_sum   'Ca4 H36 C44 N12 O20'
_cell_volume   1249.06058032
_cell_formula_units_Z   4
loop_
 _symmetry_equiv_pos_site_id
 _symmetry_equiv_pos_as_xyz
  1  'x, y, z'
loop_
 _atom_site_type_symbol
 _atom_site_label
 _atom_site_symmetry_multiplicity
 _atom_site_fract_x
 _atom_site_fract_y
 _atom_site_fract_z
 _atom_site_occupancy
 _atom_site_hle17_bader_spin_density
 _atom_site_hle17_ddec_charge
 _atom_site_hle17_ddec_spin_density
 _atom_site_hle17_ddec_sum_bond_order
 _atom_site_hle17_magmom
 _atom_site_hse06_10hf_bader_spin_density
 _atom_site_hse06_10hf_ddec_charge
 _atom_site_hse06_10hf_ddec_spin_density
 _atom_site_hse06_10hf_ddec_sum_bond_order
 _atom_site_hse06_10hf_magmom
 _atom_site_hse06_bader_spin_density
 _atom_site_hse06_ddec_charge
 _atom_site_hse06_ddec_spin_density
 _atom_site_hse06_ddec_sum_bond_order
 _atom_site_hse06_magmom
 _atom_site_pbe_bader_charge
 _atom_site_pbe_bader_spin_density
 _atom_site_pbe_cm5_charge
 _atom_site_pbe_ddec_charge
 _atom_site_pbe_ddec_spin_density
 _atom_site_pbe_ddec_sum_bond_order
 _atom_site_pbe_magmom
Ca  Ca0  1  0.83443999  0.01222848  0.88453376  1  0  1.527293  0  1.203579  0  0  1.392543  0  1.572045  0  0  1.4359  0  1.526482  0  1.625671  0  0.944466  1.360397  0  1.603949  0
Ca  Ca1  1  0.83444231  0.98777025  0.38453247  1  0  1.527305  0  1.203683  0  0  1.392578  0  1.57213  0  0  1.435853  0  1.526711  0  1.625627  0  0.94442  1.360439  0  1.604024  0
Ca  Ca2  1  0.37155396  0.40834810  0.02381873  1  0  1.484223  0  1.208342  0  0  1.338152  0  1.574833  0  0  1.383462  0  1.53001  0  1.624982  0  0.931606  1.304372  0  1.606486  0
Ca  Ca3  1  0.37155859  0.59165239  0.52381929  1  0  1.484241  0  1.208257  0  0  1.338169  0  1.574727  0  0  1.383479  0  1.529906  0  1.625011  0  0.931606  1.304389  0  1.606379  0
H  H4  1  0.24721349  0.31311929  0.41334796  1  0  0.125836  0  0.936049  0  0  0.136996  0  1.00093  0  0  0.140045  0  0.998327  0  0.11149  0  0.114867  0.13476  0  1.002891  0
H  H5  1  0.24721465  0.68688208  0.91334889  1  0  0.125771  0  0.936002  0  0  0.13691  0  1.00093  0  0  0.139958  0  0.998328  0  0.111594  0  0.11483  0.134673  0  1.002892  0
H  H6  1  0.08145633  0.25899581  0.45884437  1  0  0.10899  0  0.947886  0  0  0.122043  0  1.01082  0  0  0.123343  0  1.011879  0  0.063851  0  0.109527  0.121148  0  1.010098  0
H  H7  1  0.08145633  0.74100380  0.95884437  1  0  0.108975  0  0.947901  0  0  0.12201  0  1.010844  0  0  0.12332  0  1.011892  0  0.063857  0  0.109521  0.121116  0  1.010123  0
H  H8  1  0.39257353  0.05870586  0.38751463  1  0  0.107537  0  0.962503  0  0  0.117909  0  1.023643  0  0  0.121095  0  1.022704  0  0.105142  0  0.109074  0.115598  0  1.024525  0
H  H9  1  0.39257353  0.94129551  0.88751620  1  0  0.107475  0  0.962544  0  0  0.117805  0  1.02373  0  0  0.120986  0  1.022794  0  0.105157  0  0.109024  0.115494  0  1.024613  0
H  H10  1  0.20226495  0.22382816  0.64256424  1  0  0.117152  0  0.980108  0  0  0.125474  0  1.043935  0  0  0.128491  0  1.0437  0  0.127488  0  0.105449  0.123255  0  1.044357  0
H  H11  1  0.20226379  0.77617321  0.14256488  1  0  0.117032  0  0.980238  0  0  0.125427  0  1.043985  0  0  0.128443  0  1.043752  0  0.127492  0  0.105438  0.123208  0  1.044406  0
H  H12  1  0.54539601  0.92925060  0.52473005  1  0  0.079812  0  0.960738  0  0  0.085486  0  1.029909  0  0  0.089412  0  1.025578  0  0.131521  0  0.12291  0.082506  0  1.033196  0
H  H13  1  0.54539485  0.07074901  0.02472991  1  0  0.079818  0  0.960746  0  0  0.085492  0  1.029915  0  0  0.089418  0  1.025587  0  0.13152  0  0.122916  0.082513  0  1.033201  0
H  H14  1  0.36418540  0.09127357  0.76822107  1  0  0.073399  0  0.938513  0  0  0.084022  0  1.001667  0  0  0.086515  0  0.999416  0  0.065334  0  0.11743  0.082065  0  1.003517  0
H  H15  1  0.36418540  0.90872692  0.26822186  1  0  0.073395  0  0.938533  0  0  0.084013  0  1.001692  0  0  0.086507  0  0.999441  0  0.065367  0  0.11743  0.082056  0  1.003543  0
H  H16  1  0.57665181  0.34804275  0.44112909  1  0  0.123715  0  0.935273  0  0  0.136616  0  0.994969  0  0  0.139158  0  0.993317  0  0.085421  0  0.114352  0.13482  0  0.996162  0
H  H17  1  0.57664949  0.65195774  0.94112409  1  0  0.123663  0  0.935298  0  0  0.136619  0  0.994947  0  0  0.139163  0  0.993294  0  0.085332  0  0.114349  0.134824  0  0.996141  0
H  H18  1  0.68956215  0.22764902  0.50036303  1  0  0.124872  0  0.936928  0  0  0.134797  0  1.005242  0  0  0.137845  0  1.002843  0  0.123521  0  0.115864  0.132634  0  1.007004  0
H  H19  1  0.68955751  0.77235148  0.00035932  1  0  0.124874  0  0.936949  0  0  0.13482  0  1.005259  0  0  0.137866  0  1.002863  0  0.123505  0  0.115869  0.13266  0  1.007014  0
H  H20  1  0.90328273  0.36607015  0.67821926  1  0  0.111528  0  0.970716  0  0  0.121794  0  1.030541  0  0  0.124896  0  1.02984  0  0.076454  0  0.109636  0.11953  0  1.031292  0
H  H21  1  0.90327809  0.63392946  0.17821869  1  0  0.111529  0  0.970741  0  0  0.121769  0  1.030589  0  0  0.12487  0  1.029889  0  0.075469  0  0.109636  0.119505  0  1.03134  0
H  H22  1  0.77114830  0.43467685  0.33989479  1  0  0.104039  0  0.949922  0  0  0.115137  0  1.007517  0  0  0.118012  0  1.00764  0  0.08403  0  0.106413  0.113063  0  1.007623  0
H  H23  1  0.77114598  0.56532277  0.83989293  1  0  0.104063  0  0.949874  0  0  0.11518  0  1.007454  0  0  0.118056  0  1.007575  0  0.084031  0  0.106424  0.113106  0  1.007561  0
H  H24  1  0.14729809  0.46739125  0.67333452  1  0  0.073253  0  0.96564  0  0  0.080751  0  1.033143  0  0  0.082684  0  1.031352  0  0.091069  0  0.119157  0.079317  0  1.034422  0
H  H25  1  0.14729346  0.53260749  0.17333396  1  0  0.07328  0  0.965567  0  0  0.080742  0  1.033107  0  0  0.082674  0  1.031317  0  0.091112  0  0.119169  0.079309  0  1.034381  0
H  H26  1  0.02511012  0.53780385  0.34959495  1  0  0.078088  0  0.958526  0  0  0.084906  0  1.026171  0  0  0.087834  0  1.023006  0  0.124786  0  0.117137  0.082701  0  1.028519  0
H  H27  1  0.02510896  0.46219665  0.84959402  1  0  0.078085  0  0.958522  0  0  0.084905  0  1.026163  0  0  0.087834  0  1.022996  0  0.124784  0  0.117142  0.082702  0  1.028508  0
H  H28  1  0.25586172  0.27945977  0.22155284  1  0  0.32535  0  0.920252  0  0  0.300393  0  0.991161  0  0  0.310912  0  0.981577  0  0.563966  0  0.313563  0.292957  0  0.997942  0
H  H29  1  0.25586172  0.72054072  0.72155284  1  0  0.325319  0  0.920319  0  0  0.300363  0  0.991228  0  0  0.310883  0  0.981642  0  0.563974  0  0.313563  0.292926  0  0.998009  0
H  H30  1  0.71856577  0.20207302  0.70568043  1  0  0.322609  0  0.91899  0  0  0.296231  0  0.991036  0  0  0.306534  0  0.981971  0  0.565951  0  0.315946  0.288974  0  0.997411  0
H  H31  1  0.71856345  0.79792659  0.20567622  1  0  0.322613  0  0.918969  0  0  0.296226  0  0.991031  0  0  0.306537  0  0.981967  0  0.565994  0  0.315948  0.288962  0  0.997418  0
H  H32  1  0.03903121  0.21645436  0.77898194  1  0  0.403034  0  0.884297  0  0  0.375266  0  0.957597  0  0  0.384962  0  0.943126  0  0.601161  0  0.292032  0.368403  0  0.967842  0
H  H33  1  0.03903005  0.78354438  0.27898102  1  0  0.403069  0  0.884251  0  0  0.375307  0  0.957541  0  0  0.385005  0  0.943066  0  0.601213  0  0.292047  0.368444  0  0.967786  0
H  H34  1  0.16834780  0.25163694  0.86944741  1  0  0.39734  0  0.90851  0  0  0.368742  0  0.975266  0  0  0.37994  0  0.958614  0  0.627274  0  0.289907  0.360768  0  0.987111  0
H  H35  1  0.16834780  0.74836443  0.36944741  1  0  0.397341  0  0.908465  0  0  0.368771  0  0.975221  0  0  0.37997  0  0.958566  0  0.627272  0  0.289926  0.360797  0  0.987065  0
H  H36  1  0.56785637  0.92489395  0.73563567  1  0  0.374238  0  0.957992  0  0  0.328947  0  1.044467  0  0  0.34169  0  1.026678  0  0.627582  0  0.277963  0.320072  0  1.056825  0
H  H37  1  0.56785637  0.07510654  0.23563645  1  0  0.374253  0  0.957974  0  0  0.328985  0  1.044411  0  0  0.341728  0  1.02662  0  0.627585  0  0.277989  0.32011  0  1.056768  0
H  H38  1  0.65620370  0.80169826  0.76514170  1  0  0.420661  0  0.835114  0  0  0.406934  0  0.882164  0  0  0.415396  0  0.869944  0  0.593366  0  0.323607  0.400846  0  0.891004  0
H  H39  1  0.65620370  0.19830223  0.26514170  1  0  0.420644  0  0.835133  0  0  0.406917  0  0.882187  0  0  0.415379  0  0.869964  0  0.593358  0  0.323601  0.400829  0  0.891026  0
C  C40  1  0.13085127  0.16608938  0.03334756  1  0  0.686062  0  3.948003  0  0  0.635503  0  4.244347  0  0  0.670998  0  4.233119  0  1.657696  0  0.234468  0.6113  0  4.251306  0
C  C41  1  0.13086055  0.83390672  0.53335263  1  0  0.685817  0  3.947932  0  0  0.635347  0  4.244153  0  0  0.67084  0  4.232925  0  1.658  0  0.234388  0.611143  0  4.25111  0
C  C42  1  0.10374630  0.14341635  0.14332753  1  0  0.021312  0  3.663186  0  0  0.004588  0  3.925165  0  0  0.004212  0  3.942471  0  0.371565  0  0.098106  0.004748  0  3.913694  0
C  C43  1  0.10374630  0.85658414  0.64332753  1  0  0.021303  0  3.663253  0  0  0.004573  0  3.925205  0  0  0.004195  0  3.942501  0  0.371527  0  0.098111  0.004731  0  3.913737  0
C  C44  1  0.00926604  0.06605419  0.18893608  1  0  -0.010209  0  3.730767  0  0  -0.016579  0  3.99666  0  0  -0.018945  0  4.016037  0  0.442572  0  0.088478  -0.015067  0  3.983662  0
C  C45  1  0.00926720  0.93394718  0.68893623  1  0  -0.01006  0  3.730724  0  0  -0.016497  0  3.996687  0  0  -0.018845  0  4.016044  0  0.442732  0  0.08851  -0.014985  0  3.983691  0
C  C46  1  0.91250820  0.96158468  0.14833621  1  0  0.687514  0  3.891607  0  0  0.634125  0  4.194288  0  0  0.669562  0  4.182761  0  1.600786  0  0.239463  0.609996  0  4.201443  0
C  C47  1  0.91250704  0.03841494  0.64834550  1  0  0.687416  0  3.891682  0  0  0.634051  0  4.194363  0  0  0.669481  0  4.182839  0  1.600551  0  0.239483  0.609921  0  4.201518  0
C  C48  1  0.12689634  0.17856292  0.31722995  1  0  0.406859  0  3.702661  0  0  0.380186  0  3.976277  0  0  0.394849  0  3.989732  0  1.001943  0  0.233539  0.3705  0  3.966762  0
C  C49  1  0.12689634  0.82143757  0.81722995  1  0  0.406925  0  3.702581  0  0  0.380234  0  3.9762  0  0  0.394896  0  3.989662  0  1.001948  0  0.233579  0.370554  0  3.966673  0
C  C50  1  0.18225034  0.23230079  0.42403305  1  0  -0.267027  0  3.702749  0  0  -0.31035  0  3.940029  0  0  -0.313431  0  3.947365  0  0.006686  0  -0.139237  -0.308072  0  3.934804  0
C  C51  1  0.18225034  0.76769970  0.92403305  1  0  -0.266952  0  3.70265  0  0  -0.310252  0  3.939961  0  0  -0.313336  0  3.947282  0  0.006516  0  -0.139207  -0.307974  0  3.934733  0
C  C52  1  0.28189218  0.15200668  0.50258431  1  0  0.177241  0  3.693983  0  0  0.194445  0  3.928012  0  0  0.199574  0  3.950034  0  -0.042757  0  0.020496  0.191227  0  3.912946  0
C  C53  1  0.28189102  0.84799381  0.00258574  1  0  0.177237  0  3.693977  0  0  0.19444  0  3.927997  0  0  0.199567  0  3.950018  0  -0.042668  0  0.020515  0.191223  0  3.91293  0
C  C54  1  0.38208113  0.06853116  0.47111348  1  0  -0.171026  0  3.693163  0  0  -0.189548  0  3.940814  0  0  -0.197635  0  3.962269  0  -0.025922  0  -0.081235  -0.184368  0  3.92645  0
C  C55  1  0.38207997  0.93146933  0.97111412  1  0  -0.170988  0  3.693066  0  0  -0.189465  0  3.940706  0  0  -0.19755  0  3.962161  0  -0.025913  0  -0.081207  -0.184287  0  3.926343  0
C  C56  1  0.27630984  0.16056100  0.61148473  1  0  -0.179429  0  3.704872  0  0  -0.200812  0  3.95916  0  0  -0.209553  0  3.982197  0  0.046596  0  -0.088429  -0.195185  0  3.943733  0
C  C57  1  0.27630984  0.83944037  0.11148552  1  0  -0.179298  0  3.704973  0  0  -0.200728  0  3.959232  0  0  -0.20947  0  3.982272  0  0.046582  0  -0.088419  -0.195102  0  3.943805  0
C  C58  1  0.46923688  0.99684895  0.54780208  1  0  0.132768  0  3.709489  0  0  0.100166  0  3.968044  0  0  0.107217  0  3.984485  0  0.426272  0  0.0541  0.095741  0  3.956885  0
C  C59  1  0.46923688  0.00315154  0.04780286  1  0  0.132726  0  3.709444  0  0  0.100123  0  3.967989  0  0  0.107173  0  3.984432  0  0.426267  0  0.054095  0.095699  0  3.956832  0
C  C60  1  0.36747152  0.08593931  0.68297375  1  0  0.131114  0  3.733096  0  0  0.093986  0  4.00151  0  0  0.100759  0  4.019728  0  0.445516  0  0.046073  0.089732  0  3.989115  0
C  C61  1  0.36747036  0.91406030  0.18297439  1  0  0.131055  0  3.733133  0  0  0.093918  0  4.001586  0  0  0.100689  0  4.019806  0  0.44561  0  0.046061  0.089665  0  3.989192  0
C  C62  1  0.60580959  0.26366077  0.88706214  1  0  0.692726  0  3.946025  0  0  0.642169  0  4.247462  0  0  0.678083  0  4.234869  0  1.658682  0  0.235791  0.617625  0  4.255368  0
C  C63  1  0.60580727  0.73633358  0.38706107  1  0  0.692915  0  3.945986  0  0  0.642371  0  4.247389  0  0  0.678283  0  4.234794  0  1.659289  0  0.235918  0.617827  0  4.255295  0
C  C64  1  0.58014657  0.32323356  0.78057185  1  0  0.009903  0  3.651674  0  0  -0.00566  0  3.913005  0  0  -0.006285  0  3.930788  0  0.36328  0  0.096657  -0.005268  0  3.901119  0
C  C65  1  0.58014425  0.67676693  0.28056764  1  0  0.009775  0  3.651791  0  0  -0.005757  0  3.913085  0  0  -0.006383  0  3.93087  0  0.363344  0  0.096642  -0.005359  0  3.9012  0
C  C66  1  0.50028519  0.42282166  0.73527747  1  0  -0.005081  0  3.747538  0  0  -0.012337  0  4.015096  0  0  -0.01472  0  4.035133  0  0.417911  0  0.084892  -0.010773  0  4.001526  0
C  C67  1  0.50028056  0.57717883  0.23527376  1  0  -0.005025  0  3.747616  0  0  -0.012294  0  4.015181  0  0  -0.014677  0  4.035217  0  0.417576  0  0.084898  -0.010745  0  4.001629  0
C  C68  1  0.41123080  0.51863898  0.77688748  1  0  0.667271  0  3.926184  0  0  0.614486  0  4.234078  0  0  0.649909  0  4.22178  0  1.600967  0  0.227618  0.59033  0  4.241813  0
C  C69  1  0.41122964  0.48136151  0.27688734  1  0  0.667298  0  3.926115  0  0  0.614498  0  4.234016  0  0  0.649919  0  4.221719  0  1.601126  0  0.227615  0.590346  0  4.241754  0
C  C70  1  0.60465626  0.34094124  0.60991109  1  0  0.41547  0  3.700992  0  0  0.386194  0  3.977174  0  0  0.401245  0  3.990937  0  1.037715  0  0.235654  0.376325  0  3.96736  0
C  C71  1  0.60465047  0.65905925  0.10990645  1  0  0.415242  0  3.701082  0  0  0.38596  0  3.977323  0  0  0.401007  0  3.99109  0  1.037736  0  0.23548  0.376093  0  3.967506  0
C  C72  1  0.66557638  0.32181853  0.50896930  1  0  -0.271653  0  3.694601  0  0  -0.315501  0  3.934465  0  0  -0.318626  0  3.941085  0  -0.0229  0  -0.139051  -0.3133  0  3.929837  0
C  C73  1  0.66557522  0.67818108  0.00896523  1  0  -0.27164  0  3.694603  0  0  -0.315549  0  3.934535  0  0  -0.318674  0  3.941156  0  -0.022772  0  -0.139053  -0.31335  0  3.929904  0
C  C74  1  0.81439409  0.38946606  0.50862987  1  0  0.176771  0  3.698777  0  0  0.192027  0  3.935367  0  0  0.197514  0  3.956662  0  0.010359  0  0.022061  0.188578  0  3.920824  0
C  C75  1  0.81439061  0.61053443  0.00862788  1  0  0.176793  0  3.698769  0  0  0.192029  0  3.93542  0  0  0.197516  0  3.956717  0  0.010308  0  0.022061  0.188581  0  3.920875  0
C  C76  1  0.92314085  0.40198704  0.60259358  1  0  -0.172164  0  3.696963  0  0  -0.190129  0  3.939718  0  0  -0.197966  0  3.960229  0  -0.019653  0  -0.086699  -0.185164  0  3.926103  0
C  C77  1  0.92313738  0.59801345  0.10259395  1  0  -0.172126  0  3.696902  0  0  -0.190059  0  3.939658  0  0  -0.197893  0  3.960165  0  -0.018679  0  -0.086681  -0.185095  0  3.926044  0
C  C78  1  0.85181179  0.43928910  0.41570696  1  0  -0.181694  0  3.705628  0  0  -0.197823  0  3.949874  0  0  -0.206322  0  3.971836  0  -0.085335  0  -0.083383  -0.192368  0  3.935148  0
C  C79  1  0.85181063  0.56070964  0.91570525  1  0  -0.181746  0  3.705707  0  0  -0.197889  0  3.949972  0  0  -0.20639  0  3.971936  0  -0.085313  0  -0.08339  -0.192435  0  3.935244  0
C  C80  1  0.06196797  0.45975920  0.60020205  1  0  0.13239  0  3.743863  0  0  0.10608  0  3.998212  0  0  0.113291  0  4.016219  0  0.480535  0  0.051213  0.101466  0  3.985866  0
C  C81  1  0.06196449  0.54024216  0.10020005  1  0  0.13234  0  3.743728  0  0  0.106063  0  3.998081  0  0  0.113274  0  4.016086  0  0.480588  0  0.051192  0.101449  0  3.985736  0
C  C82  1  0.99350204  0.49670816  0.42030178  1  0  0.13777  0  3.72303  0  0  0.110514  0  3.978211  0  0  0.117905  0  3.995066  0  0.475548  0  0.053356  0.105787  0  3.966651  0
C  C83  1  0.99349857  0.50329233  0.92030056  1  0  0.137807  0  3.723045  0  0  0.110556  0  3.978225  0  0  0.117945  0  3.995082  0  0.475367  0  0.053365  0.105828  0  3.966666  0
N  N84  1  0.02504173  0.09109702  0.29671879  1  0  -0.502372  0  3.113357  0  0  -0.459523  0  3.386975  0  0  -0.476699  0  3.402645  0  -1.239657  0  -0.397314  -0.447508  0  3.375985  0
N  N85  1  0.02504173  0.90890259  0.79671957  1  0  -0.502458  0  3.113312  0  0  -0.45958  0  3.386952  0  0  -0.476775  0  3.402621  0  -1.239722  0  -0.39734  -0.447563  0  3.375961  0
N  N86  1  0.17707949  0.21129577  0.22670862  1  0  -0.335885  0  3.374623  0  0  -0.279648  0  3.608377  0  0  -0.295719  0  3.620573  0  -1.279641  0  -0.36011  -0.268801  0  3.600145  0
N  N87  1  0.17708065  0.78870472  0.72670876  1  0  -0.335873  0  3.374677  0  0  -0.279624  0  3.608422  0  0  -0.295697  0  3.620616  0  -1.279641  0  -0.360136  -0.268779  0  3.600189  0
N  N88  1  0.46220679  0.00493988  0.65237704  1  0  -0.319886  0  3.208718  0  0  -0.255469  0  3.460417  0  0  -0.270822  0  3.47601  0  -1.237987  0  -0.308863  -0.24513  0  3.449678  0
N  N89  1  0.46220679  0.99506061  0.15237783  1  0  -0.319816  0  3.208747  0  0  -0.255397  0  3.46042  0  0  -0.270751  0  3.476015  0  -1.238137  0  -0.308861  -0.245059  0  3.44968  0
N  N90  1  0.64413257  0.27472367  0.69897802  1  0  -0.348178  0  3.412785  0  0  -0.288411  0  3.644626  0  0  -0.305084  0  3.658546  0  -1.311114  0  -0.36193  -0.277233  0  3.635217  0
N  N91  1  0.64412910  0.72527594  0.19897445  1  0  -0.348041  0  3.412774  0  0  -0.288288  0  3.644615  0  0  -0.304963  0  3.658531  0  -1.311302  0  -0.361912  -0.277105  0  3.635213  0
N  N92  1  0.51668681  0.43118099  0.62921346  1  0  -0.510126  0  3.088407  0  0  -0.463811  0  3.360597  0  0  -0.482259  0  3.377128  0  -1.233985  0  -0.397814  -0.450874  0  3.348877  0
N  N93  1  0.51668217  0.56882038  0.12920975  1  0  -0.510018  0  3.088481  0  0  -0.463687  0  3.360656  0  0  -0.482132  0  3.377189  0  -1.233729  0  -0.397715  -0.450747  0  3.34894  0
N  N94  1  0.09909937  0.50652117  0.51087163  1  0  -0.393119  0  3.174319  0  0  -0.335524  0  3.440881  0  0  -0.352515  0  3.458905  0  -1.257615  0  -0.366371  -0.32374  0  3.428233  0
N  N95  1  0.09909589  0.49347845  0.01087120  1  0  -0.393138  0  3.174301  0  0  -0.335548  0  3.440854  0  0  -0.352541  0  3.458878  0  -1.257448  0  -0.366397  -0.323765  0  3.428209  0
O  O96  1  0.24216318  0.23501579  0.02230859  1  0  -0.720591  0  1.99618  0  0  -0.65804  0  2.242719  0  0  -0.686526  0  2.230344  0  -1.229704  0  -0.392937  -0.637659  0  2.250418  0
O  O97  1  0.24216202  0.76498645  0.52230924  1  0  -0.720422  0  1.996494  0  0  -0.657893  0  2.242939  0  0  -0.686394  0  2.230604  0  -1.230058  0  -0.392878  -0.637517  0  2.250639  0
O  O98  1  0.04241006  0.11943545  0.95610734  1  0  -0.698449  0  2.059105  0  0  -0.642698  0  2.311013  0  0  -0.669957  0  2.299979  0  -1.215213  0  -0.383847  -0.62348  0  2.318094  0
O  O99  1  0.04240658  0.88056768  0.45610299  1  0  -0.698415  0  2.058615  0  0  -0.642674  0  2.310433  0  0  -0.669912  0  2.299389  0  -1.2152  0  -0.383805  -0.623449  0  2.317504  0
O  O100  1  0.88306759  0.93414832  0.05089345  1  0  -0.684958  0  1.976465  0  0  -0.627867  0  2.223828  0  0  -0.654123  0  2.212219  0  -1.223036  0  -0.384989  -0.609364  0  2.231309  0
O  O101  1  0.88306527  0.06585217  0.55088845  1  0  -0.685081  0  1.976204  0  0  -0.628002  0  2.223553  0  0  -0.654245  0  2.211951  0  -1.222894  0  -0.385092  -0.609497  0  2.23103  0
O  O102  1  0.86392581  0.90052131  0.22108166  1  0  -0.705439  0  2.03602  0  0  -0.640176  0  2.275711  0  0  -0.666122  0  2.262212  0  -1.217209  0  -0.364793  -0.621852  0  2.284489  0
O  O103  1  0.86392465  0.09947655  0.72108073  1  0  -0.705324  0  2.036262  0  0  -0.640035  0  2.275923  0  0  -0.665984  0  2.262423  0  -1.21724  0  -0.364772  -0.621715  0  2.284703  0
O  O104  1  0.66332188  0.16092903  0.88927922  1  0  -0.705421  0  1.954208  0  0  -0.648029  0  2.202133  0  0  -0.674742  0  2.188565  0  -1.225678  0  -0.390763  -0.628973  0  2.210809  0
O  O105  1  0.66332420  0.83907410  0.38927478  1  0  -0.70558  0  1.954008  0  0  -0.648192  0  2.20194  0  0  -0.674892  0  2.188376  0  -1.225613  0  -0.390812  -0.629137  0  2.210616  0
O  O106  1  0.57012710  0.31592915  0.96698221  1  0  -0.696367  0  1.953557  0  0  -0.64072  0  2.194043  0  0  -0.666645  0  2.179592  0  -1.217748  0  -0.394302  -0.622267  0  2.203476  0
O  O107  1  0.57013173  0.68407222  0.46697649  1  0  -0.696343  0  1.953822  0  0  -0.640715  0  2.194319  0  0  -0.666634  0  2.179868  0  -1.218337  0  -0.394342  -0.622262  0  2.203748  0
O  O108  1  0.37254849  0.51333722  0.86781129  1  0  -0.678317  0  1.991626  0  0  -0.621951  0  2.2442  0  0  -0.648169  0  2.231958  0  -1.221341  0  -0.370372  -0.603427  0  2.252153  0
O  O109  1  0.37255196  0.48666240  0.36780936  1  0  -0.678359  0  1.991695  0  0  -0.621972  0  2.244255  0  0  -0.648188  0  2.232011  0  -1.221468  0  -0.370353  -0.603448  0  2.252207  0
O  O110  1  0.37833368  0.60604427  0.71263697  1  0  -0.693272  0  1.992801  0  0  -0.635306  0  2.234923  0  0  -0.660883  0  2.221032  0  -1.21855  0  -0.362328  -0.617142  0  2.243877  0
O  O111  1  0.37833368  0.39395447  0.21263540  1  0  -0.6933  0  1.992715  0  0  -0.63532  0  2.234814  0  0  -0.6609  0  2.220926  0  -1.21857  0  -0.36233  -0.617156  0  2.243767  0
O  O112  1  0.12260758  0.27433456  0.79583215  1  0  -0.821891  0  1.794683  0  0  -0.780683  0  1.962422  0  0  -0.797763  0  1.933708  0  -1.257592  0  -0.592797  -0.768393  0  1.982522  0
O  O113  1  0.12260642  0.72566593  0.29583122  1  0  -0.821906  0  1.794623  0  0  -0.780743  0  1.962324  0  0  -0.797824  0  1.933607  0  -1.257643  0  -0.59283  -0.768454  0  1.982426  0
O  O114  1  0.64425196  0.87922730  0.79436729  1  0  -0.88553  0  1.804004  0  0  -0.830999  0  1.994439  0  0  -0.851694  0  1.963396  0  -1.282005  0  -0.625261  -0.816117  0  2.015958  0
O  O115  1  0.64425428  0.12077319  0.29436836  1  0  -0.885544  0  1.804034  0  0  -0.831026  0  1.994428  0  0  -0.851707  0  1.963393  0  -1.282016  0  -0.625277  -0.816146  0  2.015944  0
