# generated using pymatgen
data_MnH24C22S2(NO2)3
_symmetry_space_group_name_H-M   'P 1'
_cell_length_a   10.09893377
_cell_length_b   10.81311506
_cell_length_c   11.37384376
_cell_angle_alpha   84.59488329
_cell_angle_beta   79.74758590
_cell_angle_gamma   71.39384524
_symmetry_Int_Tables_number   1
_chemical_formula_structural   MnH24C22S2(NO2)3
_chemical_formula_sum   'Mn2 H48 C44 S4 N6 O12'
_cell_volume   1157.39128234
_cell_formula_units_Z   2
loop_
 _symmetry_equiv_pos_site_id
 _symmetry_equiv_pos_as_xyz
  1  'x, y, z'
loop_
 _atom_site_type_symbol
 _atom_site_label
 _atom_site_symmetry_multiplicity
 _atom_site_fract_x
 _atom_site_fract_y
 _atom_site_fract_z
 _atom_site_occupancy
 _atom_site_hle17_ddec_charge
 _atom_site_hle17_ddec_spin_density
 _atom_site_hle17_ddec_sum_bond_order
 _atom_site_hle17_magmom
 _atom_site_hse06_10hf_ddec_charge
 _atom_site_hse06_10hf_ddec_spin_density
 _atom_site_hse06_10hf_ddec_sum_bond_order
 _atom_site_hse06_10hf_magmom
 _atom_site_hse06_ddec_charge
 _atom_site_hse06_ddec_spin_density
 _atom_site_hse06_ddec_sum_bond_order
 _atom_site_hse06_magmom
 _atom_site_pbe_cm5_charge
 _atom_site_pbe_ddec_charge
 _atom_site_pbe_ddec_spin_density
 _atom_site_pbe_ddec_sum_bond_order
 _atom_site_pbe_magmom
Mn  Mn0  1  0.89447169  0.11709364  0.23689045  1  1.182635  4.812252  1.704084  4.673  1.016508  4.744143  2.19814  4.532  1.078354  4.785731  2.125194  4.594  0.604976  0.968046  4.701576  2.252155  4.472
Mn  Mn1  1  0.10552439  0.88290540  0.76311836  1  1.182569  -4.812312  1.704073  -4.673  1.016475  -4.744152  2.198082  -4.532  1.07832  -4.785741  2.125148  -4.594  0.604999  0.968016  -4.701585  2.25209  -4.472
H  H2  1  0.10842435  0.31488933  0.92549758  1  0.098676  -2.9e-05  0.962185  0.0  0.109123  -6e-06  1.024895  0.0  0.112431  -5.6e-05  1.022599  0.0  0.105791  0.106606  6.3e-05  1.026674  0.0
H  H3  1  0.89157338  0.68510492  0.07450692  1  0.098661  2.3e-05  0.96231  0.0  0.109093  7e-06  1.025032  0.0  0.112399  5.7e-05  1.02274  0.0  0.105743  0.106573  -6.3e-05  1.02682  0.0
H  H4  1  0.17385247  0.52144808  0.88064746  1  0.097153  0.000175  0.967264  0.0  0.107171  0.000149  1.028685  0.0  0.110154  0.000201  1.027376  0.0  0.103653  0.105085  0.000119  1.029427  0.0
H  H5  1  0.82614757  0.47854822  0.11935389  1  0.097165  -0.000174  0.967327  0.0  0.107246  -0.00015  1.028661  0.0  0.11021  -0.000201  1.027374  0.0  0.103681  0.105158  -0.000118  1.029403  0.0
H  H6  1  0.31010940  0.55542320  0.68400913  1  0.093402  0.000359  0.967673  0.0  0.103723  0.000323  1.028569  0.0  0.10661  0.000351  1.026907  0.0  0.101857  0.101722  0.000245  1.029559  0.0
H  H7  1  0.68989635  0.44456825  0.31599254  1  0.09344  -0.000363  0.967649  0.0  0.103695  -0.000323  1.028602  0.0  0.106611  -0.000352  1.026908  0.0  0.101831  0.101695  -0.000245  1.029601  0.0
H  H8  1  0.37892601  0.38758668  0.53016238  1  0.080858  3e-06  1.007134  0.0  0.08828  1.8e-05  1.075851  0.0  0.091569  1.7e-05  1.074719  0.0  0.087731  0.085854  2e-05  1.076915  0.0
H  H9  1  0.62107846  0.61239977  0.46984337  1  0.080826  -8e-06  1.007102  0.0  0.088228  -1.8e-05  1.075838  0.0  0.091511  -1.7e-05  1.07472  0.0  0.087673  0.085802  -2e-05  1.076902  0.0
H  H10  1  0.17899906  0.28132254  0.39627012  1  0.08149  -6.7e-05  1.021188  0.0  0.087028  -0.000126  1.095064  0.0  0.089969  -0.000123  1.094663  0.0  0.089471  0.084522  -0.000124  1.096338  0.0
H  H11  1  0.82099177  0.71869438  0.60372415  1  0.081447  7.5e-05  1.021287  0.0  0.08702  0.000126  1.095159  0.0  0.089956  0.000123  1.094765  0.0  0.089455  0.084516  0.000124  1.096431  0.0
H  H12  1  0.03662040  0.41957799  0.25020431  1  0.085117  -3.9e-05  0.970234  0.0  0.096173  9.1e-05  1.031438  0.0  0.098378  2.9e-05  1.030654  0.0  0.098535  0.094812  0.000107  1.031553  0.0
H  H13  1  0.96339336  0.58045111  0.74977925  1  0.085298  4.4e-05  0.970047  0.0  0.096324  -9.2e-05  1.031275  0.0  0.09853  -2.9e-05  1.03049  0.0  0.098653  0.094945  -0.000107  1.031422  0.0
H  H14  1  0.15497640  0.51016374  0.06587479  1  0.087743  1.6e-05  0.968442  0.0  0.099581  -0.000124  1.02846  0.0  0.102257  -5.8e-05  1.027523  0.0  0.098634  0.097415  -0.000182  1.029579  0.0
H  H15  1  0.84504982  0.48986434  0.93411652  1  0.087786  -1.4e-05  0.968525  0.0  0.099584  0.000123  1.028605  0.0  0.102271  5.8e-05  1.027641  0.0  0.098667  0.097435  0.000182  1.02972  0.0
H  H16  1  0.41804151  0.44542557  0.02432237  1  0.102597  -5.7e-05  0.962026  0.0  0.10908  -2.5e-05  1.029396  0.0  0.112586  -1.9e-05  1.026671  0.0  0.103794  0.106439  -1.6e-05  1.031562  0.0
H  H17  1  0.58198427  0.55458068  0.97568292  1  0.102277  3.9e-05  0.962008  0.0  0.108738  2.6e-05  1.029424  0.0  0.112238  1.9e-05  1.026714  0.0  0.103708  0.106106  1.6e-05  1.031587  0.0
H  H18  1  0.13582345  0.05290747  0.41716591  1  0.105126  -0.000187  0.968895  0.0  0.111353  -4.8e-05  1.034172  0.0  0.1144  -8.3e-05  1.032255  0.0  0.11537  0.109013  1.1e-05  1.035869  0.0
H  H19  1  0.86417485  0.94710250  0.58283647  1  0.105201  0.000191  0.968924  0.0  0.111397  4.9e-05  1.034208  0.0  0.114444  8.2e-05  1.032292  0.0  0.115351  0.109057  -1.1e-05  1.035906  0.0
H  H20  1  0.42265325  0.92829135  0.34098240  1  0.103191  0.000236  0.9908  0.0  0.103119  0.000292  1.072835  0.0  0.10582  0.000232  1.071664  0.0  0.107841  0.10109  0.000364  1.073927  0.0
H  H21  1  0.57734626  0.07172088  0.65900643  1  0.103303  -0.000238  0.990602  0.0  0.103222  -0.000292  1.072647  0.0  0.105928  -0.000232  1.071464  0.0  0.107891  0.101191  -0.000364  1.073743  0.0
H  H22  1  0.19089284  0.93913978  0.06233182  1  0.106714  -7e-06  0.94202  0.0  0.113992  0.000339  1.009044  0.0  0.116882  0.000296  1.005283  0.0  0.140238  0.111782  0.000366  1.011942  0.0
H  H23  1  0.80909419  0.06085630  0.93767426  1  0.106743  -1e-05  0.941915  0.0  0.114019  -0.000338  1.008935  0.0  0.1169  -0.000296  1.005186  0.0  0.140204  0.111807  -0.000366  1.011836  0.0
H  H24  1  0.45071485  0.79575126  0.03817900  1  0.082757  -1.9e-05  0.966736  0.0  0.094809  1e-06  1.034903  0.0  0.095586  -0.0  1.034914  0.0  0.108911  0.094119  -1.6e-05  1.034997  0.0
H  H25  1  0.54927277  0.20425178  0.96182208  1  0.082718  6e-06  0.966645  0.0  0.094805  -1e-06  1.034852  0.0  0.095584  -0.0  1.034862  0.0  0.108943  0.094114  1.6e-05  1.034943  0.0
H  H26  1  0.54629483  0.78008552  0.15789670  1  0.071148  5.1e-05  0.948283  0.0  0.086626  0.000111  1.013176  0.0  0.085851  8.7e-05  1.01584  0.0  0.104939  0.087076  0.00012  1.011405  0.0
H  H27  1  0.45369243  0.21991272  0.84209951  1  0.07119  -7.6e-05  0.948295  0.0  0.086686  -0.000111  1.013225  0.0  0.085907  -8.7e-05  1.015894  0.0  0.104924  0.087137  -0.00012  1.011454  0.0
H  H28  1  0.57023342  0.00267786  0.10901169  1  0.075087  -0.000102  0.921676  0.0  0.095061  -0.000113  0.978645  0.0  0.095245  -0.000118  0.98006  0.0  0.092919  0.094817  -9.7e-05  0.977817  0.0
H  H29  1  0.42977521  0.99731098  0.89097563  1  0.075173  0.000101  0.921531  0.0  0.095108  0.000113  0.978524  0.0  0.095292  0.000119  0.979941  0.0  0.092936  0.094867  9.7e-05  0.977696  0.0
H  H30  1  0.64715532  0.89599300  0.99002780  1  0.08009  1e-05  0.929624  0.0  0.10013  4.7e-05  0.985885  0.0  0.10025  3.1e-05  0.987577  0.0  0.097278  0.099932  7.2e-05  0.984878  0.0
H  H31  1  0.35284235  0.10399268  0.00996503  1  0.080008  -7e-06  0.929731  0.0  0.10008  -4.7e-05  0.985934  0.0  0.100205  -3.1e-05  0.987618  0.0  0.097246  0.099877  -7.2e-05  0.984937  0.0
H  H32  1  0.69699909  0.34543964  0.74650583  1  0.113907  8.4e-05  0.921816  0.0  0.134546  0.000174  0.978493  0.0  0.13542  0.000132  0.978613  0.0  0.109948  0.133846  0.000225  0.978556  0.0
H  H33  1  0.30296950  0.65456896  0.25350229  1  0.113858  -8.1e-05  0.921903  0.0  0.134512  -0.000174  0.978571  0.0  0.135431  -0.000133  0.978637  0.0  0.109947  0.133801  -0.000225  0.978646  0.0
H  H34  1  0.58783000  0.33626275  0.64225686  1  0.094774  -3e-06  0.972837  0.0  0.111836  1.5e-05  1.043993  0.0  0.111947  4e-06  1.045035  0.0  0.10202  0.111307  2.5e-05  1.04407  0.0
H  H35  1  0.41215496  0.66373635  0.35774405  1  0.094662  1e-05  0.972748  0.0  0.111724  -1.6e-05  1.043958  0.0  0.111834  -4e-06  1.045006  0.0  0.101978  0.111197  -2.5e-05  1.044028  0.0
H  H36  1  0.63799189  0.47999851  0.64577440  1  0.094045  0.000108  0.966775  0.0  0.111849  0.000261  1.033321  0.0  0.111134  0.000193  1.035654  0.0  0.096629  0.112357  0.000326  1.031602  0.0
H  H37  1  0.36198173  0.52000430  0.35423157  1  0.094012  -0.000115  0.966815  0.0  0.111841  -0.000261  1.03337  0.0  0.111128  -0.000193  1.035705  0.0  0.0966  0.112349  -0.000326  1.031649  0.0
H  H38  1  0.92408924  0.36850115  0.66949557  1  0.101561  2.8e-05  0.956515  0.0  0.122688  6.4e-05  1.018226  0.0  0.122324  5.9e-05  1.020185  0.0  0.106341  0.122912  6.1e-05  1.016936  0.0
H  H39  1  0.07589707  0.63151154  0.33051205  1  0.10162  -4.5e-05  0.956558  0.0  0.122716  -6.4e-05  1.018274  0.0  0.122352  -5.9e-05  1.020234  0.0  0.106383  0.122938  -6e-05  1.016979  0.0
H  H40  1  0.95384460  0.41143853  0.51386226  1  0.094381  5e-05  0.935208  0.0  0.117581  0.000147  0.996794  0.0  0.117267  9.5e-05  0.99769  0.0  0.102504  0.117547  0.000208  0.996891  0.0
H  H41  1  0.04614041  0.58856918  0.48614857  1  0.094515  -6.6e-05  0.935027  0.0  0.117674  -0.000146  0.996668  0.0  0.11738  -9.6e-05  0.997544  0.0  0.102557  0.11762  -0.000208  0.996779  0.0
H  H42  1  0.01774153  0.24461953  0.56448068  1  0.109948  0.00012  0.954364  0.0  0.123553  0.000219  1.026922  0.0  0.124809  0.000186  1.025955  0.0  0.105554  0.122587  0.000248  1.02784  0.0
H  H43  1  0.98224419  0.75539200  0.43553503  1  0.109839  -0.000139  0.954292  0.0  0.123467  -0.000219  1.026862  0.0  0.124719  -0.000187  1.025903  0.0  0.105531  0.122501  -0.000248  1.027775  0.0
H  H44  1  0.68664596  0.24292310  0.47348910  1  0.031266  0.000149  0.981687  0.0  0.035081  0.000424  1.064373  0.0  0.036774  0.000239  1.059872  0.0  0.114139  0.033524  0.000614  1.068125  0.0
H  H45  1  0.31335283  0.75707394  0.52652294  1  0.031138  -0.000144  0.981737  0.0  0.03507  -0.000424  1.064354  0.0  0.03677  -0.00024  1.059842  0.0  0.114111  0.03351  -0.000615  1.068108  0.0
H  H46  1  0.83132581  0.25964236  0.04866621  1  0.409076  0.000321  0.907017  0.001  0.375443  0.00122  0.976422  0.002  0.387852  0.000898  0.95853  0.001  0.283349  0.366749  0.001492  0.988829  0.002
H  H47  1  0.16868360  0.74034430  0.95133170  1  0.409181  -0.00032  0.906896  -0.001  0.375449  -0.00122  0.976439  -0.002  0.387855  -0.000898  0.958551  -0.001  0.283351  0.366754  -0.001492  0.98885  -0.002
H  H48  1  0.99563560  0.17436205  0.00042852  1  0.430184  0.0006  0.873589  0.001  0.399765  0.001391  0.936808  0.002  0.410882  0.001077  0.920807  0.002  0.289607  0.392053  0.001638  0.947875  0.003
H  H49  1  0.00436413  0.82562352  0.99957102  1  0.430137  -0.000599  0.873647  -0.001  0.399749  -0.001391  0.936814  -0.002  0.410866  -0.001077  0.920809  -0.002  0.289582  0.392047  -0.001638  0.947862  -0.003
C  C50  1  0.15844510  0.11764994  0.78184204  1  0.638535  -0.004366  3.918838  -0.003  0.586082  -0.008181  4.213165  -0.006  0.621109  -0.006641  4.206889  -0.005  0.207118  0.562271  -0.009824  4.215961  -0.007
C  C51  1  0.84155490  0.88234351  0.21815512  1  0.638708  0.004375  3.918868  0.003  0.586243  0.008182  4.213185  0.006  0.621267  0.006638  4.206906  0.005  0.207133  0.562428  0.009823  4.215987  0.007
C  C52  1  0.20338620  0.23722061  0.75292855  1  -0.12032  0.000901  3.742879  0.001  -0.101598  0.000783  3.977843  0.001  -0.109774  0.000992  3.998778  0.001  -0.025674  -0.096818  0.000576  3.964279  0.001
C  C53  1  0.79661350  0.76277374  0.24707211  1  -0.120549  -0.000952  3.743199  -0.001  -0.101795  -0.000785  3.978118  -0.001  -0.109974  -0.000993  3.999056  -0.001  -0.025738  -0.097011  -0.000575  3.964542  -0.001
C  C54  1  0.16686646  0.33269390  0.83870386  1  -0.064984  -0.000772  3.738174  -0.001  -0.087735  -0.001032  3.985351  -0.001  -0.086341  -0.000902  4.004521  -0.001  -0.08179  -0.088297  -0.001518  3.972486  -0.001
C  C55  1  0.83313859  0.66729954  0.16129602  1  -0.06479  0.000834  3.738323  0.001  -0.087543  0.001033  3.985491  0.001  -0.08615  0.000904  4.004657  0.001  -0.081671  -0.088112  0.001518  3.972626  0.001
C  C56  1  0.20417265  0.44683302  0.81455187  1  -0.084505  0.000302  3.763281  0.0  -0.098496  9.1e-05  4.01652  0.0  -0.101897  0.000254  4.036477  0.0  -0.09504  -0.09616  6.3e-05  4.00258  0.0
C  C57  1  0.79582299  0.55316139  0.18544415  1  -0.084633  -0.00034  3.76321  0.0  -0.098679  -8.7e-05  4.016441  0.0  -0.102066  -0.000261  4.036412  0.0  -0.095134  -0.096339  -6.3e-05  4.002501  0.0
C  C58  1  0.28025080  0.46635407  0.70297592  1  -0.041393  -0.000802  3.753487  -0.001  -0.055552  -0.001127  4.000481  -0.001  -0.053488  -0.000936  4.018272  -0.001  -0.08766  -0.056736  -0.001411  3.988119  -0.001
C  C59  1  0.71976067  0.53363249  0.29702782  1  -0.041385  0.000823  3.753525  0.001  -0.055487  0.001124  4.000527  0.001  -0.053446  0.000943  4.018296  0.001  -0.087569  -0.05668  0.001411  3.988165  0.001
C  C60  1  0.31828112  0.37271646  0.61674291  1  -0.146419  0.000458  3.804483  0.0  -0.162187  0.000236  4.051934  0.0  -0.167142  0.000359  4.073236  0.0  -0.109048  -0.158775  0.000319  4.038089  0.0
C  C61  1  0.68172461  0.62727212  0.38325545  1  -0.146477  -0.000452  3.804702  0.0  -0.162235  -0.000235  4.052128  0.0  -0.167191  -0.000363  4.073447  0.0  -0.109085  -0.158828  -0.000319  4.038282  0.0
C  C62  1  0.28185571  0.25699165  0.63986402  1  0.036824  -0.000736  3.731902  -0.001  0.050162  -0.001125  3.984737  -0.001  0.054319  -0.000972  4.006307  -0.001  -0.006531  0.047336  -0.001333  3.970472  -0.001
C  C63  1  0.71814769  0.74299494  0.36013486  1  0.036988  0.000751  3.731939  0.001  0.050333  0.001125  3.984722  0.001  0.054493  0.000976  4.006287  0.001  -0.006486  0.047517  0.001333  3.970437  0.001
C  C64  1  0.37919457  0.28591103  0.29534192  1  0.036955  0.001069  3.752992  0.001  0.050421  0.001284  4.007602  0.001  0.054716  0.001066  4.028882  0.001  -0.00918  0.047312  0.001588  3.993777  0.001
C  C65  1  0.62082373  0.71409638  0.70465129  1  0.036623  -0.000936  3.753233  -0.001  0.050048  -0.001288  4.007953  -0.001  0.054342  -0.001059  4.02921  -0.001  -0.009323  0.046945  -0.001589  3.994131  -0.001
C  C66  1  0.23144987  0.31850203  0.31523175  1  -0.134601  -0.000832  3.789823  -0.001  -0.154654  -0.000342  4.039374  0.0  -0.159863  -0.000524  4.061331  0.0  -0.105344  -0.151272  -0.000399  4.025607  0.0
C  C67  1  0.76856676  0.68150149  0.68475937  1  -0.13428  0.000696  3.79006  0.001  -0.154346  0.000345  4.039557  0.0  -0.159558  0.000516  4.061513  0.0  -0.105317  -0.150962  0.000399  4.025785  0.0
C  C68  1  0.15144478  0.39633704  0.23247360  1  -0.037183  0.00102  3.767811  0.001  -0.049022  0.001336  4.012939  0.001  -0.046396  0.001028  4.030754  0.001  -0.084839  -0.050469  0.002149  4.000164  0.002
C  C69  1  0.84857044  0.60368505  0.76751815  1  -0.037444  -0.000934  3.767849  -0.001  -0.04926  -0.001337  4.012993  -0.001  -0.046641  -0.001022  4.030812  -0.001  -0.084905  -0.050695  -0.002149  4.000252  -0.002
C  C70  1  0.21769595  0.44496099  0.12843054  1  -0.089243  -0.00076  3.772184  -0.001  -0.10529  -0.000535  4.025723  0.0  -0.109174  -0.000599  4.046191  -0.001  -0.099072  -0.102871  -0.000627  4.011908  -0.001
C  C71  1  0.78232994  0.55505351  0.87155479  1  -0.089336  0.000654  3.772281  0.001  -0.105397  0.000534  4.025797  0.0  -0.109277  0.000592  4.046267  0.001  -0.099135  -0.102999  0.000626  4.011966  0.001
C  C72  1  0.36465494  0.40948071  0.10560476  1  -0.055394  0.001292  3.738272  0.001  -0.078665  0.001434  3.988641  0.001  -0.076171  0.001186  4.007014  0.001  -0.082529  -0.080051  0.002201  3.97643  0.002
C  C73  1  0.63536971  0.59053453  0.89439126  1  -0.054845  -0.001138  3.737734  -0.001  -0.07801  -0.001436  3.988047  -0.001  -0.075527  -0.001178  4.006415  -0.001  -0.082309  -0.079404  -0.002201  3.975856  -0.002
C  C74  1  0.44771524  0.32938002  0.18699704  1  -0.128923  -0.000314  3.746571  0.0  -0.11068  -0.000105  3.981349  0.0  -0.119807  -0.000323  4.002435  0.0  -0.029391  -0.105079  6.1e-05  3.967561  0.0
C  C75  1  0.55229838  0.67062346  0.81299457  1  -0.129001  0.000197  3.746466  0.0  -0.11081  0.000107  3.981282  0.0  -0.1199  0.000319  4.002316  0.0  -0.029444  -0.105221  -6.1e-05  3.967516  0.0
C  C76  1  0.60534807  0.29272127  0.15698019  1  0.642326  0.003471  3.904009  0.004  0.589792  0.006721  4.197557  0.006  0.62521  0.004957  4.19085  0.005  0.207706  0.565717  0.008729  4.200885  0.008
C  C77  1  0.39466100  0.70726930  0.84301837  1  0.642145  -0.003473  3.903929  -0.004  0.589668  -0.00672  4.197457  -0.006  0.625077  -0.004956  4.19075  -0.005  0.207622  0.56559  -0.008729  4.200792  -0.008
C  C78  1  0.18938745  0.01027456  0.33252452  1  0.00591  0.002093  3.756065  0.003  -0.026106  0.003804  4.021686  0.004  -0.024049  0.0032  4.042375  0.004  -0.002589  -0.027403  0.004493  4.007764  0.005
C  C79  1  0.81060985  0.98972668  0.66747338  1  0.005662  -0.002141  3.755987  -0.003  -0.026308  -0.003805  4.021648  -0.004  -0.024253  -0.003203  4.042337  -0.004  -0.002631  -0.027602  -0.004494  4.007727  -0.005
C  C80  1  0.33079581  0.94814859  0.29679741  1  -0.077772  -0.000331  3.682671  0.0  -0.11561  0.00035  3.945909  0.0  -0.115677  -0.000182  3.966536  0.0  -0.007706  -0.115692  0.000873  3.932717  0.001
C  C81  1  0.66920143  0.05185859  0.70319743  1  -0.077694  0.000377  3.682539  0.0  -0.115515  -0.00035  3.945746  0.0  -0.115582  0.000184  3.966383  0.0  -0.00768  -0.115595  -0.000873  3.932552  -0.001
C  C82  1  0.21187977  0.95288841  0.14971094  1  0.169227  0.006027  3.635131  0.006  0.111498  0.008224  3.896061  0.007  0.12562  0.007188  3.908728  0.007  0.14845  0.10221  0.009183  3.88723  0.008
C  C83  1  0.78811321  0.04711370  0.85029023  1  0.169117  -0.005921  3.63499  -0.006  0.111429  -0.00823  3.895912  -0.007  0.125559  -0.007183  3.908583  -0.007  0.148444  0.102144  -0.009183  3.887081  -0.008
C  C84  1  0.47543732  0.85070982  0.10308049  1  -0.00811  0.000444  3.629137  0.0  -0.06968  0.000522  3.885974  0.0  -0.065433  0.000404  3.89754  0.0  -0.055901  -0.072286  0.000641  3.87797  0.0
C  C85  1  0.52455231  0.14928742  0.89691805  1  -0.007941  -0.000365  3.628848  0.0  -0.069684  -0.000525  3.885866  0.0  -0.065432  -0.000401  3.897436  0.0  -0.055886  -0.072285  -0.000641  3.877858  0.0
C  C86  1  0.54521975  0.95087612  0.04110337  1  -0.125125  6.1e-05  3.675979  0.0  -0.167611  0.00013  3.942101  0.0  -0.169136  7.8e-05  3.956463  0.0  -0.164082  -0.1664  0.000203  3.932177  0.0
C  C87  1  0.45478265  0.04910756  0.95889412  1  -0.125232  -7.4e-05  3.675859  0.0  -0.167622  -0.000129  3.941989  0.0  -0.16915  -8e-05  3.956353  0.0  -0.164129  -0.166413  -0.000203  3.932066  0.0
C  C88  1  0.67324715  0.37290098  0.65541874  1  -0.172279  0.00046  3.64744  0.0  -0.272268  0.00074  3.893226  0.0  -0.268917  0.000536  3.905319  0.0  -0.132692  -0.274157  0.000963  3.885152  0.001
C  C89  1  0.32673448  0.62710193  0.34458594  1  -0.172174  -0.00047  3.647711  0.0  -0.272231  -0.000737  3.893402  0.0  -0.268919  -0.000537  3.905477  0.0  -0.132731  -0.274113  -0.000963  3.885329  -0.001
C  C90  1  0.93146758  0.33647693  0.57958548  1  -0.16324  -0.000181  3.629265  0.0  -0.265995  -5e-05  3.877395  0.0  -0.261517  -0.00012  3.887325  0.0  -0.134174  -0.269132  1.7e-05  3.871165  0.0
C  C91  1  0.06851543  0.66353366  0.42042721  1  -0.163426  0.000264  3.629176  0.0  -0.266194  4.9e-05  3.877289  0.0  -0.261734  0.000122  3.88721  0.0  -0.134321  -0.269307  -1.7e-05  3.871064  0.0
C  C92  1  0.79115392  0.25317015  0.47635890  1  0.39612  0.002864  3.801673  0.003  0.318486  0.006055  4.088941  0.006  0.347339  0.004357  4.090116  0.004  0.180188  0.299284  0.00776  4.086748  0.007
C  C93  1  0.20882621  0.74683724  0.52366505  1  0.39615  -0.002893  3.802173  -0.003  0.318355  -0.006052  4.089493  -0.006  0.347208  -0.004357  4.09067  -0.004  0.180262  0.299153  -0.007757  4.087303  -0.007
S  S94  1  0.33568219  0.13394518  0.53208594  1  0.013394  0.000201  2.607012  0.0  0.01015  -0.00029  2.99292  0.0  0.010906  0.000206  2.990691  0.0  0.043589  0.009808  -0.000809  2.994142  0.0
S  S95  1  0.66431306  0.86605905  0.46790855  1  0.013347  -0.000204  2.606696  0.0  0.010101  0.00029  2.992589  0.0  0.010858  -0.000207  2.99036  0.0  0.043579  0.009755  0.000809  2.99381  0.0
S  S96  1  0.48163040  0.18850618  0.40223879  1  -0.00574  -0.001938  2.588462  -0.001  -0.015116  -0.002124  2.972397  -0.002  -0.014449  -0.001888  2.969438  -0.001  0.030731  -0.015631  -0.002284  2.974905  -0.002
S  S97  1  0.51836129  0.81148515  0.59776250  1  -0.005658  0.001944  2.588264  0.001  -0.015027  0.002124  2.97224  0.002  -0.014365  0.001889  2.969278  0.001  0.030788  -0.015545  0.002284  2.974751  0.002
N  N98  1  0.11621672  0.01325532  0.23990294  1  -0.402055  0.027826  3.236311  0.012  -0.331506  0.030524  3.530097  0.009  -0.354172  0.027261  3.544088  0.006  -0.353858  -0.315078  0.03354  3.519969  0.011
N  N99  1  0.88377999  0.98674478  0.76010218  1  -0.401897  -0.02786  3.236067  -0.012  -0.331392  -0.030524  3.529888  -0.009  -0.354055  -0.027263  3.543872  -0.006  -0.3538  -0.314961  -0.033543  3.519761  -0.011
N  N100  1  0.34304999  0.91178694  0.18106370  1  -0.064928  0.00148  3.578367  0.002  0.032068  0.002924  3.790905  0.003  0.017523  0.002299  3.817191  0.002  -0.245292  0.041653  0.003559  3.773227  0.004
N  N101  1  0.65694327  0.08821725  0.81893199  1  -0.065097  -0.00154  3.578412  -0.002  0.031942  -0.002919  3.790992  -0.003  0.017393  -0.002304  3.817275  -0.002  -0.245315  0.04153  -0.003559  3.773314  -0.004
N  N102  1  0.79804430  0.31724018  0.56825582  1  -0.080531  0.003247  3.501151  0.004  0.024416  0.005712  3.73126  0.006  0.003742  0.004532  3.756598  0.005  -0.278151  0.038378  0.006987  3.713496  0.007
N  N103  1  0.20194306  0.68276658  0.43175470  1  -0.080308  -0.00323  3.500848  -0.004  0.02475  -0.005709  3.730932  -0.006  0.004069  -0.00454  3.756298  -0.005  -0.277994  0.038716  -0.006988  3.713155  -0.007
O  O104  1  0.10434088  0.09028249  0.88653846  1  -0.648419  -0.009213  1.970411  -0.005  -0.593154  -0.016935  2.206511  -0.011  -0.619815  -0.014612  2.195238  -0.01  -0.307397  -0.574328  -0.01935  2.21383  -0.013
O  O105  1  0.89566049  0.90970415  0.11345722  1  -0.64846  0.009198  1.970452  0.005  -0.593201  0.016929  2.206537  0.011  -0.619861  0.014605  2.195265  0.01  -0.307393  -0.574383  0.019343  2.213852  0.013
O  O106  1  0.17839365  0.04320791  0.69429178  1  -0.624949  -0.033252  2.080001  -0.022  -0.55387  -0.036112  2.347562  -0.02  -0.587004  -0.032425  2.336799  -0.017  -0.299996  -0.529157  -0.039852  2.353296  -0.023
O  O107  1  0.82160469  0.95678746  0.30570639  1  -0.625027  0.033255  2.0801  0.022  -0.553942  0.036114  2.347682  0.02  -0.587073  0.03243  2.336913  0.017  -0.300007  -0.529227  0.039855  2.353418  0.023
O  O108  1  0.67549760  0.23900699  0.24246433  1  -0.650368  0.027733  2.088673  0.016  -0.571761  0.03202  2.352595  0.017  -0.60566  0.029562  2.342079  0.015  -0.305238  -0.546994  0.034475  2.358635  0.019
O  O109  1  0.32450942  0.76097784  0.75752706  1  -0.650285  -0.027733  2.088557  -0.016  -0.571735  -0.032015  2.3525  -0.017  -0.605624  -0.029561  2.341974  -0.015  -0.305206  -0.54695  -0.034468  2.358523  -0.019
O  O110  1  0.66156369  0.31410608  0.05127309  1  -0.617506  0.000994  1.959308  0.001  -0.563309  0.002806  2.181579  0.003  -0.588296  0.001828  2.172028  0.002  -0.313572  -0.545858  0.004011  2.187447  0.005
O  O111  1  0.33844576  0.68588342  0.94872988  1  -0.617402  -0.000996  1.959255  -0.001  -0.563208  -0.002807  2.181541  -0.003  -0.588198  -0.001826  2.172002  -0.002  -0.313493  -0.545752  -0.004011  2.187407  -0.005
O  O112  1  0.89567550  0.20823384  0.39664061  1  -0.540633  0.031736  2.08057  0.02  -0.470674  0.039404  2.35177  0.024  -0.498859  0.035174  2.340379  0.02  -0.291019  -0.449667  0.043381  2.358821  0.027
O  O113  1  0.10431694  0.79176410  0.60337238  1  -0.540529  -0.031725  2.081465  -0.02  -0.47056  -0.039405  2.352705  -0.024  -0.498743  -0.035157  2.341326  -0.02  -0.291058  -0.449558  -0.043374  2.359755  -0.027
O  O114  1  0.92998805  0.22115650  0.07031037  1  -0.867595  0.035049  1.882461  0.021  -0.806634  0.04534  2.098179  0.026  -0.832204  0.040151  2.058085  0.022  -0.58204  -0.786864  0.049732  2.125338  0.029
O  O115  1  0.07001807  0.77882809  0.92969173  1  -0.867644  -0.035054  1.882352  -0.021  -0.80661  -0.045338  2.09816  -0.026  -0.832178  -0.040148  2.058081  -0.022  -0.582012  -0.786852  -0.04973  2.125314  -0.029
