# generated using pymatgen
data_Zn3H36C46(N3O10)2
_symmetry_space_group_name_H-M   'P 1'
_cell_length_a   8.67792246
_cell_length_b   10.97495832
_cell_length_c   12.85278482
_cell_angle_alpha   75.84196346
_cell_angle_beta   70.85823661
_cell_angle_gamma   77.96157859
_symmetry_Int_Tables_number   1
_chemical_formula_structural   Zn3H36C46(N3O10)2
_chemical_formula_sum   'Zn3 H36 C46 N6 O20'
_cell_volume   1110.22664399
_cell_formula_units_Z   1
loop_
 _symmetry_equiv_pos_site_id
 _symmetry_equiv_pos_as_xyz
  1  'x, y, z'
loop_
 _atom_site_type_symbol
 _atom_site_label
 _atom_site_symmetry_multiplicity
 _atom_site_fract_x
 _atom_site_fract_y
 _atom_site_fract_z
 _atom_site_occupancy
 _atom_site_hle17_bader_spin_density
 _atom_site_hle17_ddec_charge
 _atom_site_hle17_ddec_spin_density
 _atom_site_hle17_ddec_sum_bond_order
 _atom_site_hle17_magmom
 _atom_site_hse06_10hf_bader_spin_density
 _atom_site_hse06_10hf_ddec_charge
 _atom_site_hse06_10hf_ddec_spin_density
 _atom_site_hse06_10hf_ddec_sum_bond_order
 _atom_site_hse06_10hf_magmom
 _atom_site_hse06_bader_spin_density
 _atom_site_hse06_ddec_charge
 _atom_site_hse06_ddec_spin_density
 _atom_site_hse06_ddec_sum_bond_order
 _atom_site_hse06_magmom
 _atom_site_pbe_bader_spin_density
 _atom_site_pbe_cm5_charge
 _atom_site_pbe_ddec_charge
 _atom_site_pbe_ddec_spin_density
 _atom_site_pbe_ddec_sum_bond_order
 _atom_site_pbe_magmom
Zn  Zn0  1  0.00000122  0.99999911  0.49999954  1  0  1.20253  0  1.700963  0  0  1.043628  0  2.150912  0  0  1.092556  0  2.088353  0  0  0.673916  1.008924  0  2.194156  0
Zn  Zn1  1  0.79293351  0.85677105  0.19521566  1  0  1.061506  0  1.818509  0  0  0.883227  0  2.283354  0  0  0.931148  0  2.225669  0  0  0.689963  0.84957  0  2.323213  0
Zn  Zn2  1  0.20706741  0.14322882  0.80478057  1  0  1.061553  0  1.818461  0  0  0.883271  0  2.283311  0  0  0.93119  0  2.225627  0  0  0.689987  0.849616  0  2.323165  0
H  H3  1  0.01357572  0.56693943  0.34435695  1  0  0.429393  0  0.863111  0  0  0.396939  0  0.93558  0  0  0.409505  0  0.917576  0  0  0.311431  0.388084  0  0.948263  0
H  H4  1  0.98642294  0.43305948  0.65563999  1  0  0.429391  0  0.863028  0  0  0.396944  0  0.935555  0  0  0.409509  0  0.917553  0  0  0.311427  0.388087  0  0.948241  0
H  H5  1  0.16994977  0.19272266  0.40145069  1  0  0.433207  0  0.866932  0  0  0.400785  0  0.932982  0  0  0.411781  0  0.916996  0  0  0.294057  0.392971  0  0.944315  0
H  H6  1  0.83005443  0.80727914  0.59854908  1  0  0.43315  0  0.867007  0  0  0.40072  0  0.93307  0  0  0.411717  0  0.917082  0  0  0.294022  0.392912  0  0.944393  0
H  H7  1  0.28596142  0.05162194  0.41426976  1  0  0.411689  0  0.901667  0  0  0.375767  0  0.974325  0  0  0.387763  0  0.956916  0  0  0.286986  0.367262  0  0.986658  0
H  H8  1  0.71404050  0.94837893  0.58573382  1  0  0.411755  0  0.901567  0  0  0.375834  0  0.974228  0  0  0.38783  0  0.956819  0  0  0.287014  0.367324  0  0.986568  0
H  H9  1  0.79509888  0.93981284  0.36045070  1  0  0.412707  0  0.892063  0  0  0.380665  0  0.961807  0  0  0.391844  0  0.945443  0  0  0.289346  0.372778  0  0.973334  0
H  H10  1  0.20490047  0.06018892  0.63954470  1  0  0.412675  0  0.892173  0  0  0.380648  0  0.96183  0  0  0.391825  0  0.945469  0  0  0.289339  0.37276  0  0.973362  0
H  H11  1  0.59834873  0.93472320  0.38465429  1  0  0.432172  0  0.872723  0  0  0.395399  0  0.946101  0  0  0.406869  0  0.929549  0  0  0.288293  0.387327  0  0.957724  0
H  H12  1  0.40164939  0.06527856  0.61534293  1  0  0.432262  0  0.872601  0  0  0.395429  0  0.946064  0  0  0.406897  0  0.929513  0  0  0.288292  0.387358  0  0.957683  0
H  H13  1  0.36329156  0.22486270  0.46850573  1  0  0.099538  0  0.961183  0  0  0.108755  0  1.027201  0  0  0.112881  0  1.023049  0  0  0.112573  0.105587  0  1.030563  0
H  H14  1  0.63671160  0.77513814  0.53149214  1  0  0.099598  0  0.961165  0  0  0.108801  0  1.027194  0  0  0.112923  0  1.023044  0  0  0.112584  0.10563  0  1.030551  0
H  H15  1  0.38732982  0.61975361  0.32358283  1  0  0.105634  0  0.962677  0  0  0.112419  0  1.030559  0  0  0.116392  0  1.026625  0  0  0.108915  0.109474  0  1.033517  0
H  H16  1  0.61266743  0.38024626  0.67641576  1  0  0.105623  0  0.962617  0  0  0.112413  0  1.030506  0  0  0.116386  0  1.026572  0  0  0.108919  0.109465  0  1.033466  0
H  H17  1  0.80964560  0.37942132  0.40338076  1  0  0.119401  0  0.953038  0  0  0.120138  0  1.029183  0  0  0.125281  0  1.023606  0  0  0.111379  0.116457  0  1.033048  0
H  H18  1  0.19035372  0.62058046  0.59661930  1  0  0.11941  0  0.953041  0  0  0.120148  0  1.029184  0  0  0.125292  0  1.023607  0  0  0.111378  0.116474  0  1.033053  0
H  H19  1  0.93884375  0.36786073  0.89668848  1  0  0.091302  0  0.92462  0  0  0.099812  0  0.984963  0  0  0.102923  0  0.98226  0  0  0.120931  0.097436  0  0.987016  0
H  H20  1  0.06115227  0.63213915  0.10331193  1  0  0.09127  0  0.924697  0  0  0.099819  0  0.984997  0  0  0.10293  0  0.982295  0  0  0.12092  0.097434  0  0.98705  0
H  H21  1  0.82110637  0.44925346  0.07870745  1  0  0.100174  0  0.955061  0  0  0.111709  0  1.012188  0  0  0.114555  0  1.011862  0  0  0.107376  0.109636  0  1.012341  0
H  H22  1  0.17889210  0.55074641  0.92129087  1  0  0.10009  0  0.955117  0  0  0.111664  0  1.012213  0  0  0.114507  0  1.011887  0  0  0.107341  0.109592  0  1.012366  0
H  H23  1  0.12891373  0.14093994  0.22298677  1  0  0.120277  0  0.987315  0  0  0.128626  0  1.049199  0  0  0.13189  0  1.047809  0  0  0.111462  0.126234  0  1.050361  0
H  H24  1  0.87108265  0.85905804  0.77701398  1  0  0.120276  0  0.987285  0  0  0.128629  0  1.049164  0  0  0.131893  0  1.047772  0  0  0.111443  0.126234  0  1.050321  0
H  H25  1  0.50189335  0.68880114  0.14761638  1  0  0.110513  0  0.991453  0  0  0.117164  0  1.05952  0  0  0.120216  0  1.057793  0  0  0.101054  0.114961  0  1.06077  0
H  H26  1  0.49810458  0.31120160  0.85238535  1  0  0.110497  0  0.991448  0  0  0.117156  0  1.05951  0  0  0.120208  0  1.057782  0  0  0.101049  0.114955  0  1.060756  0
H  H27  1  0.59939895  0.63507241  0.80851474  1  0  0.081812  0  0.978634  0  0  0.093168  0  1.039186  0  0  0.094655  0  1.040222  0  0  0.094444  0.092024  0  1.038596  0
H  H28  1  0.40059567  0.36492841  0.19148578  1  0  0.081856  0  0.978558  0  0  0.0932  0  1.039121  0  0  0.094686  0  1.040156  0  0  0.094465  0.092061  0  1.038526  0
H  H29  1  0.44588973  0.85043961  0.75649228  1  0  0.120191  0  0.954911  0  0  0.131011  0  1.01237  0  0  0.133973  0  1.010879  0  0  0.106059  0.128685  0  1.013807  0
H  H30  1  0.55410995  0.14956028  0.24350889  1  0  0.120209  0  0.954921  0  0  0.131062  0  1.012342  0  0  0.134026  0  1.010851  0  0  0.106103  0.128742  0  1.013772  0
H  H31  1  0.28268469  0.99372743  0.24772448  1  0  0.12021  0  0.95583  0  0  0.130324  0  1.020665  0  0  0.132797  0  1.01905  0  0  0.119564  0.128525  0  1.021942  0
H  H32  1  0.71731620  0.00627247  0.75227642  1  0  0.120227  0  0.955821  0  0  0.130329  0  1.020656  0  0  0.1328  0  1.019048  0  0  0.119573  0.128534  0  1.021926  0
H  H33  1  0.34058308  0.83063669  0.24905648  1  0  0.131535  0  0.913236  0  0  0.147268  0  0.968651  0  0  0.150021  0  0.966337  0  0  0.128028  0.145184  0  0.970513  0
H  H34  1  0.65942234  0.16936510  0.75094147  1  0  0.131543  0  0.913213  0  0  0.147269  0  0.96864  0  0  0.150022  0  0.966326  0  0  0.128019  0.145181  0  0.970508  0
H  H35  1  0.62341213  0.55614225  0.00020973  1  0  0.080922  0  0.969087  0  0  0.094052  0  1.027635  0  0  0.096298  0  1.027279  0  0  0.095506  0.092431  0  1.027905  0
H  H36  1  0.37658932  0.44385477  0.99978622  1  0  0.080906  0  0.969118  0  0  0.094026  0  1.027664  0  0  0.096287  0  1.027296  0  0  0.095504  0.092412  0  1.027924  0
H  H37  1  0.92765286  0.33180962  0.24186628  1  0  0.104421  0  0.958964  0  0  0.11389  0  1.020646  0  0  0.116528  0  1.018473  0  0  0.110886  0.111824  0  1.022418  0
H  H38  1  0.07234491  0.66818741  0.75813436  1  0  0.10441  0  0.958928  0  0  0.113876  0  1.020611  0  0  0.116515  0  1.018438  0  0  0.11088  0.111814  0  1.022389  0
C  C39  1  0.43248261  0.30495098  0.43686437  1  0  -0.041695  0  3.671333  0  0  -0.081131  0  3.919619  0  0  -0.075775  0  3.936249  0  0  -0.064941  -0.084234  0  3.908483  0
C  C40  1  0.56751916  0.69505081  0.56313516  1  0  -0.041832  0  3.671329  0  0  -0.08126  0  3.919609  0  0  -0.075898  0  3.936235  0  0  -0.06496  -0.084353  0  3.908453  0
C  C41  1  0.35785615  0.42404362  0.39393793  1  0  -0.093293  0  3.782446  0  0  -0.067097  0  4.022719  0  0  -0.078552  0  4.046475  0  0  -0.018439  -0.059831  0  4.006687  0
C  C42  1  0.64214194  0.57595818  0.60606473  1  0  -0.093152  0  3.782323  0  0  -0.066945  0  4.022611  0  0  -0.078399  0  4.046366  0  0  -0.018412  -0.059684  0  4.006568  0
C  C43  1  0.44661751  0.52710496  0.35492817  1  0  -0.047834  0  3.687743  0  0  -0.087893  0  3.938024  0  0  -0.082644  0  3.955445  0  0  -0.069724  -0.090948  0  3.926169  0
C  C44  1  0.55338059  0.47289683  0.64507294  1  0  -0.047886  0  3.687756  0  0  -0.087978  0  3.938081  0  0  -0.08273  0  3.955504  0  0  -0.069751  -0.091028  0  3.926221  0
C  C45  1  0.61018488  0.51165310  0.35584690  1  0  -0.079807  0  3.765041  0  0  -0.051613  0  3.998785  0  0  -0.063292  0  4.0241  0  0  -0.017456  -0.04424  0  3.981752  0
C  C46  1  0.38981218  0.48834773  0.64415386  1  0  -0.079811  0  3.76507  0  0  -0.051607  0  3.998813  0  0  -0.063286  0  4.024129  0  0  -0.017475  -0.044238  0  3.981787  0
C  C47  1  0.68332959  0.39251709  0.39944930  1  0  -0.047193  0  3.66297  0  0  -0.084413  0  3.913198  0  0  -0.079487  0  3.929691  0  0  -0.063864  -0.087062  0  3.901736  0
C  C48  1  0.31667148  0.60748186  0.60055099  1  0  -0.047252  0  3.663034  0  0  -0.08447  0  3.913242  0  0  -0.079546  0  3.929737  0  0  -0.063867  -0.087129  0  3.901796  0
C  C49  1  0.59507700  0.28885174  0.43963291  1  0  -0.066055  0  3.728926  0  0  -0.040986  0  3.968992  0  0  -0.051375  0  3.991453  0  0  -0.012633  -0.034505  0  3.954071  0
C  C50  1  0.40492511  0.71114816  0.56036772  1  0  -0.065992  0  3.728933  0  0  -0.040918  0  3.968964  0  0  -0.051306  0  3.991425  0  0  -0.012641  -0.034432  0  3.954034  0
C  C51  1  0.18732522  0.43945464  0.38561926  1  0  0.649934  0  3.828239  0  0  0.596854  0  4.128119  0  0  0.630333  0  4.119869  0  0  0.233302  0.574145  0  4.133237  0
C  C52  1  0.81267603  0.56054335  0.61438120  1  0  0.649931  0  3.828555  0  0  0.596793  0  4.128508  0  0  0.630274  0  4.120258  0  0  0.233315  0.574091  0  4.133609  0
C  C53  1  0.70761623  0.62077046  0.30714529  1  0  0.652717  0  3.914805  0  0  0.601603  0  4.20739  0  0  0.635396  0  4.201564  0  0  0.209946  0.578719  0  4.210623  0
C  C54  1  0.29237839  0.37923037  0.69285679  1  0  0.652676  0  3.914861  0  0  0.60156  0  4.207452  0  0  0.635353  0  4.201629  0  0  0.209913  0.578674  0  4.210692  0
C  C55  1  0.68006903  0.16151630  0.48217942  1  0  0.667242  0  3.876855  0  0  0.610745  0  4.170988  0  0  0.645544  0  4.164248  0  0  0.217963  0.587118  0  4.175188  0
C  C56  1  0.31993081  0.83848265  0.51782269  1  0  0.667286  0  3.876842  0  0  0.610785  0  4.170959  0  0  0.645582  0  4.164221  0  0  0.218031  0.58716  0  4.175153  0
C  C57  1  0.97618234  0.32002427  0.97144654  1  0  0.14349  0  3.701169  0  0  0.110708  0  3.957652  0  0  0.11774  0  3.973541  0  0  0.056578  0.106279  0  3.94634  0
C  C58  1  0.02381735  0.67997561  0.02855152  1  0  0.143495  0  3.701187  0  0  0.110668  0  3.957729  0  0  0.117701  0  3.973614  0  0  0.056555  0.106247  0  3.946401  0
C  C59  1  0.91249383  0.36466231  0.07214432  1  0  -0.122795  0  3.745606  0  0  -0.136711  0  3.999388  0  0  -0.142543  0  4.020431  0  0  -0.080758  -0.132933  0  3.98453  0
C  C60  1  0.08750342  0.63533756  0.92785428  1  0  -0.122729  0  3.745596  0  0  -0.136687  0  3.999411  0  0  -0.142512  0  4.020457  0  0  -0.080707  -0.132913  0  3.984557  0
C  C61  1  0.08494025  0.18991003  0.15159092  1  0  -0.11758  0  3.657704  0  0  -0.139196  0  3.901348  0  0  -0.143944  0  3.92124  0  0  -0.073834  -0.136464  0  3.888398  0
C  C62  1  0.91506396  0.81009177  0.84840729  1  0  -0.117571  0  3.657611  0  0  -0.139191  0  3.901237  0  0  -0.143941  0  3.921133  0  0  -0.073796  -0.136448  0  3.888271  0
C  C63  1  0.13943785  0.14875324  0.04911075  1  0  0.157328  0  3.760543  0  0  0.158363  0  4.002542  0  0  0.161748  0  4.022825  0  0  0.12614  0.155918  0  3.9892  0
C  C64  1  0.86056393  0.85124854  0.95088722  1  0  0.157351  0  3.760516  0  0  0.158397  0  4.002493  0  0  0.161781  0  4.022776  0  0  0.12615  0.155941  0  3.989153  0
C  C65  1  0.25098722  0.03224081  0.02429308  1  0  0.280851  0  3.707587  0  0  0.237822  0  3.98535  0  0  0.256215  0  3.995808  0  0  0.234681  0.225758  0  3.977894  0
C  C66  1  0.74901559  0.96776193  0.97570602  1  0  0.280873  0  3.707583  0  0  0.237873  0  3.985307  0  0  0.256267  0  3.995762  0  0  0.234696  0.225816  0  3.977843  0
C  C67  1  0.40122086  0.84161812  0.03401775  1  0  0.116169  0  3.755189  0  0  0.100306  0  4.010275  0  0  0.10431  0  4.032552  0  0  0.097062  0.097604  0  3.995063  0
C  C68  1  0.59877498  0.15838272  0.96598406  1  0  0.11621  0  3.755171  0  0  0.100243  0  4.010395  0  0  0.104248  0  4.032671  0  0  0.097026  0.097537  0  3.995197  0
C  C69  1  0.48658558  0.72236448  0.06416103  1  0  -0.151617  0  3.750638  0  0  -0.171956  0  4.007744  0  0  -0.175638  0  4.02885  0  0  -0.101178  -0.16891  0  3.992977  0
C  C70  1  0.51341166  0.27763541  0.93584068  1  0  -0.151623  0  3.750703  0  0  -0.171938  0  4.007827  0  0  -0.17562  0  4.02894  0  0  -0.101164  -0.16889  0  3.993064  0
C  C71  1  0.54294249  0.69539985  0.87076610  1  0  -0.078562  0  3.797499  0  0  -0.095063  0  4.053421  0  0  -0.098369  0  4.078343  0  0  -0.100947  -0.093026  0  4.036338  0
C  C72  1  0.45706066  0.30460100  0.12923488  1  0  -0.0786  0  3.797332  0  0  -0.095093  0  4.053269  0  0  -0.098398  0  4.078196  0  0  -0.100937  -0.093063  0  4.036194  0
C  C73  1  0.45943567  0.81482031  0.84032356  1  0  -0.133926  0  3.716038  0  0  -0.151292  0  3.963423  0  0  -0.153952  0  3.984133  0  0  -0.090835  -0.149292  0  3.949427  0
C  C74  1  0.54056539  0.18517864  0.15967751  1  0  -0.133943  0  3.715978  0  0  -0.151346  0  3.963345  0  0  -0.154007  0  3.984053  0  0  -0.090897  -0.149345  0  3.949357  0
C  C75  1  0.38805346  0.88820701  0.92384484  1  0  0.16793  0  3.816217  0  0  0.162653  0  4.067726  0  0  0.165975  0  4.09078  0  0  0.09192  0.159904  0  4.052283  0
C  C76  1  0.61194517  0.11179193  0.07615598  1  0  0.167898  0  3.816113  0  0  0.162682  0  4.067602  0  0  0.166004  0  4.090655  0  0  0.091915  0.159939  0  4.052164  0
C  C77  1  0.26307597  0.91477347  0.21757613  1  0  -0.154826  0  3.575045  0  0  -0.215749  0  3.819817  0  0  -0.216052  0  3.825098  0  0  -0.049901  -0.215425  0  3.816295  0
C  C78  1  0.73692352  0.08522738  0.78242488  1  0  -0.154836  0  3.574953  0  0  -0.215736  0  3.819763  0  0  -0.216041  0  3.825042  0  0  -0.049881  -0.215418  0  3.816239  0
C  C79  1  0.08048861  0.89408697  0.26347961  1  0  0.703593  0  3.819521  0  0  0.65497  0  4.117101  0  0  0.688396  0  4.110619  0  0  0.225049  0.632143  0  4.121023  0
C  C80  1  0.91951717  0.10591293  0.73651788  1  0  0.703781  0  3.819254  0  0  0.655144  0  4.116859  0  0  0.68857  0  4.110374  0  0  0.225136  0.632331  0  4.120757  0
C  C81  1  0.55652395  0.65029146  0.98045221  1  0  -0.076815  0  3.799491  0  0  -0.09229  0  4.053712  0  0  -0.094781  0  4.077836  0  0  -0.099105  -0.090035  0  4.036692  0
C  C82  1  0.44347572  0.34970844  0.01954974  1  0  -0.076802  0  3.799428  0  0  -0.092261  0  4.053645  0  0  -0.094768  0  4.077763  0  0  -0.099106  -0.090007  0  4.036624  0
C  C83  1  0.97056618  0.29945860  0.16232326  1  0  0.013592  0  3.684596  0  0  -0.00264  0  3.928515  0  0  0.000316  0  3.94625  0  0  -0.058557  -0.004401  0  3.91656  0
C  C84  1  0.02943351  0.70054128  0.83767558  1  0  0.013635  0  3.684507  0  0  -0.002587  0  3.928432  0  0  0.000369  0  3.946163  0  0  -0.058564  -0.004358  0  3.916488  0
N  N85  1  0.29534452  0.00691597  0.92098841  1  0  -0.447305  0  3.189173  0  0  -0.386539  0  3.483733  0  0  -0.406202  0  3.491933  0  0  -0.343679  -0.373037  0  3.477982  0
N  N86  1  0.70465638  0.99308392  0.07901171  1  0  -0.447336  0  3.189179  0  0  -0.386579  0  3.48371  0  0  -0.406244  0  3.491911  0  0  -0.343677  -0.373079  0  3.477961  0
N  N87  1  0.08731004  0.21606231  0.96022932  1  0  -0.341402  0  3.238597  0  0  -0.272611  0  3.498641  0  0  -0.28875  0  3.514054  0  0  -0.312056  -0.261804  0  3.488325  0
N  N88  1  0.91268947  0.78393852  0.03976935  1  0  -0.341427  0  3.23866  0  0  -0.27264  0  3.49873  0  0  -0.288779  0  3.514143  0  0  -0.312067  -0.261831  0  3.488408  0
N  N89  1  0.31575686  0.93573438  0.09549249  1  0  -0.120615  0  3.476007  0  0  -0.039052  0  3.701772  0  0  -0.0555  0  3.724991  0  0  -0.231038  -0.027941  0  3.685693  0
N  N90  1  0.68424368  0.06426742  0.90450808  1  0  -0.120605  0  3.476009  0  0  -0.039052  0  3.701821  0  0  -0.055499  0  3.725039  0  0  -0.231018  -0.027934  0  3.685737  0
O  O91  1  0.11228784  0.34908994  0.40100258  1  0  -0.554389  0  1.97595  0  0  -0.504322  0  2.193573  0  0  -0.525475  0  2.183271  0  0  -0.278852  -0.489743  0  2.20035  0
O  O92  1  0.88771759  0.65090522  0.59899755  1  0  -0.554406  0  1.976244  0  0  -0.504336  0  2.193919  0  0  -0.525488  0  2.183609  0  0  -0.278886  -0.48976  0  2.200689  0
O  O93  1  0.12513370  0.55955491  0.35707538  1  0  -0.538843  0  2.078269  0  0  -0.487  0  2.285042  0  0  -0.509256  0  2.267652  0  0  -0.324827  -0.471546  0  2.296814  0
O  O94  1  0.87486654  0.44044211  0.64292084  1  0  -0.538837  0  2.078248  0  0  -0.486962  0  2.285056  0  0  -0.509213  0  2.267657  0  0  -0.324792  -0.471508  0  2.296824  0
O  O95  1  0.63261260  0.72694242  0.26710459  1  0  -0.641588  0  2.046592  0  0  -0.574955  0  2.314893  0  0  -0.60355  0  2.302323  0  0  -0.319179  -0.554843  0  2.322905  0
O  O96  1  0.36738445  0.27305843  0.73289773  1  0  -0.641562  0  2.046608  0  0  -0.574904  0  2.314859  0  0  -0.603498  0  2.302291  0  0  -0.31912  -0.554785  0  2.322863  0
O  O97  1  0.85766461  0.60511464  0.30264075  1  0  -0.643636  0  2.011539  0  0  -0.591181  0  2.245671  0  0  -0.615331  0  2.233541  0  0  -0.317244  -0.574297  0  2.253611  0
O  O98  1  0.14233141  0.39488524  0.69735967  1  0  -0.643639  0  2.011625  0  0  -0.591193  0  2.24578  0  0  -0.615344  0  2.233651  0  0  -0.317272  -0.57431  0  2.253729  0
O  O99  1  0.83643731  0.14969561  0.45250298  1  0  -0.627098  0  2.057449  0  0  -0.558533  0  2.317252  0  0  -0.587678  0  2.305669  0  0  -0.308306  -0.53814  0  2.32462  0
O  O100  1  0.16356253  0.85030335  0.54749991  1  0  -0.627127  0  2.057445  0  0  -0.558552  0  2.317239  0  0  -0.587697  0  2.305656  0  0  -0.308361  -0.538162  0  2.324607  0
O  O101  1  0.59425039  0.07454424  0.54288913  1  0  -0.635841  0  2.039875  0  0  -0.565824  0  2.260203  0  0  -0.592654  0  2.250085  0  0  -0.306871  -0.547276  0  2.266957  0
O  O102  1  0.40575086  0.92545376  0.45711132  1  0  -0.635843  0  2.039887  0  0  -0.565819  0  2.260157  0  0  -0.592655  0  2.250052  0  0  -0.306865  -0.547272  0  2.266908  0
O  O103  1  0.99955869  0.90909691  0.36222872  1  0  -0.643851  0  2.056464  0  0  -0.576812  0  2.300615  0  0  -0.604576  0  2.288225  0  0  -0.302924  -0.557446  0  2.308804  0
O  O104  1  0.00044806  0.09090083  0.63777090  1  0  -0.643978  0  2.056412  0  0  -0.576918  0  2.300543  0  0  -0.604678  0  2.28815  0  0  -0.302992  -0.557556  0  2.30872  0
O  O105  1  0.02529476  0.86433730  0.19443020  1  0  -0.629224  0  2.086834  0  0  -0.566306  0  2.35879  0  0  -0.593569  0  2.345562  0  0  -0.315123  -0.547391  0  2.367413  0
O  O106  1  0.97470509  0.13566828  0.80556817  1  0  -0.629279  0  2.086782  0  0  -0.56637  0  2.358769  0  0  -0.593635  0  2.34554  0  0  -0.315131  -0.547463  0  2.367387  0
O  O107  1  0.18774742  0.10302920  0.39140562  1  0  -0.851726  0  1.951335  0  0  -0.788032  0  2.167565  0  0  -0.810865  0  2.131024  0  0  -0.575064  -0.771748  0  2.193042  0
O  O108  1  0.81225553  0.89697263  0.60859909  1  0  -0.851738  0  1.951364  0  0  -0.788015  0  2.167563  0  0  -0.810851  0  2.131025  0  0  -0.575043  -0.771736  0  2.193044  0
O  O109  1  0.70336591  0.95644204  0.32629628  1  0  -0.833204  0  1.928131  0  0  -0.767783  0  2.143452  0  0  -0.78978  0  2.106965  0  0  -0.580541  -0.752013  0  2.168871  0
O  O110  1  0.29663361  0.04355877  0.67370006  1  0  -0.833289  0  1.928111  0  0  -0.767817  0  2.143455  0  0  -0.789813  0  2.106982  0  0  -0.58055  -0.752049  0  2.168875  0
