# generated using pymatgen
data_Cu2H44C33(NO4)4
_symmetry_space_group_name_H-M   'P 1'
_cell_length_a   10.52222063
_cell_length_b   15.64528078
_cell_length_c   15.64037664
_cell_angle_alpha   83.42445361
_cell_angle_beta   70.36046631
_cell_angle_gamma   70.35027957
_symmetry_Int_Tables_number   1
_chemical_formula_structural   Cu2H44C33(NO4)4
_chemical_formula_sum   'Cu4 H88 C66 N8 O32'
_cell_volume   2283.76247790
_cell_formula_units_Z   2
loop_
 _symmetry_equiv_pos_site_id
 _symmetry_equiv_pos_as_xyz
  1  'x, y, z'
loop_
 _atom_site_type_symbol
 _atom_site_label
 _atom_site_symmetry_multiplicity
 _atom_site_fract_x
 _atom_site_fract_y
 _atom_site_fract_z
 _atom_site_occupancy
 _atom_site_pbe_bader_charge
 _atom_site_pbe_bader_spin_density
 _atom_site_pbe_cm5_charge
 _atom_site_pbe_ddec_charge
 _atom_site_pbe_ddec_spin_density
 _atom_site_pbe_ddec_sum_bond_order
 _atom_site_pbe_magmom
Cu  Cu0  1  0.00000495  0.50000603  0.50000367  1  1.060885  0.565667  0.723485  0.753839  0.72911  2.265784  0.565
Cu  Cu1  1  0.49998749  0.49999943  0.99999676  1  1.059979  0.565991  0.722677  0.754051  0.729374  2.264016  0.565
Cu  Cu2  1  0.50000703  0.99999370  0.99999721  1  1.060711  0.565601  0.723392  0.754561  0.728919  2.263443  0.565
Cu  Cu3  1  0.50000090  0.00000562  0.49999348  1  1.059476  0.566205  0.723677  0.754238  0.729598  2.268015  0.565
H  H4  1  0.74405675  0.45281198  0.60454522  1  0.138175  0.001947  0.130071  0.114468  0.000903  0.960785  0.002
H  H5  1  0.34877900  0.39549008  0.95275140  1  0.138629  0.001943  0.129967  0.114622  0.0009  0.960549  0.002
H  H6  1  0.30222672  0.04711095  0.89507115  1  0.136104  0.001937  0.130231  0.115374  0.000898  0.959938  0.002
H  H7  1  0.19751749  0.10437173  0.54696826  1  0.138807  0.001937  0.129999  0.11499  0.000899  0.960634  0.002
H  H8  1  0.25593975  0.54718370  0.39545201  1  0.138142  0.001946  0.130084  0.114478  0.000902  0.960932  0.002
H  H9  1  0.65121156  0.60450290  0.04724405  1  0.138512  0.001943  0.129953  0.114626  0.0009  0.960575  0.002
H  H10  1  0.69776702  0.95289831  0.10492386  1  0.136322  0.001937  0.130211  0.115367  0.000898  0.959791  0.002
H  H11  1  0.80249876  0.89562464  0.45301476  1  0.138543  0.001938  0.130012  0.115022  0.000899  0.96036  0.002
H  H12  1  0.48327118  0.53266041  0.66622689  1  0.127269  0.000836  0.122539  0.151263  0.00045  0.985467  0.0
H  H13  1  0.14929955  0.33383548  0.03259918  1  0.126896  0.000838  0.121583  0.149608  0.00045  0.986669  0.0
H  H14  1  0.18304148  0.96706618  0.83329946  1  0.109746  0.000836  0.121852  0.15029  0.000448  0.985558  0.0
H  H15  1  0.01623330  0.16597803  0.46710624  1  0.124998  0.00083  0.122088  0.150697  0.000447  0.985318  0.0
H  H16  1  0.51671003  0.46733661  0.33378827  1  0.12738  0.000836  0.122538  0.151226  0.00045  0.985645  0.0
H  H17  1  0.85068653  0.66616358  0.96741820  1  0.127052  0.000838  0.121619  0.149535  0.00045  0.986512  0.0
H  H18  1  0.81697000  0.03293698  0.16668720  1  0.110079  0.000835  0.121911  0.150329  0.000447  0.98556  0.0
H  H19  1  0.98377753  0.83402308  0.53289832  1  0.125003  0.00083  0.122074  0.150672  0.000447  0.985198  0.0
H  H20  1  0.57471101  0.78466792  0.57392799  1  0.122794  0.000762  0.111627  0.130429  0.000324  1.034084  0.0
H  H21  1  0.14815369  0.42577887  0.28468247  1  0.122434  0.00076  0.111807  0.130694  0.000321  1.033225  0.0
H  H22  1  0.43374136  0.71518996  0.92610479  1  0.120331  0.000752  0.111647  0.131155  0.00032  1.03403  0.0
H  H23  1  0.35892734  0.07427555  0.21509182  1  0.116583  0.000758  0.111825  0.131301  0.000322  1.03337  0.0
H  H24  1  0.42528328  0.21532029  0.42608531  1  0.122739  0.000763  0.111634  0.130463  0.000324  1.033812  0.0
H  H25  1  0.85185899  0.57421069  0.71533707  1  0.122775  0.000761  0.111859  0.130774  0.000322  1.033146  0.0
H  H26  1  0.56624186  0.28481183  0.07390347  1  0.120702  0.000753  0.111649  0.131138  0.000321  1.034129  0.0
H  H27  1  0.64104440  0.92574798  0.78488920  1  0.116896  0.000757  0.111823  0.131307  0.000322  1.033476  0.0
H  H28  1  0.83000965  0.69228350  0.51193530  1  0.115394  0.001766  0.120565  0.093122  0.000752  1.003418  0.001
H  H29  1  0.34161569  0.48768022  0.19243493  1  0.097311  0.001777  0.121013  0.094605  0.00075  1.00236  0.001
H  H30  1  0.53417196  0.80771883  0.98839908  1  0.11199  0.001767  0.121137  0.094086  0.000751  1.002144  0.001
H  H31  1  0.52223647  0.01236350  0.30733662  1  0.118305  0.001762  0.12061  0.093239  0.000751  1.003318  0.001
H  H32  1  0.16996141  0.30771218  0.48806686  1  0.11584  0.001767  0.120488  0.093037  0.000753  1.003271  0.001
H  H33  1  0.65839543  0.51229510  0.80756181  1  0.097524  0.001777  0.12104  0.094758  0.00075  1.00198  0.001
H  H34  1  0.46579151  0.19228567  0.01160867  1  0.111414  0.001767  0.12116  0.094099  0.000751  1.002107  0.001
H  H35  1  0.47776151  0.98765800  0.69263861  1  0.118425  0.001761  0.120629  0.093251  0.00075  1.003232  0.001
H  H36  1  0.30176951  0.63203471  0.75890158  1  0.077253  -4e-05  0.104493  0.073913  -2.1e-05  1.057416  0.0
H  H37  1  0.06007421  0.24094158  0.13217789  1  0.102349  -4.2e-05  0.104033  0.072439  -2.1e-05  1.057949  0.0
H  H38  1  0.19316495  0.86782957  0.74070149  1  0.078271  -4.2e-05  0.103688  0.071636  -2.1e-05  1.058914  0.0
H  H39  1  0.93372411  0.25898633  0.36773972  1  0.095711  -4.1e-05  0.104323  0.073305  -2e-05  1.05781  0.0
H  H40  1  0.69822588  0.36796845  0.24109389  1  0.077065  -4e-05  0.104472  0.07389  -2.1e-05  1.057242  0.0
H  H41  1  0.93990832  0.75906564  0.86782926  1  0.102063  -4.2e-05  0.104061  0.072505  -2.1e-05  1.058044  0.0
H  H42  1  0.80683413  0.13216612  0.25929080  1  0.078339  -4.2e-05  0.103744  0.071697  -2.1e-05  1.058883  0.0
H  H43  1  0.06624759  0.74101342  0.63226708  1  0.096297  -4.1e-05  0.104279  0.073245  -2e-05  1.057852  0.0
H  H44  1  0.25172817  0.63388039  0.66010351  1  0.103254  -3.2e-05  0.115806  0.103706  -1.6e-05  0.964545  0.0
H  H45  1  0.91142218  0.33978845  0.13366973  1  0.082195  -3.2e-05  0.115014  0.102842  -1.7e-05  0.964444  0.0
H  H46  1  0.04643388  0.86611242  0.83973561  1  0.077652  -3.2e-05  0.115769  0.103712  -1.7e-05  0.963915  0.0
H  H47  1  0.88550753  0.16012076  0.36630562  1  0.104213  -3.2e-05  0.116103  0.104814  -1.8e-05  0.964747  0.0
H  H48  1  0.74826788  0.36613090  0.33990186  1  0.103604  -3.2e-05  0.115768  0.103707  -1.6e-05  0.964398  0.0
H  H49  1  0.08857202  0.66022895  0.86633433  1  0.082342  -3.2e-05  0.115094  0.102912  -1.7e-05  0.964454  0.0
H  H50  1  0.95356163  0.13389209  0.16026005  1  0.077954  -3.2e-05  0.115762  0.103731  -1.7e-05  0.963884  0.0
H  H51  1  0.11449151  0.83988035  0.63369129  1  0.104538  -3.2e-05  0.116108  0.104837  -1.8e-05  0.964481  0.0
H  H52  1  0.02307648  0.61055341  0.20642334  1  0.066789  -0.000285  0.096128  0.154968  -0.000321  1.011306  0.0
H  H53  1  0.23061949  0.79312118  0.11070769  1  0.092775  -0.000287  0.095547  0.154097  -0.00032  1.012503  0.0
H  H54  1  0.34051667  0.88930014  0.29364488  1  0.078113  -0.000286  0.095827  0.154433  -0.000323  1.012657  0.0
H  H55  1  0.63475099  0.70696733  0.38916417  1  0.049723  -0.000279  0.095823  0.154472  -0.00032  1.011945  0.0
H  H56  1  0.97692963  0.38943887  0.79357821  1  0.066239  -0.000285  0.096143  0.155019  -0.000321  1.011251  0.0
H  H57  1  0.76939590  0.20687180  0.88928346  1  0.093258  -0.000288  0.095491  0.154029  -0.00032  1.012548  0.0
H  H58  1  0.65950242  0.11069350  0.70636876  1  0.078516  -0.000286  0.095945  0.154615  -0.000323  1.012438  0.0
H  H59  1  0.36527917  0.29303243  0.61082345  1  0.049973  -0.000279  0.095835  0.154433  -0.00032  1.011903  0.0
H  H60  1  0.90762363  0.70295082  0.27924323  1  0.072315  -0.000164  0.098212  0.152411  -0.000232  0.989279  0.0
H  H61  1  0.18745351  0.72006927  0.20308911  1  0.050727  -0.000163  0.09852  0.15297  -0.000234  0.98786  0.0
H  H62  1  0.38966662  0.79700861  0.22088424  1  0.042475  -0.000163  0.09816  0.152002  -0.000235  0.988637  0.0
H  H63  1  0.61058343  0.77996843  0.29684473  1  0.045628  -0.000162  0.098537  0.152663  -0.000235  0.988564  0.0
H  H64  1  0.09238405  0.29704350  0.72075338  1  0.072172  -0.000164  0.098199  0.152433  -0.000232  0.989385  0.0
H  H65  1  0.81254472  0.27993185  0.79690761  1  0.050612  -0.000163  0.09852  0.152876  -0.000234  0.987751  0.0
H  H66  1  0.61035119  0.20299046  0.77913213  1  0.042678  -0.000163  0.098204  0.152027  -0.000235  0.988621  0.0
H  H67  1  0.38944733  0.22002048  0.70314491  1  0.045867  -0.000162  0.098524  0.152678  -0.000235  0.988609  0.0
H  H68  1  0.83586221  0.63899655  0.23002128  1  0.044419  0.003386  0.096818  0.152599  0.001613  0.991496  0.002
H  H69  1  0.06676010  0.76986579  0.13891980  1  0.082229  0.003326  0.096967  0.152589  0.00161  0.991294  0.002
H  H70  1  0.20490257  0.86108408  0.27040483  1  0.074011  0.003337  0.096561  0.151614  0.001616  0.992397  0.002
H  H71  1  0.47598963  0.72981709  0.36082155  1  0.051258  0.003383  0.096991  0.152369  0.001616  0.991699  0.002
H  H72  1  0.16414605  0.36099574  0.76997044  1  0.04467  0.003384  0.096854  0.152639  0.001612  0.991563  0.002
H  H73  1  0.93324813  0.23014552  0.86106705  1  0.081909  0.003326  0.096911  0.152502  0.00161  0.991363  0.002
H  H74  1  0.79512898  0.13890887  0.72960858  1  0.073704  0.003339  0.096622  0.15166  0.001617  0.992299  0.002
H  H75  1  0.52404413  0.27016841  0.63917956  1  0.051094  0.003383  0.096893  0.152366  0.001615  0.991553  0.002
H  H76  1  0.87982138  0.43321929  0.41409974  1  0.64104  4.9e-05  0.269137  0.361719  -0.000109  1.00148  0.0
H  H77  1  0.29377441  0.58616783  0.93355254  1  0.641107  4.7e-05  0.26899  0.360891  -0.000109  1.002671  0.0
H  H78  1  0.22710561  0.06653571  0.08590845  1  0.640772  4.8e-05  0.26859  0.360967  -0.000108  1.002453  0.0
H  H79  1  0.31361343  0.91372455  0.56599034  1  0.635958  4.7e-05  0.26866  0.360607  -0.000108  1.003062  0.0
H  H80  1  0.12019244  0.56677098  0.58587956  1  0.641061  4.9e-05  0.269072  0.361627  -0.000109  1.00161  0.0
H  H81  1  0.70622410  0.41382310  0.06644938  1  0.641221  4.7e-05  0.268894  0.3608  -0.000109  1.002805  0.0
H  H82  1  0.77289906  0.93346539  0.91410814  1  0.640662  4.8e-05  0.268519  0.36081  -0.000108  1.002656  0.0
H  H83  1  0.68640302  0.08627928  0.43400239  1  0.636093  4.7e-05  0.268667  0.360621  -0.000108  1.00306  0.0
H  H84  1  0.01092794  0.34602739  0.40792194  1  0.575357  2.4e-05  0.288634  0.355978  -9e-06  0.96387  0.0
H  H85  1  0.41818093  0.59334099  0.84649685  1  0.572043  2.2e-05  0.288786  0.355752  -1e-05  0.965087  0.0
H  H86  1  0.26456505  0.15386478  0.09211308  1  0.564869  2.3e-05  0.287877  0.354889  -1e-05  0.964911  0.0
H  H87  1  0.35816893  0.90670001  0.65307763  1  0.568768  2.1e-05  0.289109  0.356743  -1e-05  0.962072  0.0
H  H88  1  0.98908300  0.65396287  0.59207656  1  0.575171  2.4e-05  0.288642  0.356022  -1e-05  0.963653  0.0
H  H89  1  0.58182993  0.40663977  0.15350367  1  0.58336  2.2e-05  0.288709  0.355624  -1e-05  0.965291  0.0
H  H90  1  0.73543036  0.84615060  0.90786716  1  0.565228  2.3e-05  0.287926  0.354893  -1e-05  0.96496  0.0
H  H91  1  0.64183412  0.09331129  0.34691911  1  0.568652  2.1e-05  0.289048  0.356619  -1e-05  0.962241  0.0
C  C92  1  0.70085593  0.52634285  0.59981929  1  0.44055  -0.000893  0.056906  0.134124  -0.001333  3.924837  -0.001
C  C93  1  0.30078370  0.40004812  0.02631568  1  0.537212  -0.001034  0.056813  0.132704  -0.001332  3.926123  -0.001
C  C94  1  0.32766800  0.97356706  0.89986013  1  0.531499  -0.001042  0.057244  0.133156  -0.001338  3.921936  -0.001
C  C95  1  0.22760847  0.09976827  0.47342752  1  0.435572  -0.000862  0.05591  0.131681  -0.001344  3.927813  -0.001
C  C96  1  0.29914154  0.47366233  0.40018569  1  0.440158  -0.000893  0.056852  0.13414  -0.001333  3.924775  -0.001
C  C97  1  0.69921384  0.59994349  0.97368369  1  0.537125  -0.001033  0.056763  0.132624  -0.001329  3.926011  -0.001
C  C98  1  0.67232125  0.02644355  0.10013793  1  0.531283  -0.001044  0.057341  0.133228  -0.001341  3.92186  -0.001
C  C99  1  0.77239302  0.90023556  0.52656634  1  0.43627  -0.000864  0.055946  0.131687  -0.001346  3.927225  -0.001
C  C100  1  0.55564439  0.57155924  0.63451357  1  0.037165  0.004994  -0.098924  -0.269654  0.003399  3.940246  0.004
C  C101  1  0.19009995  0.36537005  0.07149222  1  -0.118113  0.00515  -0.09815  -0.267708  0.003398  3.940291  0.004
C  C102  1  0.26245934  0.92826281  0.86512925  1  -0.029685  0.005139  -0.09876  -0.269422  0.003399  3.937521  0.004
C  C103  1  0.12744167  0.13445688  0.42823115  1  0.041613  0.004982  -0.098697  -0.269811  0.003388  3.941032  0.004
C  C104  1  0.44434433  0.42844526  0.36549158  1  0.037018  0.004993  -0.09891  -0.269564  0.003398  3.940387  0.004
C  C105  1  0.80986561  0.63463648  0.92852504  1  -0.118399  0.005148  -0.098137  -0.2675  0.003396  3.940079  0.004
C  C106  1  0.73751953  0.07174576  0.13488434  1  -0.029711  0.005139  -0.09884  -0.269506  0.003398  3.937699  0.004
C  C107  1  0.87255926  0.86554423  0.57177338  1  0.041812  0.004984  -0.098602  -0.269687  0.003389  3.940586  0.004
C  C108  1  0.50744067  0.66650423  0.62582517  1  0.439376  -0.002698  0.108804  0.308414  -0.003126  4.047318  -0.002
C  C109  1  0.13295650  0.37399019  0.16643612  1  0.522316  -0.002692  0.10812  0.307504  -0.003118  4.047039  -0.002
C  C110  1  0.30041198  0.83333053  0.87395325  1  0.510377  -0.002685  0.108679  0.30938  -0.003121  4.043622  -0.002
C  C111  1  0.17382853  0.12592827  0.33328995  1  0.47209  -0.002679  0.108968  0.310449  -0.003111  4.04283  -0.002
C  C112  1  0.49254624  0.33350027  0.37418193  1  0.439406  -0.002699  0.108721  0.308219  -0.003127  4.046908  -0.002
C  C113  1  0.86703482  0.62600073  0.83357678  1  0.522843  -0.002693  0.108121  0.307501  -0.003119  4.046629  -0.002
C  C114  1  0.69957248  0.16667601  0.12605111  1  0.510224  -0.002686  0.108703  0.309406  -0.003122  4.043479  -0.002
C  C115  1  0.82615866  0.87408370  0.66671175  1  0.472261  -0.002679  0.108803  0.310198  -0.003111  4.043225  -0.002
C  C116  1  0.60789597  0.71140618  0.58297880  1  0.021776  0.004596  -0.097609  -0.238334  0.003034  3.954088  0.004
C  C117  1  0.19035718  0.41680040  0.21141865  1  -0.023152  0.004633  -0.096662  -0.236284  0.003037  3.951274  0.004
C  C118  1  0.40267165  0.78846465  0.91699524  1  -0.052235  0.004582  -0.096679  -0.238543  0.00303  3.951149  0.004
C  C119  1  0.31901853  0.08315563  0.28835427  1  0.005976  0.004592  -0.097299  -0.239155  0.003035  3.952761  0.004
C  C120  1  0.39209669  0.28859085  0.41702721  1  0.021768  0.004599  -0.097618  -0.238413  0.003037  3.953385  0.004
C  C121  1  0.80963916  0.58318577  0.78859569  1  -0.023694  0.00463  -0.096852  -0.236491  0.003036  3.951849  0.004
C  C122  1  0.59732171  0.21153036  0.08299716  1  -0.052598  0.004583  -0.096736  -0.238657  0.00303  3.951686  0.004
C  C123  1  0.68097474  0.91685771  0.71163475  1  0.005804  0.004591  -0.097117  -0.238965  0.003035  3.952923  0.004
C  C124  1  0.74949989  0.66052006  0.54893599  1  0.46351  -0.000575  0.039885  0.090223  -0.000946  3.987547  0.0
C  C125  1  0.29808788  0.45083775  0.16058847  1  0.494782  -0.000606  0.038136  0.086643  -0.000937  3.98741  0.0
C  C126  1  0.45910559  0.83940042  0.95119520  1  0.467056  -0.000589  0.039082  0.089147  -0.000948  3.986327  0.0
C  C127  1  0.40997047  0.04911309  0.33918021  1  0.449923  -0.000556  0.03936  0.089683  -0.000922  3.98904  0.0
C  C128  1  0.25048347  0.33948105  0.45107142  1  0.462996  -0.000574  0.040007  0.090432  -0.000946  3.987235  0.0
C  C129  1  0.70193471  0.54913689  0.83941019  1  0.494233  -0.000604  0.038227  0.08659  -0.000935  3.987419  0.0
C  C130  1  0.54087440  0.16060612  0.04880647  1  0.467611  -0.000587  0.03905  0.089265  -0.000945  3.98667  0.0
C  C131  1  0.59002210  0.95090364  0.66080666  1  0.449395  -0.000555  0.039202  0.08957  -0.000924  3.988451  0.0
C  C132  1  0.26583951  0.67585135  0.70593685  1  0.387966  0.000103  -0.06077  -0.036421  3.6e-05  3.805062  0.0
C  C133  1  0.97130171  0.29395720  0.17581381  1  0.371831  0.000104  -0.060189  -0.035252  3.5e-05  3.807847  0.0
C  C134  1  0.14823239  0.82403386  0.79383464  1  0.41386  0.000104  -0.059549  -0.034308  3.4e-05  3.806007  0.0
C  C135  1  0.94151313  0.20598148  0.32412917  1  0.365196  0.000105  -0.060416  -0.037088  3.5e-05  3.805864  0.0
C  C136  1  0.73413606  0.32415043  0.29407432  1  0.383915  0.000104  -0.060666  -0.036434  3.6e-05  3.804613  0.0
C  C137  1  0.02868386  0.70605612  0.82419642  1  0.371678  0.000104  -0.060392  -0.035441  3.5e-05  3.80829  0.0
C  C138  1  0.85175823  0.17596590  0.20616244  1  0.413784  0.000104  -0.059679  -0.034587  3.4e-05  3.806282  0.0
C  C139  1  0.05844877  0.79402777  0.67587878  1  0.364806  0.000105  -0.060269  -0.036979  3.5e-05  3.805781  0.0
C  C140  1  0.12533751  0.74997106  0.74996738  1  0.05344  4.3e-05  -0.016679  0.059244  2.2e-05  3.800723  0.0
C  C141  1  0.87463919  0.25002732  0.25004763  1  0.05359  4.2e-05  -0.016716  0.059278  2.1e-05  3.800572  0.0
C  C142  1  0.91387566  0.57067988  0.33898074  1  1.536612  -8.9e-05  0.200686  0.665886  -0.000633  4.157251  -0.002
C  C143  1  0.25301755  0.66083137  0.07086348  1  1.563225  -0.000178  0.201233  0.667068  -0.000639  4.15149  -0.002
C  C144  1  0.32323819  0.92926753  0.16115083  1  1.542368  -0.000102  0.199282  0.663463  -0.000616  4.15704  -0.002
C  C145  1  0.48450948  0.83907278  0.42910655  1  1.528247  4.3e-05  0.199223  0.662933  -0.000593  4.163108  -0.002
C  C146  1  0.08612705  0.42931106  0.66101664  1  1.536752  -9.1e-05  0.200536  0.665796  -0.000632  4.157268  -0.002
C  C147  1  0.74697336  0.33916634  0.92914298  1  1.563689  -0.000173  0.201232  0.667123  -0.000637  4.15179  -0.002
C  C148  1  0.67678561  0.07073561  0.83885794  1  1.542866  -0.000102  0.199084  0.662826  -0.000616  4.157688  -0.002
C  C149  1  0.51551785  0.16092833  0.57088771  1  1.527709  4.7e-05  0.199479  0.663244  -0.000588  4.162798  -0.002
C  C150  1  0.91898273  0.63527006  0.25888486  1  -0.099666  0.011017  -0.247282  -0.520903  0.00803  3.898191  0.008
C  C151  1  0.17863409  0.74077194  0.13533470  1  -0.152067  0.011135  -0.24693  -0.52015  0.008009  3.896589  0.008
C  C152  1  0.31314513  0.86472136  0.24132047  1  -0.110942  0.011136  -0.24675  -0.518322  0.008065  3.897396  0.008
C  C153  1  0.55481552  0.75914989  0.36455102  1  -0.042138  0.010911  -0.247307  -0.519479  0.008035  3.897408  0.008
C  C154  1  0.08102749  0.36472088  0.74111513  1  -0.099256  0.011018  -0.247319  -0.521012  0.008031  3.898219  0.008
C  C155  1  0.82137099  0.25922442  0.86466470  1  -0.151962  0.011146  -0.246883  -0.519934  0.008017  3.896242  0.008
C  C156  1  0.68687640  0.13527906  0.75868901  1  -0.111252  0.011138  -0.246905  -0.51841  0.008067  3.897308  0.008
C  C157  1  0.44521446  0.24084308  0.63544369  1  -0.04259  0.010908  -0.247244  -0.519537  0.008032  3.897308  0.008
N  N158  1  0.79635602  0.56934410  0.55734662  1  -1.221324  0.079154  -0.368251  -0.260806  0.052887  3.661123  0.069
N  N159  1  0.35372459  0.44242686  0.06941666  1  -1.220748  0.079115  -0.366895  -0.25879  0.052939  3.660358  0.069
N  N160  1  0.42347281  0.93055632  0.94253740  1  -1.216381  0.078994  -0.36855  -0.260554  0.052827  3.661668  0.069
N  N161  1  0.36604887  0.05749693  0.43034896  1  -1.203023  0.079029  -0.367319  -0.258913  0.052873  3.661608  0.069
N  N162  1  0.20363701  0.43065701  0.44265679  1  -1.22098  0.079175  -0.368305  -0.260938  0.0529  3.661072  0.069
N  N163  1  0.64626798  0.55756815  0.93057873  1  -1.220452  0.079122  -0.366869  -0.258756  0.05294  3.65967  0.069
N  N164  1  0.57651905  0.06945023  0.05745682  1  -1.216476  0.078997  -0.368516  -0.260627  0.052829  3.661636  0.069
N  N165  1  0.63395410  0.94251030  0.56963611  1  -1.203468  0.079013  -0.367292  -0.258883  0.052862  3.66147  0.069
O  O166  1  0.37042961  0.71908540  0.65544493  1  -1.085137  -0.001055  -0.1631  -0.175925  -0.001125  2.56599  -0.001
O  O167  1  0.02550472  0.34432155  0.21896265  1  -1.074894  -0.001047  -0.161959  -0.17462  -0.001117  2.56801  -0.001
O  O168  1  0.24578591  0.78074592  0.84415137  1  -1.093769  -0.001052  -0.163644  -0.176305  -0.001121  2.566415  -0.001
O  O169  1  0.08915895  0.15566116  0.28081129  1  -1.099149  -0.001049  -0.162978  -0.175968  -0.001115  2.566102  -0.001
O  O170  1  0.62955287  0.28090416  0.34456645  1  -1.081238  -0.001055  -0.162993  -0.175704  -0.001125  2.56566  -0.001
O  O171  1  0.97448577  0.65567413  0.78104107  1  -1.074483  -0.001048  -0.161897  -0.174635  -0.001118  2.567469  -0.001
O  O172  1  0.75421334  0.21925723  0.15584743  1  -1.093901  -0.001052  -0.163556  -0.176083  -0.001122  2.566292  -0.001
O  O173  1  0.91083344  0.84435216  0.71919264  1  -1.099742  -0.001049  -0.163009  -0.175936  -0.001115  2.566435  -0.001
O  O174  1  0.99793742  0.56951971  0.38382313  1  -1.13188  0.114219  -0.342411  -0.581526  0.073196  2.300275  0.104
O  O175  1  0.38207862  0.61603558  0.06942773  1  -1.130104  0.114122  -0.342577  -0.582732  0.073149  2.300439  0.104
O  O176  1  0.45087152  0.93058206  0.11636241  1  -1.129454  0.114343  -0.341722  -0.581212  0.073199  2.300608  0.104
O  O177  1  0.56716238  0.88392448  0.43064948  1  -1.121597  0.114036  -0.342048  -0.580999  0.073163  2.304416  0.104
O  O178  1  0.00206875  0.43047936  0.61618005  1  -1.132351  0.114183  -0.342331  -0.581486  0.073169  2.30062  0.104
O  O179  1  0.61792924  0.38395196  0.93057128  1  -1.130472  0.114088  -0.342544  -0.58275  0.073127  2.300816  0.104
O  O180  1  0.54915462  0.06941364  0.88362533  1  -1.129674  0.114348  -0.341744  -0.581105  0.073199  2.300667  0.104
O  O181  1  0.43286537  0.11609634  0.56931543  1  -1.121588  0.113967  -0.342096  -0.580998  0.073119  2.304419  0.104
O  O182  1  0.83361217  0.52235136  0.35590289  1  -1.169443  0.001564  -0.332931  -0.56616  0.000154  2.130927  0.002
O  O183  1  0.18919808  0.64397635  0.02281775  1  -1.188448  0.00157  -0.33338  -0.566594  0.000162  2.126704  0.002
O  O184  1  0.21151395  0.97738349  0.14415304  1  -1.178191  0.001593  -0.332151  -0.56486  0.000173  2.128345  0.002
O  O185  1  0.35581247  0.85582522  0.47704215  1  -1.190032  0.001569  -0.331598  -0.564141  0.000159  2.133301  0.002
O  O186  1  0.16641059  0.47763822  0.64408966  1  -1.169009  0.001569  -0.332895  -0.566141  0.000158  2.130571  0.002
O  O187  1  0.81080992  0.35601255  0.97718146  1  -1.188656  0.001576  -0.333418  -0.566662  0.000166  2.126685  0.002
O  O188  1  0.78850057  0.02263253  0.85587811  1  -1.178394  0.001595  -0.332014  -0.564454  0.000174  2.128334  0.002
O  O189  1  0.64422971  0.14417929  0.52294818  1  -1.189486  0.001572  -0.331867  -0.56448  0.000162  2.13322  0.002
O  O190  1  0.91852241  0.37779571  0.44993609  1  -1.244434  -0.001433  -0.607168  -0.785724  -0.001536  1.977712  0.0
O  O191  1  0.36850738  0.55081891  0.87805711  1  -1.240165  -0.001451  -0.606529  -0.784495  -0.001547  1.981894  0.0
O  O192  1  0.24639878  0.12188513  0.05002511  1  -1.232674  -0.001413  -0.605884  -0.784312  -0.001518  1.979472  0.0
O  O193  1  0.29748822  0.94914317  0.62148805  1  -1.232406  -0.001424  -0.606821  -0.785588  -0.00153  1.979836  0.0
O  O194  1  0.08149501  0.62220540  0.55005814  1  -1.244281  -0.001434  -0.607128  -0.785737  -0.001536  1.977618  0.0
O  O195  1  0.63148430  0.44917270  0.12194322  1  -1.251596  -0.00145  -0.60637  -0.784304  -0.001546  1.982167  0.0
O  O196  1  0.75359772  0.87811055  0.94997212  1  -1.232983  -0.001414  -0.605814  -0.784137  -0.001518  1.979793  0.0
O  O197  1  0.70250157  0.05085794  0.37851456  1  -1.232377  -0.001424  -0.60677  -0.785468  -0.00153  1.98  0.0
