# generated using pymatgen
data_AgPH19C23BrN
_symmetry_space_group_name_H-M   'P 1'
_cell_length_a   9.03505115
_cell_length_b   9.53142311
_cell_length_c   12.88323169
_cell_angle_alpha   104.65327578
_cell_angle_beta   109.31389824
_cell_angle_gamma   92.35618951
_symmetry_Int_Tables_number   1
_chemical_formula_structural   AgPH19C23BrN
_chemical_formula_sum   'Ag2 P2 H38 C46 Br2 N2'
_cell_volume   1003.46450582
_cell_formula_units_Z   2
loop_
 _symmetry_equiv_pos_site_id
 _symmetry_equiv_pos_as_xyz
  1  'x, y, z'
loop_
 _atom_site_type_symbol
 _atom_site_label
 _atom_site_symmetry_multiplicity
 _atom_site_fract_x
 _atom_site_fract_y
 _atom_site_fract_z
 _atom_site_occupancy
 _atom_site_hle17_bader_spin_density
 _atom_site_hle17_ddec_charge
 _atom_site_hle17_ddec_spin_density
 _atom_site_hle17_ddec_sum_bond_order
 _atom_site_hle17_magmom
 _atom_site_hse06_10hf_bader_spin_density
 _atom_site_hse06_10hf_ddec_charge
 _atom_site_hse06_10hf_ddec_spin_density
 _atom_site_hse06_10hf_ddec_sum_bond_order
 _atom_site_hse06_10hf_magmom
 _atom_site_hse06_bader_spin_density
 _atom_site_hse06_ddec_charge
 _atom_site_hse06_ddec_spin_density
 _atom_site_hse06_ddec_sum_bond_order
 _atom_site_hse06_magmom
 _atom_site_pbe_bader_spin_density
 _atom_site_pbe_cm5_charge
 _atom_site_pbe_ddec_charge
 _atom_site_pbe_ddec_spin_density
 _atom_site_pbe_ddec_sum_bond_order
 _atom_site_pbe_magmom
Ag  Ag0  1  0.03766415  0.48446046  0.89141507  1  0  0.253072  0  1.96863  0  0  0.138924  0  2.490785  0  0  0.156721  0  2.445986  0  0  0.326167  0.126839  0  2.521556  0
Ag  Ag1  1  0.96234320  0.51554233  0.10858079  1  0  0.25312  0  1.968675  0  0  0.138998  0  2.490827  0  0  0.156794  0  2.446029  0  0  0.326187  0.12691  0  2.521603  0
P  P2  1  0.00170530  0.28199397  0.72975787  1  0  0.301274  0  3.751142  0  0  0.250514  0  4.214765  0  0  0.261918  0  4.208819  0  0  -0.020472  0.242644  0  4.218679  0
P  P3  1  0.99829519  0.71800225  0.27023982  1  0  0.301246  0  3.751216  0  0  0.250529  0  4.214866  0  0  0.261928  0  4.208919  0  0  -0.02047  0.242651  0  4.218778  0
H  H4  1  0.04645488  0.80710060  0.86603661  1  0  0.069276  0  0.972386  0  0  0.075009  0  1.043653  0  0  0.077186  0  1.042557  0  0  0.104764  0.073333  0  1.044538  0
H  H5  1  0.95354509  0.19290001  0.13396178  1  0  0.069256  0  0.972376  0  0  0.075005  0  1.043627  0  0  0.077182  0  1.04253  0  0  0.104765  0.073327  0  1.044516  0
H  H6  1  0.23160537  0.02829946  0.90621695  1  0  0.102921  0  0.970387  0  0  0.111717  0  1.035991  0  0  0.114473  0  1.035583  0  0  0.103832  0.10942  0  1.037277  0
H  H7  1  0.76839812  0.97170114  0.09378148  1  0  0.102964  0  0.970369  0  0  0.111757  0  1.035975  0  0  0.114518  0  1.035561  0  0  0.103848  0.109462  0  1.037256  0
H  H8  1  0.61257702  0.79514681  0.05372053  1  0  0.104214  0  0.982159  0  0  0.112474  0  1.047409  0  0  0.115194  0  1.047169  0  0  0.098627  0.110443  0  1.047839  0
H  H9  1  0.38742647  0.20485378  0.94628023  1  0  0.10422  0  0.982196  0  0  0.112482  0  1.047442  0  0  0.115198  0  1.047201  0  0  0.098638  0.110454  0  1.047874  0
H  H10  1  0.41002468  0.58647047  0.00817375  1  0  0.073351  0  0.952736  0  0  0.080561  0  1.021673  0  0  0.082883  0  1.019867  0  0  0.106156  0.078868  0  1.023148  0
H  H11  1  0.58997664  0.41353123  0.99182593  1  0  0.073342  0  0.952736  0  0  0.080518  0  1.02171  0  0  0.082837  0  1.019909  0  0  0.106127  0.078824  0  1.023184  0
H  H12  1  0.29744212  0.44923230  0.77758772  1  0  0.079222  0  0.981958  0  0  0.086951  0  1.053967  0  0  0.089744  0  1.052313  0  0  0.093627  0.084711  0  1.055806  0
H  H13  1  0.70255786  0.55076831  0.22240912  1  0  0.079188  0  0.981982  0  0  0.086924  0  1.053985  0  0  0.089717  0  1.052332  0  0  0.093642  0.084686  0  1.05582  0
H  H14  1  0.55481266  0.38666996  0.76130062  1  0  0.085342  0  0.988147  0  0  0.093012  0  1.056236  0  0  0.096321  0  1.054362  0  0  0.085652  0.090601  0  1.057657  0
H  H15  1  0.44518799  0.61332736  0.23869421  1  0  0.085309  0  0.988187  0  0  0.092994  0  1.056262  0  0  0.096305  0  1.054386  0  0  0.085661  0.090582  0  1.057683  0
H  H16  1  0.59186196  0.12448265  0.69957867  1  0  0.081757  0  1.005356  0  0  0.091408  0  1.068891  0  0  0.092413  0  1.071302  0  0  0.09316  0.090615  0  1.067356  0
H  H17  1  0.40813501  0.87551358  0.30041820  1  0  0.081852  0  1.005432  0  0  0.091507  0  1.068956  0  0  0.092512  0  1.071366  0  0  0.093192  0.090713  0  1.06742  0
H  H18  1  0.37435688  0.92737968  0.65963196  1  0  0.083798  0  0.9701  0  0  0.093792  0  1.033143  0  0  0.095542  0  1.034253  0  0  0.096309  0.092419  0  1.032639  0
H  H19  1  0.62564159  0.07261874  0.34036800  1  0  0.083752  0  0.97012  0  0  0.093756  0  1.03316  0  0  0.095499  0  1.03428  0  0  0.096286  0.092393  0  1.032646  0
H  H20  1  0.11563656  0.99085009  0.67035089  1  0  0.08488  0  0.986642  0  0  0.094012  0  1.053462  0  0  0.095839  0  1.054498  0  0  0.09493  0.092745  0  1.052772  0
H  H21  1  0.88436325  0.00914942  0.32964881  1  0  0.084903  0  0.98665  0  0  0.09402  0  1.05348  0  0  0.095846  0  1.054517  0  0  0.094931  0.092752  0  1.05279  0
H  H22  1  0.79641084  0.03674853  0.53339517  1  0  0.086114  0  0.994253  0  0  0.095367  0  1.060151  0  0  0.097126  0  1.061328  0  0  0.095495  0.094152  0  1.059216  0
H  H23  1  0.20358563  0.96324442  0.46660563  1  0  0.08611  0  0.994355  0  0  0.095372  0  1.06024  0  0  0.097132  0  1.061418  0  0  0.095503  0.094169  0  1.059293  0
H  H24  1  0.64844171  0.80736357  0.52437597  1  0  0.086912  0  0.958846  0  0  0.097534  0  1.01907  0  0  0.099681  0  1.01962  0  0  0.097793  0.096138  0  1.018536  0
H  H25  1  0.35155173  0.19263266  0.47563018  1  0  0.08688  0  0.958789  0  0  0.097523  0  1.019001  0  0  0.099673  0  1.019545  0  0  0.0978  0.096129  0  1.018466  0
H  H26  1  0.66000309  0.75042144  0.70681063  1  0  0.085323  0  0.964277  0  0  0.093388  0  1.029562  0  0  0.096345  0  1.028109  0  0  0.093566  0.091576  0  1.030092  0
H  H27  1  0.33999568  0.24958682  0.29319901  1  0  0.085248  0  0.964262  0  0  0.093285  0  1.029583  0  0  0.096245  0  1.028127  0  0  0.093529  0.091474  0  1.030115  0
H  H28  1  0.81125612  0.92640088  0.89331741  1  0  0.085912  0  0.979342  0  0  0.094948  0  1.043459  0  0  0.097375  0  1.043425  0  0  0.090544  0.092753  0  1.044431  0
H  H29  1  0.18875070  0.07360627  0.10669079  1  0  0.085823  0  0.97938  0  0  0.094914  0  1.043443  0  0  0.097352  0  1.043399  0  0  0.090535  0.092719  0  1.044414  0
H  H30  1  0.95648562  0.16186139  0.90304788  1  0  0.086456  0  0.986484  0  0  0.090403  0  1.064574  0  0  0.093762  0  1.062416  0  0  0.087417  0.088228  0  1.065782  0
H  H31  1  0.04351853  0.83814358  0.09695075  1  0  0.086487  0  0.986432  0  0  0.090424  0  1.064533  0  0  0.093781  0  1.062376  0  0  0.087417  0.088248  0  1.065742  0
H  H32  1  0.08538140  0.24905777  0.51895950  1  0  0.087401  0  0.98143  0  0  0.096846  0  1.046411  0  0  0.098708  0  1.047369  0  0  0.09701  0.09552  0  1.045686  0
H  H33  1  0.91461640  0.75094394  0.48103704  1  0  0.087358  0  0.981434  0  0  0.096829  0  1.046383  0  0  0.098689  0  1.047346  0  0  0.097011  0.095504  0  1.045658  0
H  H34  1  0.94417909  0.29569381  0.33329029  1  0  0.084532  0  0.95663  0  0  0.096722  0  1.016756  0  0  0.098998  0  1.016631  0  0  0.099255  0.095093  0  1.016979  0
H  H35  1  0.05581803  0.70431119  0.66670827  1  0  0.084499  0  0.956687  0  0  0.09674  0  1.016741  0  0  0.099022  0  1.016605  0  0  0.099248  0.095093  0  1.016997  0
H  H36  1  0.67904032  0.38087182  0.29635067  1  0  0.08521  0  0.960919  0  0  0.098414  0  1.017886  0  0  0.100868  0  1.017102  0  0  0.098871  0.096549  0  1.018683  0
H  H37  1  0.32095278  0.61912990  0.70365022  1  0  0.085224  0  0.960896  0  0  0.098412  0  1.017881  0  0  0.100862  0  1.017102  0  0  0.098871  0.096547  0  1.018675  0
H  H38  1  0.56647398  0.43696342  0.45161700  1  0  0.079772  0  0.963665  0  0  0.094986  0  1.017959  0  0  0.097343  0  1.017176  0  0  0.09837  0.093278  0  1.018562  0
H  H39  1  0.43352667  0.56303390  0.54838637  1  0  0.07976  0  0.963659  0  0  0.094993  0  1.017934  0  0  0.097352  0  1.017149  0  0  0.098374  0.093285  0  1.018537  0
H  H40  1  0.71313886  0.39917484  0.64149201  1  0  0.086477  0  0.963372  0  0  0.095801  0  1.031181  0  0  0.098783  0  1.029366  0  0  0.09594  0.093607  0  1.032458  0
H  H41  1  0.28686078  0.60082358  0.35850900  1  0  0.086491  0  0.963373  0  0  0.095812  0  1.031171  0  0  0.098796  0  1.029354  0  0  0.095937  0.093617  0  1.032451  0
C  C42  1  0.17372061  0.80937076  0.90683867  1  0  0.109262  0  3.722834  0  0  0.084237  0  3.968701  0  0  0.089322  0  3.987593  0  0  0.037732  0.08083  0  3.955852  0
C  C43  1  0.82628221  0.19063312  0.09316022  1  0  0.109394  0  3.722662  0  0  0.084391  0  3.968503  0  0  0.089477  0  3.987392  0  0  0.037813  0.080982  0  3.955659  0
C  C44  1  0.27882933  0.93342738  0.93047019  1  0  -0.147232  0  3.698928  0  0  -0.163924  0  3.94147  0  0  -0.170513  0  3.962807  0  0  -0.079697  -0.159915  0  3.928239  0
C  C45  1  0.72117416  0.06657322  0.06952824  1  0  -0.147416  0  3.699009  0  0  -0.164121  0  3.941536  0  0  -0.170717  0  3.962862  0  0  -0.079799  -0.160113  0  3.928305  0
C  C46  1  0.44201417  0.93466684  0.98554371  1  0  0.092911  0  3.731721  0  0  0.105878  0  3.957462  0  0  0.109492  0  3.978181  0  0  0.012856  0.103767  0  3.943267  0
C  C47  1  0.55799317  0.06533594  0.01445524  1  0  0.092866  0  3.731878  0  0  0.10588  0  3.957576  0  0  0.109502  0  3.978285  0  0  0.012822  0.103772  0  3.943382  0
C  C48  1  0.48907730  0.80573139  0.01223587  1  0  -0.141775  0  3.703434  0  0  -0.160315  0  3.945993  0  0  -0.166869  0  3.968207  0  0  -0.080433  -0.156207  0  3.931189  0
C  C49  1  0.51092134  0.19426812  0.98776046  1  0  -0.141695  0  3.703388  0  0  -0.16025  0  3.945918  0  0  -0.166796  0  3.968121  0  0  -0.080396  -0.156147  0  3.931119  0
C  C50  1  0.37604724  0.68636093  0.98566617  1  0  0.119367  0  3.716122  0  0  0.092195  0  3.964268  0  0  0.09773  0  3.983054  0  0  0.041449  0.088423  0  3.952248  0
C  C51  1  0.62395759  0.31364076  0.01433278  1  0  0.119303  0  3.716103  0  0  0.092169  0  3.964278  0  0  0.097704  0  3.98306  0  0  0.041466  0.088397  0  3.952259  0
C  C52  1  0.18870816  0.22468524  0.72219479  1  0  -0.097553  0  3.776683  0  0  -0.057063  0  4.011947  0  0  -0.062454  0  4.037005  0  0  -0.028955  -0.053476  0  3.994737  0
C  C53  1  0.81129116  0.77531099  0.27780030  1  0  -0.09755  0  3.776666  0  0  -0.057121  0  4.012027  0  0  -0.06251  0  4.037082  0  0  -0.029008  -0.053525  0  3.9948  0
C  C54  1  0.31389853  0.33513142  0.74848574  1  0  -0.082364  0  3.757389  0  0  -0.101182  0  4.000921  0  0  -0.102755  0  4.023354  0  0  -0.089088  -0.099802  0  3.985537  0
C  C55  1  0.68609659  0.66486811  0.25151132  1  0  -0.082264  0  3.757489  0  0  -0.101084  0  4.001062  0  0  -0.102659  0  4.0235  0  0  -0.089028  -0.099707  0  3.985676  0
C  C56  1  0.45764012  0.29955744  0.73867095  1  0  -0.079167  0  3.771901  0  0  -0.087085  0  4.011791  0  0  -0.090543  0  4.033406  0  0  -0.094686  -0.084502  0  3.996687  0
C  C57  1  0.54236388  0.70043878  0.26132833  1  0  -0.079219  0  3.772066  0  0  -0.087149  0  4.011961  0  0  -0.090607  0  4.033572  0  0  -0.094834  -0.084566  0  3.996858  0
C  C58  1  0.47916281  0.15263443  0.70600873  1  0  -0.05882  0  3.748863  0  0  -0.071201  0  3.988044  0  0  -0.071592  0  4.009432  0  0  -0.088905  -0.07075  0  3.973389  0
C  C59  1  0.52083214  0.84736400  0.29398964  1  0  -0.05888  0  3.749024  0  0  -0.071267  0  3.988208  0  0  -0.071657  0  4.009593  0  0  -0.088856  -0.070816  0  3.973554  0
C  C60  1  0.35717120  0.04210268  0.68356228  1  0  -0.068055  0  3.758888  0  0  -0.077088  0  4.002084  0  0  -0.079281  0  4.022545  0  0  -0.090521  -0.07536  0  3.988042  0
C  C61  1  0.64282795  0.95789245  0.31643411  1  0  -0.068049  0  3.759068  0  0  -0.077087  0  4.002242  0  0  -0.079274  0  4.02271  0  0  -0.090526  -0.075367  0  3.988194  0
C  C62  1  0.21158087  0.07769694  0.69045888  1  0  -0.086003  0  3.75359  0  0  -0.10626  0  3.996696  0  0  -0.107115  0  4.017794  0  0  -0.090449  -0.105352  0  3.982027  0
C  C63  1  0.78841626  0.92230039  0.30953746  1  0  -0.086023  0  3.753658  0  0  -0.106245  0  3.996765  0  0  -0.107097  0  4.01786  0  0  -0.090428  -0.105338  0  3.982095  0
C  C64  1  0.88785091  0.11298773  0.71873924  1  0  -0.096431  0  3.76484  0  0  -0.054733  0  3.997512  0  0  -0.060427  0  4.022509  0  0  -0.026706  -0.051051  0  3.98049  0
C  C65  1  0.11214840  0.88700849  0.28126128  1  0  -0.096353  0  3.764724  0  0  -0.054659  0  3.9974  0  0  -0.060353  0  4.022397  0  0  -0.02668  -0.050977  0  3.980381  0
C  C66  1  0.80082075  0.01279215  0.61254671  1  0  -0.08126  0  3.750288  0  0  -0.100525  0  3.989303  0  0  -0.100919  0  4.009983  0  0  -0.08868  -0.099478  0  3.974591  0
C  C67  1  0.19917872  0.98720516  0.38745638  1  0  -0.081353  0  3.750378  0  0  -0.100642  0  3.989413  0  0  -0.101037  0  4.010096  0  0  -0.08875  -0.099603  0  3.974695  0
C  C68  1  0.71787907  0.88293454  0.60768065  1  0  -0.073168  0  3.763576  0  0  -0.080216  0  4.004171  0  0  -0.082907  0  4.025142  0  0  -0.090032  -0.078295  0  3.989353  0
C  C69  1  0.28211839  0.11706497  0.39232394  1  0  -0.073109  0  3.763452  0  0  -0.08018  0  4.004056  0  0  -0.08287  0  4.025029  0  0  -0.090009  -0.078259  0  3.989242  0
C  C70  1  0.72287407  0.85185488  0.70900163  1  0  -0.065695  0  3.758527  0  0  -0.078487  0  4.001896  0  0  -0.079077  0  4.021819  0  0  -0.088299  -0.077508  0  3.987454  0
C  C71  1  0.27712824  0.14814571  0.29100351  1  0  -0.065573  0  3.758467  0  0  -0.078329  0  4.001827  0  0  -0.078921  0  4.021755  0  0  -0.088295  -0.077353  0  3.987385  0
C  C72  1  0.80899220  0.95176569  0.81501883  1  0  -0.069897  0  3.766478  0  0  -0.077952  0  4.005432  0  0  -0.080762  0  4.02739  0  0  -0.092672  -0.076062  0  3.990633  0
C  C73  1  0.19100842  0.04823929  0.18498752  1  0  -0.069891  0  3.766462  0  0  -0.077993  0  4.005411  0  0  -0.080812  0  4.027363  0  0  -0.092645  -0.076101  0  3.990609  0
C  C74  1  0.89059540  0.08248990  0.82041640  1  0  -0.079264  0  3.732825  0  0  -0.096123  0  3.97141  0  0  -0.097486  0  3.992868  0  0  -0.087888  -0.095124  0  3.956419  0
C  C75  1  0.10940491  0.91751289  0.17958558  1  0  -0.079261  0  3.732789  0  0  -0.096106  0  3.971372  0  0  -0.097469  0  3.992836  0  0  -0.087855  -0.095106  0  3.95638  0
C  C76  1  0.90622532  0.31657140  0.59125273  1  0  -0.089704  0  3.755024  0  0  -0.048698  0  3.989727  0  0  -0.054069  0  4.015195  0  0  -0.024969  -0.045757  0  3.972973  0
C  C77  1  0.09377517  0.68342482  0.40874651  1  0  -0.089735  0  3.755098  0  0  -0.048783  0  3.989884  0  0  -0.054154  0  4.015354  0  0  -0.024997  -0.045841  0  3.97313  0
C  C78  1  0.97172332  0.29019703  0.50469805  1  0  -0.075137  0  3.741707  0  0  -0.095037  0  3.981975  0  0  -0.096061  0  4.00425  0  0  -0.086373  -0.094264  0  3.967044  0
C  C79  1  0.02827565  0.70980468  0.49530031  1  0  -0.075028  0  3.741654  0  0  -0.094933  0  3.981943  0  0  -0.095956  0  4.004221  0  0  -0.086353  -0.094157  0  3.967007  0
C  C80  1  0.89147711  0.31572470  0.39962608  1  0  -0.061071  0  3.758696  0  0  -0.07211  0  4.005432  0  0  -0.07463  0  4.027101  0  0  -0.087907  -0.070443  0  3.990842  0
C  C81  1  0.10851850  0.68427810  0.60037327  1  0  -0.061117  0  3.758768  0  0  -0.072196  0  4.005526  0  0  -0.074717  0  4.027194  0  0  -0.087913  -0.070523  0  3.990926  0
C  C82  1  0.74415639  0.36527590  0.37948713  1  0  -0.064121  0  3.760565  0  0  -0.078924  0  4.009011  0  0  -0.079609  0  4.029633  0  0  -0.088676  -0.078267  0  3.995132  0
C  C83  1  0.25584141  0.63472580  0.62051328  1  0  -0.064041  0  3.760614  0  0  -0.078828  0  4.009067  0  0  -0.079514  0  4.029693  0  0  -0.088636  -0.07817  0  3.995179  0
C  C84  1  0.68010329  0.39536949  0.46661119  1  0  -0.074968  0  3.782453  0  0  -0.085825  0  4.027243  0  0  -0.088727  0  4.049506  0  0  -0.092339  -0.084314  0  4.012407  0
C  C85  1  0.31989635  0.60462893  0.53338982  1  0  -0.075002  0  3.782455  0  0  -0.085877  0  4.027238  0  0  -0.088778  0  4.049499  0  0  -0.092385  -0.084366  0  4.012401  0
C  C86  1  0.76128114  0.37302187  0.57252346  1  0  -0.081341  0  3.748383  0  0  -0.100228  0  3.989903  0  0  -0.10161  0  4.012024  0  0  -0.087547  -0.098877  0  3.975082  0
C  C87  1  0.23872069  0.62697544  0.42747707  1  0  -0.081364  0  3.748322  0  0  -0.100224  0  3.989834  0  0  -0.101604  0  4.011953  0  0  -0.087502  -0.098873  0  3.975015  0
Br  Br88  1  0.79008733  0.61854166  0.91902886  1  0  -0.547357  0  1.02729  0  0  -0.471838  0  1.358091  0  0  -0.491242  0  1.331873  0  0  -0.304214  -0.457259  0  1.376309  0
Br  Br89  1  0.20991381  0.38145895  0.08096981  1  0  -0.547343  0  1.027313  0  0  -0.471828  0  1.358117  0  0  -0.491238  0  1.331907  0  0  -0.30421  -0.457248  0  1.376332  0
N  N90  1  0.22028214  0.68696453  0.93413041  1  0  -0.274357  0  3.277219  0  0  -0.20029  0  3.552782  0  0  -0.215136  0  3.56797  0  0  -0.340016  -0.190494  0  3.543068  0
N  N91  1  0.77971934  0.31303827  0.06586641  1  0  -0.274341  0  3.277246  0  0  -0.200319  0  3.552814  0  0  -0.215166  0  3.567999  0  0  -0.340024  -0.190525  0  3.543101  0
