# generated using pymatgen
data_CuH7C3N(ClO)2
_symmetry_space_group_name_H-M   'P 1'
_cell_length_a   6.90617489
_cell_length_b   7.82867564
_cell_length_c   12.12477752
_cell_angle_alpha   89.99998585
_cell_angle_beta   89.99961517
_cell_angle_gamma   95.02154390
_symmetry_Int_Tables_number   1
_chemical_formula_structural   CuH7C3N(ClO)2
_chemical_formula_sum   'Cu4 H28 C12 N4 Cl8 O8'
_cell_volume   653.02462456
_cell_formula_units_Z   4
loop_
 _symmetry_equiv_pos_site_id
 _symmetry_equiv_pos_as_xyz
  1  'x, y, z'
loop_
 _atom_site_type_symbol
 _atom_site_label
 _atom_site_symmetry_multiplicity
 _atom_site_fract_x
 _atom_site_fract_y
 _atom_site_fract_z
 _atom_site_occupancy
 _atom_site_hle17_ddec_charge
 _atom_site_hle17_ddec_spin_density
 _atom_site_hle17_ddec_sum_bond_order
 _atom_site_hle17_magmom
 _atom_site_hse06_10hf_ddec_charge
 _atom_site_hse06_10hf_ddec_spin_density
 _atom_site_hse06_10hf_ddec_sum_bond_order
 _atom_site_hse06_10hf_magmom
 _atom_site_hse06_ddec_charge
 _atom_site_hse06_ddec_spin_density
 _atom_site_hse06_ddec_sum_bond_order
 _atom_site_hse06_magmom
 _atom_site_pbe_cm5_charge
 _atom_site_pbe_ddec_charge
 _atom_site_pbe_ddec_spin_density
 _atom_site_pbe_ddec_sum_bond_order
 _atom_site_pbe_magmom
Cu  Cu0  1  0.13467212  0.26406583  0.22908269  1  0.85578  0.639082  1.837319  0.472  0.869961  0.751794  2.22629  0.604  0.977965  0.8215  2.128418  0.697  0.552773  0.808205  0.705828  2.286537  0.548
Cu  Cu1  1  0.36532549  0.73593311  0.72908150  1  0.855726  0.63909  1.83743  0.472  0.869924  0.751788  2.226416  0.604  0.97792  0.821491  2.128547  0.697  0.552725  0.808174  0.705824  2.286656  0.548
Cu  Cu2  1  0.86532508  0.73593361  0.77091802  1  0.855711  0.639079  1.837399  0.472  0.869894  0.751793  2.226396  0.604  0.977903  0.821502  2.128521  0.697  0.552755  0.808142  0.705822  2.286637  0.548
Cu  Cu3  1  0.63467461  0.26406636  0.27091921  1  0.855684  0.639083  1.837469  0.472  0.869857  0.751787  2.226465  0.604  0.977857  0.821491  2.128593  0.697  0.552721  0.808103  0.705824  2.286711  0.548
H  H4  1  0.95703590  0.39000067  0.60274323  1  0.125463  -0.000284  0.952032  0.0  0.136625  0.000315  1.014187  0.001  0.138828  0.000195  1.013512  0.0  0.092478  0.134999  0.000443  1.014642  0.001
H  H5  1  0.54295844  0.60999821  0.10274391  1  0.125466  -0.000283  0.951989  0.0  0.136589  0.000315  1.014197  0.001  0.138802  0.000195  1.013516  0.0  0.092479  0.134962  0.000443  1.014652  0.001
H  H6  1  0.04296901  0.61000396  0.39725748  1  0.125491  -0.000284  0.952065  0.0  0.136615  0.000315  1.014256  0.001  0.138824  0.000195  1.013572  0.0  0.092494  0.134986  0.000443  1.014711  0.001
H  H7  1  0.45703563  0.38999865  0.89725763  1  0.125454  -0.000281  0.952047  0.0  0.136602  0.000315  1.014238  0.001  0.138814  0.000195  1.013554  0.0  0.092485  0.134975  0.000443  1.014693  0.001
H  H8  1  0.15634717  0.05841889  0.55953079  1  0.077095  -0.000109  0.937929  0.0  0.092754  7e-06  0.998332  0.0  0.093358  -1.3e-05  0.998417  0.0  0.107562  0.092266  3.7e-05  0.998302  0.0
H  H9  1  0.34364824  0.94158154  0.05953357  1  0.077085  -0.00011  0.937984  0.0  0.092752  7e-06  0.998383  0.0  0.093367  -1.3e-05  0.998454  0.0  0.107555  0.092259  3.7e-05  0.998354  0.0
H  H10  1  0.84365437  0.94158059  0.44046745  1  0.077115  -0.000109  0.93797  0.0  0.092774  7e-06  0.99835  0.0  0.093397  -1.3e-05  0.998409  0.0  0.107576  0.092284  3.7e-05  0.998319  0.0
H  H11  1  0.65634595  0.05841661  0.94046714  1  0.077072  -0.000111  0.937937  0.0  0.092724  7e-06  0.998343  0.0  0.093328  -1.3e-05  0.998428  0.0  0.107556  0.092238  3.7e-05  0.998306  0.0
H  H12  1  0.16915053  0.17426848  0.68442460  1  0.076986  0.000502  0.952036  0.001  0.089931  0.00045  1.01789  0.001  0.091006  0.000261  1.017377  0.0  0.096294  0.089227  0.000628  1.018225  0.001
H  H13  1  0.33084316  0.82572921  0.18442580  1  0.076985  0.000501  0.952083  0.001  0.089932  0.00045  1.017927  0.001  0.091005  0.00026  1.01742  0.0  0.096321  0.089227  0.000628  1.018263  0.001
H  H14  1  0.83085125  0.82573356  0.31557364  1  0.076997  0.000503  0.952111  0.001  0.089932  0.00045  1.017956  0.001  0.091004  0.00026  1.017448  0.0  0.096309  0.08921  0.000628  1.018309  0.001
H  H15  1  0.66915259  0.17427023  0.81557409  1  0.07698  0.000501  0.952064  0.001  0.089925  0.00045  1.017908  0.001  0.090999  0.000261  1.017397  0.0  0.096297  0.089217  0.000628  1.018246  0.001
H  H16  1  0.84430155  0.18179072  0.60950730  1  0.13699  0.0007  0.931342  -0.001  0.15339  0.001078  0.987675  0.0  0.156592  0.000709  0.985905  0.0  0.100628  0.15123  0.001375  0.988939  0.0
H  H17  1  0.65569584  0.81821073  0.10950586  1  0.13699  0.000702  0.931343  -0.001  0.153418  0.001078  0.987646  0.0  0.156624  0.000709  0.985871  0.0  0.100639  0.151255  0.001375  0.98891  0.0
H  H18  1  0.15570035  0.81821260  0.39049342  1  0.136996  0.000701  0.931292  -0.001  0.153399  0.001078  0.987623  0.0  0.156603  0.000708  0.985848  0.0  0.100618  0.151239  0.001375  0.988887  0.0
H  H19  1  0.34430136  0.18178872  0.89049567  1  0.136956  0.000699  0.93136  -0.001  0.1534  0.001078  0.987657  0.0  0.156604  0.000708  0.985887  0.0  0.100624  0.151238  0.001375  0.98892  0.0
H  H20  1  0.31713292  0.30761043  0.46715516  1  0.329615  -0.000233  0.875093  0.0  0.307463  -2.3e-05  0.943603  0.0  0.314619  -4.9e-05  0.938031  0.0  0.29516  0.302307  1.6e-05  0.947671  0.0
H  H21  1  0.18287100  0.69239337  0.96715550  1  0.329639  -0.000235  0.875233  0.0  0.307526  -2.3e-05  0.943673  0.0  0.314662  -4.9e-05  0.938116  0.0  0.295208  0.302368  1.5e-05  0.94774  0.0
H  H22  1  0.68287465  0.69239165  0.53284555  1  0.329609  -0.000231  0.875167  0.0  0.307483  -2.3e-05  0.943645  0.0  0.314618  -4.9e-05  0.938098  0.0  0.29517  0.30234  1.6e-05  0.947701  0.0
H  H23  1  0.81712898  0.30760482  0.03284356  1  0.329663  -0.000232  0.875238  0.0  0.307534  -2.3e-05  0.943687  0.0  0.31467  -4.9e-05  0.938132  0.0  0.295202  0.302379  1.5e-05  0.947753  0.0
H  H24  1  0.34903409  0.40764371  0.58935280  1  0.334132  0.000843  0.84798  0.0  0.315998  0.000858  0.907511  0.0  0.322334  0.00063  0.90299  0.0  0.306206  0.311324  0.001021  0.911088  0.0
H  H25  1  0.15096532  0.59235670  0.08935224  1  0.334052  0.000841  0.84809  0.0  0.315875  0.000859  0.907658  0.0  0.322212  0.000631  0.903135  0.0  0.306176  0.311206  0.001021  0.911224  0.0
H  H26  1  0.65097059  0.59235835  0.41064708  1  0.334114  0.000843  0.84798  0.0  0.315974  0.000858  0.907522  0.0  0.322311  0.000631  0.902999  0.0  0.306201  0.3113  0.001021  0.911099  0.0
H  H27  1  0.84903177  0.40764146  0.91064764  1  0.334106  0.000844  0.848008  0.0  0.315969  0.000858  0.907531  0.0  0.322304  0.000631  0.903011  0.0  0.306204  0.311297  0.001021  0.911107  0.0
H  H28  1  0.44698567  0.22191012  0.56660170  1  0.335836  0.001352  0.84563  0.0  0.318364  0.00132  0.906264  0.0  0.32662  0.000963  0.898709  0.0  0.302016  0.312656  0.0016  0.91147  0.0
H  H29  1  0.05301245  0.77808903  0.06659984  1  0.335838  0.001351  0.845613  0.0  0.318363  0.00132  0.906242  0.0  0.326617  0.000963  0.898691  0.0  0.302012  0.312653  0.001599  0.911446  0.0
H  H30  1  0.55301866  0.77808809  0.43339984  1  0.335842  0.001353  0.845645  0.0  0.318397  0.00132  0.906259  0.0  0.326656  0.000963  0.898693  0.0  0.302012  0.312688  0.0016  0.911466  0.0
H  H31  1  0.94698319  0.22190912  0.93339840  1  0.335871  0.001353  0.84562  0.0  0.318377  0.00132  0.906267  0.0  0.326632  0.000963  0.898713  0.0  0.302035  0.312669  0.001599  0.911471  0.0
C  C32  1  0.96261651  0.26079267  0.56812981  1  -0.306457  0.019015  3.63307  0.02  -0.341102  0.012499  3.870019  0.014  -0.349845  0.008443  3.876406  0.01  -0.170723  -0.334671  0.015629  3.864966  0.017
C  C33  1  0.53738126  0.73920756  0.06812884  1  -0.306483  0.019019  3.632965  0.02  -0.341118  0.0125  3.869941  0.014  -0.349874  0.008443  3.876328  0.01  -0.170728  -0.334679  0.01563  3.864886  0.017
C  C34  1  0.03738370  0.73920808  0.43187090  1  -0.306502  0.019011  3.633102  0.02  -0.341119  0.012498  3.870095  0.014  -0.349868  0.008442  3.876473  0.01  -0.170751  -0.334684  0.015628  3.865034  0.017
C  C35  1  0.46261595  0.26079189  0.93187105  1  -0.306415  0.019015  3.63308  0.02  -0.3411  0.012499  3.870105  0.014  -0.349859  0.008444  3.876497  0.01  -0.170729  -0.334667  0.015629  3.865049  0.017
C  C36  1  0.91617610  0.26425226  0.44586456  1  0.710445  -0.007308  3.785276  -0.009  0.672736  0.001999  4.087132  0.0  0.714495  0.000497  4.08066  0.0  0.216022  0.644329  0.003592  4.091483  0.0
C  C37  1  0.58382851  0.73574496  0.94586362  1  0.710544  -0.007311  3.785446  -0.009  0.672835  0.002001  4.087294  0.0  0.714595  0.000497  4.08082  0.0  0.216042  0.644425  0.003592  4.091643  0.0
C  C38  1  0.08382191  0.73575616  0.55413532  1  0.710541  -0.007309  3.785261  -0.009  0.67277  0.002  4.087196  0.0  0.714531  0.000497  4.080718  0.0  0.216039  0.644358  0.003592  4.091549  0.0
C  C39  1  0.41617281  0.26425196  0.05413462  1  0.71049  -0.007305  3.785394  -0.009  0.672728  0.002001  4.08732  0.0  0.714491  0.000497  4.080847  0.0  0.215991  0.644318  0.003593  4.091664  0.0
C  C40  1  0.15181945  0.18601061  0.59510835  1  0.104486  0.001331  3.563406  0.001  0.043177  0.00157  3.819585  0.002  0.048876  0.000943  3.828788  0.001  -0.070418  0.039637  0.002104  3.812732  0.002
C  C41  1  0.34817554  0.81398977  0.09510866  1  0.104458  0.001335  3.563466  0.001  0.043142  0.00157  3.819635  0.002  0.048833  0.000943  3.828834  0.001  -0.070481  0.039594  0.002104  3.8128  0.002
C  C42  1  0.84818233  0.81399143  0.40489154  1  0.104366  0.001334  3.563666  0.001  0.043097  0.001571  3.81978  0.002  0.048779  0.000943  3.828992  0.001  -0.070488  0.039568  0.002104  3.81294  0.002
C  C43  1  0.65182033  0.18601095  0.90489040  1  0.104539  0.001332  3.563371  0.001  0.043234  0.00157  3.819547  0.002  0.048933  0.000943  3.828748  0.001  -0.070445  0.039678  0.002104  3.812725  0.002
N  N44  1  0.32722771  0.28938918  0.55169855  1  -0.48158  0.002037  3.202779  0.002  -0.42791  0.00231  3.395467  0.002  -0.441163  0.001634  3.391325  0.002  -0.611648  -0.418669  0.002841  3.398396  0.003
N  N45  1  0.17277082  0.71061256  0.05169625  1  -0.48151  0.00204  3.203043  0.002  -0.427814  0.00231  3.395721  0.002  -0.441045  0.001634  3.391616  0.002  -0.611641  -0.418575  0.00284  3.398647  0.003
N  N46  1  0.67277686  0.71061160  0.44830216  1  -0.481492  0.00203  3.202852  0.002  -0.427868  0.00231  3.395407  0.002  -0.44111  0.001634  3.391313  0.002  -0.611606  -0.418646  0.00284  3.398305  0.003
N  N47  1  0.82722638  0.28938688  0.94830282  1  -0.481689  0.002037  3.203029  0.002  -0.427991  0.002311  3.395615  0.002  -0.441222  0.001635  3.391506  0.002  -0.611684  -0.418754  0.00284  3.398542  0.003
Cl  Cl48  1  0.85501996  0.47592109  0.19611740  1  -0.553766  0.083882  1.057264  0.104  -0.54207  0.05605  1.351455  0.074  -0.574269  0.040237  1.320806  0.06  -0.278528  -0.523213  0.066514  1.372963  0.082
Cl  Cl49  1  0.64497905  0.52407770  0.69611543  1  -0.553769  0.083891  1.057272  0.104  -0.54208  0.056055  1.351466  0.074  -0.574285  0.040238  1.320822  0.06  -0.278521  -0.523223  0.066517  1.372982  0.082
Cl  Cl50  1  0.14498014  0.52407838  0.80388166  1  -0.553761  0.083879  1.057268  0.104  -0.542079  0.05605  1.351483  0.074  -0.574279  0.040237  1.320834  0.06  -0.278526  -0.52322  0.066514  1.372993  0.082
Cl  Cl51  1  0.35501936  0.47591920  0.30388446  1  -0.553747  0.08389  1.057235  0.104  -0.542064  0.056054  1.351456  0.074  -0.574269  0.040238  1.320816  0.06  -0.27852  -0.523207  0.066517  1.37297  0.082
Cl  Cl52  1  0.95812208  0.03047784  0.15666332  1  -0.52354  0.11386  0.961246  0.139  -0.531636  0.069346  1.255792  0.092  -0.566286  0.049941  1.22903  0.073  -0.288169  -0.512607  0.081026  1.275296  0.1
Cl  Cl53  1  0.54187886  0.96952101  0.65666498  1  -0.523549  0.113852  0.96123  0.139  -0.531635  0.069344  1.255777  0.092  -0.56628  0.04994  1.229012  0.073  -0.28817  -0.512604  0.081023  1.275288  0.1
Cl  Cl54  1  0.04187645  0.96952034  0.84333740  1  -0.523526  0.11386  0.961259  0.139  -0.53161  0.069346  1.255792  0.092  -0.56626  0.049941  1.229028  0.073  -0.288157  -0.512584  0.081027  1.275299  0.1
Cl  Cl55  1  0.45812257  0.03047718  0.34333656  1  -0.523553  0.113854  0.96125  0.139  -0.531635  0.069343  1.255787  0.092  -0.566281  0.04994  1.229024  0.073  -0.288176  -0.512606  0.081021  1.275295  0.1
O  O56  1  0.04521174  0.21459847  0.38158546  1  -0.618098  0.059944  2.20014  0.083  -0.58087  0.042964  2.487694  0.064  -0.6291  0.031889  2.483557  0.052  -0.321175  -0.550117  0.050462  2.491422  0.071
O  O57  1  0.45477779  0.78539509  0.88158392  1  -0.618112  0.059957  2.199954  0.083  -0.580932  0.042969  2.487569  0.064  -0.629163  0.031892  2.483421  0.052  -0.321202  -0.550176  0.05047  2.491295  0.071
O  O58  1  0.95478546  0.78540098  0.61841443  1  -0.617978  0.059935  2.200257  0.083  -0.580741  0.042959  2.487855  0.064  -0.62897  0.031885  2.483713  0.052  -0.321129  -0.54999  0.050457  2.491585  0.071
O  O59  1  0.54522486  0.21460055  0.11841597  1  -0.618094  0.059961  2.199874  0.083  -0.580855  0.042973  2.487476  0.064  -0.629087  0.031895  2.48333  0.052  -0.321193  -0.550097  0.050475  2.491198  0.071
O  O60  1  0.75108483  0.31373705  0.41845406  1  -0.603348  0.085386  2.098295  0.116  -0.57678  0.057465  2.386567  0.084  -0.623995  0.042225  2.37955  0.067  -0.328458  -0.546861  0.066888  2.391932  0.093
O  O61  1  0.74890764  0.68626652  0.91845085  1  -0.603365  0.085366  2.098623  0.116  -0.576784  0.057457  2.3869  0.084  -0.623999  0.042219  2.379881  0.067  -0.32844  -0.546868  0.06688  2.392266  0.093
O  O62  1  0.24892043  0.68627142  0.58154830  1  -0.603495  0.085397  2.098163  0.116  -0.576893  0.057471  2.386462  0.084  -0.624111  0.042229  2.379442  0.067  -0.328481  -0.546973  0.066897  2.39183  0.093
O  O63  1  0.25109211  0.31372910  0.08154986  1  -0.603376  0.085361  2.098613  0.116  -0.576756  0.057455  2.386878  0.084  -0.623969  0.042217  2.379856  0.067  -0.328399  -0.54684  0.066879  2.392243  0.093
