# generated using pymatgen
data_Zn4H18C30S2O19
_symmetry_space_group_name_H-M   'P 1'
_cell_length_a   18.00693870
_cell_length_b   18.18764571
_cell_length_c   18.27035792
_cell_angle_alpha   60.83884395
_cell_angle_beta   60.92401106
_cell_angle_gamma   60.39211560
_symmetry_Int_Tables_number   1
_chemical_formula_structural   Zn4H18C30S2O19
_chemical_formula_sum   'Zn8 H36 C60 S4 O38'
_cell_volume   4299.43241552
_cell_formula_units_Z   2
loop_
 _symmetry_equiv_pos_site_id
 _symmetry_equiv_pos_as_xyz
  1  'x, y, z'
loop_
 _atom_site_type_symbol
 _atom_site_label
 _atom_site_symmetry_multiplicity
 _atom_site_fract_x
 _atom_site_fract_y
 _atom_site_fract_z
 _atom_site_occupancy
 _atom_site_pbe_bader_charge
 _atom_site_pbe_bader_spin_density
 _atom_site_pbe_cm5_charge
 _atom_site_pbe_ddec_charge
 _atom_site_pbe_ddec_spin_density
 _atom_site_pbe_ddec_sum_bond_order
 _atom_site_pbe_magmom
Zn  Zn0  1  0.38284792  0.20413504  0.20517499  1  1.297952  0  0.663187  0.950745  0  2.398924  0
Zn  Zn1  1  0.61835669  0.79392479  0.79503249  1  1.303124  0  0.664054  0.951909  0  2.394833  0
Zn  Zn2  1  0.20769124  0.19998978  0.20980499  1  1.308063  0  0.669988  0.957395  0  2.390797  0
Zn  Zn3  1  0.79522935  0.79596522  0.79138040  1  1.309175  0  0.669229  0.957398  0  2.388846  0
Zn  Zn4  1  0.20914518  0.38089909  0.20707714  1  1.299128  0  0.667419  0.960698  0  2.37299  0
Zn  Zn5  1  0.79120773  0.61674597  0.79426289  1  1.306351  0  0.667352  0.959646  0  2.370041  0
Zn  Zn6  1  0.20584015  0.20848109  0.38116721  1  1.30349  0  0.66314  0.954058  0  2.387327  0
Zn  Zn7  1  0.79479855  0.79122879  0.61974819  1  1.288903  0  0.662767  0.953844  0  2.384018  0
H  H8  1  0.59725886  0.07342900  0.47415051  1  0.064825  0  0.100182  0.085119  0  0.991973  0
H  H9  1  0.53138858  0.14124228  0.92576290  1  0.05783  0  0.101851  0.088298  0  0.989466  0
H  H10  1  0.34262774  0.03261974  0.02272457  1  0.092122  0  0.103672  0.0967  0  0.985479  0
H  H11  1  0.65958254  0.96790351  0.97460386  1  0.063513  0  0.101344  0.092691  0  0.989946  0
H  H12  1  0.47571209  0.07419980  0.85553445  1  0.051619  0  0.101707  0.087193  0  0.989063  0
H  H13  1  0.52649804  0.92603572  0.14216394  1  0.050448  0  0.099667  0.085341  0  0.991783  0
H  H14  1  0.40476156  0.14158156  0.52925321  1  0.071436  0  0.100479  0.085893  0  0.992019  0
H  H15  1  0.59575334  0.85643852  0.47154085  1  0.057125  0  0.098565  0.083505  0  0.994131  0
H  H16  1  0.40222715  0.97022469  0.65589468  1  0.087647  0  0.101842  0.092038  0  0.988952  0
H  H17  1  0.59819779  0.02809498  0.34500547  1  0.070224  0  0.100782  0.090564  0  0.991351  0
H  H18  1  0.60098394  0.47000139  0.07438304  1  0.067881  0  0.0995  0.0921  0  0.993411  0
H  H19  1  0.40307658  0.92458728  0.52696784  1  0.055801  0  0.099848  0.085623  0  0.992187  0
H  H20  1  0.39893691  0.52838225  0.93042269  1  0.077878  0  0.102446  0.097474  0  0.991394  0
H  H21  1  0.60043891  0.34240364  0.02733896  1  0.08598  0  0.100344  0.089578  0  0.991052  0
H  H22  1  0.39947903  0.65607746  0.97700823  1  0.065876  0  0.101089  0.090687  0  0.989039  0
H  H23  1  0.59145641  0.47340951  0.85948523  1  0.067988  0  0.099588  0.083878  0  0.992867  0
H  H24  1  0.40846474  0.52532053  0.14509301  1  0.076031  0  0.098879  0.084068  0  0.993808  0
H  H25  1  0.97268829  0.39996107  0.65425983  1  0.086344  0  0.102279  0.092637  0  0.988682  0
H  H26  1  0.02656481  0.60038113  0.34527241  1  0.067233  0  0.098097  0.0862  0  0.995015  0
H  H27  1  0.14566948  0.92377168  0.52733531  1  0.069975  0  0.100487  0.085495  0  0.992074  0
H  H28  1  0.85456050  0.07627223  0.47473077  1  0.077191  0  0.099797  0.085521  0  0.99248  0
H  H29  1  0.91313915  0.35238680  0.99790930  1  0.652661  0  0.322361  0.395178  0  0.9125  0
H  H30  1  0.07550325  0.85957794  0.46814222  1  0.042406  0  0.100205  0.085518  0  0.991828  0
H  H31  1  0.97842933  0.69133330  0.07781344  1  0.638143  0  0.36436  0.411259  0  0.82221  0
H  H32  1  0.88684199  0.33532312  0.17553552  1  0.670464  0  0.319259  0.393106  0  0.921292  0
H  H33  1  0.12621284  0.65616133  0.81817566  1  0.667859  0  0.322617  0.393108  0  0.910348  0
H  H34  1  0.85451503  0.59526276  0.47335981  1  0.059598  0  0.099391  0.084318  0  0.993528  0
H  H35  1  0.14470495  0.40494755  0.52651382  1  0.071577  0  0.101057  0.087732  0  0.989714  0
H  H36  1  0.92466054  0.40469757  0.52458825  1  0.062992  0  0.100361  0.085609  0  0.992407  0
H  H37  1  0.07475197  0.59577646  0.47468276  1  0.055896  0  0.100371  0.086816  0  0.991605  0
H  H38  1  0.92457118  0.14034041  0.53445875  1  0.075147  0  0.099512  0.085569  0  0.99235  0
H  H39  1  0.97419156  0.96632213  0.65759379  1  0.085775  0  0.10236  0.094663  0  0.98695  0
H  H40  1  0.02637816  0.03338779  0.34466894  1  0.067374  0  0.102278  0.094035  0  0.98824  0
H  H41  1  0.07882285  0.46455470  0.85852347  1  0.142886  0  0.133334  0.148599  0  0.93132  0
H  H42  1  0.92980504  0.52780503  0.13770150  1  0.141293  0  0.127237  0.135883  0  0.94364  0
H  H43  1  0.47053335  0.85905394  0.07186795  1  0.081745  0  0.100779  0.087508  0  0.990608  0
C  C44  1  0.10939686  0.11022694  0.39115087  1  1.554322  0  0.225885  0.606667  0  4.175142  0
C  C45  1  0.45111180  0.44329792  0.05442434  1  0.041257  0  -0.00812  -0.03305  0  3.649071  0
C  C46  1  0.55013024  0.48396780  0.92370111  1  -0.034404  0  -0.069269  -0.059228  0  3.625105  0
C  C47  1  0.44979308  0.51456121  0.08097300  1  -0.023253  0  -0.071169  -0.061678  0  3.631686  0
C  C48  1  0.95724699  0.44772349  0.51441185  1  -0.055045  0  -0.070433  -0.060752  0  3.624666  0
C  C49  1  0.04215828  0.55265236  0.48509694  1  0.0092  0  -0.071167  -0.062193  0  3.627489  0
C  C50  1  0.91976128  0.55240938  0.48417188  1  0.00591  0  -0.071111  -0.062415  0  3.630069  0
C  C51  1  0.07963440  0.44788848  0.51541159  1  -0.054309  0  -0.07127  -0.061828  0  3.626352  0
C  C52  1  0.94738245  0.54829735  0.55641028  1  0.016407  0  -0.009125  -0.033067  0  3.647824  0
C  C53  1  0.05241814  0.45201337  0.44312798  1  0.02585  0  -0.009344  -0.034301  0  3.649059  0
C  C54  1  0.98510557  0.44395394  0.58543645  1  -0.026741  0  -0.076735  -0.066537  0  3.641452  0
C  C55  1  0.89117748  0.88936722  0.61090693  1  1.514496  0  0.225665  0.605271  0  4.180576  0
C  C56  1  0.01424461  0.55636801  0.41411309  1  -0.020848  0  -0.078995  -0.068671  0  3.651256  0
C  C57  1  0.08034443  0.95691745  0.51641134  1  -0.002792  0  -0.068676  -0.059549  0  3.619741  0
C  C58  1  0.91978908  0.04310461  0.48584719  1  -0.036678  0  -0.071159  -0.063258  0  3.62728  0
C  C59  1  0.39344287  0.38644100  0.11142832  1  1.527669  0  0.228449  0.61093  0  4.170058  0
C  C60  1  0.60685867  0.61180270  0.89243589  1  1.549943  0  0.227227  0.608299  0  4.172118  0
C  C61  1  0.04274066  0.92260512  0.48205142  1  -0.034697  0  -0.070803  -0.061206  0  3.624978  0
C  C62  1  0.95740341  0.07746996  0.52026300  1  -0.04346  0  -0.072623  -0.06326  0  3.63234  0
C  C63  1  0.94805125  0.94713075  0.55475456  1  0.046039  0  -0.007845  -0.031395  0  3.649795  0
C  C64  1  0.05168725  0.05330326  0.44756921  1  -0.029228  0  -0.008501  -0.033635  0  3.651941  0
C  C65  1  0.98610576  0.98189571  0.58779727  1  -0.024442  0  -0.077796  -0.068611  0  3.641607  0
C  C66  1  0.44514250  0.98336398  0.58660340  1  -0.055163  0  -0.077565  -0.06777  0  3.644833  0
C  C67  1  0.01408963  0.01808952  0.41449510  1  -0.004974  0  -0.077269  -0.066449  0  3.642144  0
C  C68  1  0.01841758  0.40980963  0.01441546  1  -0.125268  0  0.000493  -0.112227  0  3.641174  0
C  C69  1  0.99029928  0.58318264  0.98140223  1  -0.089735  0  0.001745  -0.107801  0  3.636601  0
C  C70  1  0.04519177  0.47869864  0.92085998  1  0.002675  0  -0.051803  -0.060826  0  3.592756  0
C  C71  1  0.96313903  0.51434417  0.07497522  1  -0.015864  0  -0.053248  -0.061043  0  3.606767  0
C  C72  1  0.95117287  0.55262671  0.94442663  1  0.038878  0  0.017115  -0.00168  0  3.585434  0
C  C73  1  0.05734616  0.44050190  0.05120511  1  0.058644  0  0.017565  0.000826  0  3.582609  0
C  C74  1  0.92375354  0.48352226  0.03946564  1  -0.114454  0  0.002054  -0.113608  0  3.649671  0
C  C75  1  0.08489199  0.50958912  0.95611171  1  -0.086325  0  0.006621  -0.095524  0  3.611006  0
C  C76  1  0.41322242  0.01756255  0.01190484  1  -0.032578  0  -0.07568  -0.068664  0  3.63702  0
C  C77  1  0.55533527  0.01466866  0.41431703  1  -0.046164  0  -0.078585  -0.069126  0  3.649884  0
C  C78  1  0.58898083  0.98265141  0.98574235  1  -0.010589  0  -0.077125  -0.068294  0  3.643872  0
C  C79  1  0.48322095  0.92241161  0.04012026  1  -0.035984  0  -0.070432  -0.062208  0  3.628346  0
C  C80  1  0.51893028  0.07775720  0.95758595  1  -0.017174  0  -0.069185  -0.061089  0  3.62378  0
C  C81  1  0.55745816  0.94630692  0.94784528  1  0.036981  0  -0.008312  -0.032753  0  3.65191  0
C  C82  1  0.44482910  0.05351662  0.05013244  1  0.011906  0  -0.007561  -0.029015  0  3.649142  0
C  C83  1  0.38771805  0.11021620  0.10787728  1  1.548927  0  0.227359  0.606129  0  4.179033  0
C  C84  1  0.61468022  0.88843896  0.89124214  1  1.506769  0  0.227342  0.607258  0  4.174897  0
C  C85  1  0.48616266  0.04203737  0.91990812  1  -0.017406  0  -0.068339  -0.058112  0  3.620988  0
C  C86  1  0.51610055  0.95806686  0.07777730  1  -0.017858  0  -0.071439  -0.062687  0  3.630206  0
C  C87  1  0.10979013  0.39478511  0.38570880  1  1.522927  0  0.224656  0.606538  0  4.176662  0
C  C88  1  0.55633760  0.41227683  0.01595137  1  -0.061525  0  -0.077883  -0.067877  0  3.645487  0
C  C89  1  0.88986451  0.60533734  0.61402423  1  1.537025  0  0.22583  0.607906  0  4.176523  0
C  C90  1  0.11220428  0.38353338  0.11280991  1  1.631982  0  0.227325  0.599001  0  4.197512  0
C  C91  1  0.89391786  0.61029607  0.88492727  1  1.619625  0  0.227538  0.599193  0  4.20019  0
C  C92  1  0.39167316  0.10940827  0.38825969  1  1.518734  0  0.226017  0.606809  0  4.177987  0
C  C93  1  0.60894008  0.88873404  0.61255507  1  1.539002  0  0.224869  0.605581  0  4.181198  0
C  C94  1  0.44784182  0.07757004  0.51724845  1  -0.065193  0  -0.070516  -0.060703  0  3.625778  0
C  C95  1  0.55265981  0.92040362  0.48365423  1  -0.049791  0  -0.072427  -0.061845  0  3.632171  0
C  C96  1  0.55355250  0.04105771  0.48507806  1  0.0055  0  -0.070004  -0.060409  0  3.624572  0
C  C97  1  0.44687459  0.95694571  0.51586939  1  0.008347  0  -0.070993  -0.061994  0  3.627783  0
C  C98  1  0.55046710  0.94612780  0.55570389  1  0.042509  0  -0.008127  -0.032664  0  3.653541  0
C  C99  1  0.44364664  0.58623906  0.98864362  1  -0.021863  0  -0.076888  -0.067485  0  3.642105  0
C  C100  1  0.45004131  0.05157157  0.44519752  1  0.049269  0  -0.008575  -0.033191  0  3.653522  0
C  C101  1  0.55549952  0.48222195  0.04314340  1  -0.032386  0  -0.071526  -0.06334  0  3.619855  0
C  C102  1  0.44451581  0.51629727  0.96147145  1  -0.004752  0  -0.068147  -0.05877  0  3.604861  0
C  C103  1  0.54889868  0.55524927  0.95054864  1  0.011674  0  -0.008474  -0.032486  0  3.649254  0
S  S104  1  0.03066122  0.29932788  0.03371354  1  3.145799  0  0.548254  1.157841  0  6.021735  0
S  S105  1  0.97239306  0.69533143  0.96222841  1  3.100213  0  0.550642  1.155409  0  5.994466  0
S  S106  1  0.81996754  0.46251149  0.09838370  1  3.132079  0  0.544204  1.149411  0  6.048799  0
S  S107  1  0.19177833  0.52513476  0.89318343  1  3.140429  0  0.532173  1.135915  0  6.076411  0
O  O108  1  0.24971334  0.24991860  0.25058489  1  -1.198165  0  -0.5715  -1.033306  0  2.54228  0
O  O109  1  0.69210333  0.56987258  0.87394818  1  -1.177931  0  -0.321551  -0.552229  0  2.32041  0
O  O110  1  0.12356038  0.14206666  0.43019453  1  -1.161523  0  -0.320146  -0.552356  0  2.311103  0
O  O111  1  0.86625388  0.86857613  0.57090069  1  -1.169795  0  -0.319857  -0.552538  0  2.315678  0
O  O112  1  0.43233701  0.30204210  0.12801445  1  -1.176683  0  -0.315919  -0.5475  0  2.328951  0
O  O113  1  0.56802968  0.69629925  0.86499787  1  -1.167946  0  -0.315246  -0.547374  0  2.325217  0
O  O114  1  0.30226232  0.13568802  0.12737631  1  -1.160513  0  -0.313408  -0.539683  0  2.330247  0
O  O115  1  0.70016688  0.86882403  0.86595913  1  -1.150066  0  -0.315554  -0.543658  0  2.325132  0
O  O116  1  0.12534274  0.43365911  0.30212961  1  -1.162664  0  -0.321426  -0.55562  0  2.316706  0
O  O117  1  0.86363987  0.56583417  0.69758883  1  -1.175713  0  -0.318761  -0.551268  0  2.322424  0
O  O118  1  0.12513256  0.30061996  0.14250050  1  -1.161672  0  -0.296474  -0.517117  0  2.353434  0
O  O119  1  0.75163403  0.74769027  0.75049111  1  -1.199206  0  -0.571377  -1.032551  0  2.537666  0
O  O120  1  0.87483596  0.69373623  0.86139265  1  -1.16815  0  -0.295074  -0.516284  0  2.366943  0
O  O121  1  0.30656191  0.13017726  0.42873449  1  -1.160719  0  -0.32138  -0.553051  0  2.31893  0
O  O122  1  0.69371784  0.86032157  0.57232459  1  -1.178682  0  -0.321424  -0.553965  0  2.318502  0
O  O123  1  0.13695458  0.42671146  0.12912745  1  -1.158331  0  -0.302594  -0.520677  0  2.32385  0
O  O124  1  0.87240076  0.56735278  0.86489610  1  -1.146734  0  -0.303423  -0.522233  0  2.313783  0
O  O125  1  0.43100629  0.13339363  0.30461816  1  -1.172573  0  -0.317461  -0.548763  0  2.326837  0
O  O126  1  0.57011617  0.87290890  0.69598312  1  -1.170409  0  -0.316442  -0.54739  0  2.32878  0
O  O127  1  0.12268325  0.24920381  0.99875525  1  -1.27513  0  -0.283455  -0.46685  0  2.099419  0
O  O128  1  0.97886418  0.26522478  0.12615374  1  -1.307364  0  -0.309421  -0.549473  0  2.178196  0
O  O129  1  0.97924659  0.31999353  0.97236169  1  -1.216591  0  -0.348837  -0.511497  0  2.158631  0
O  O130  1  0.42935571  0.12790574  0.13417536  1  -1.17726  0  -0.320625  -0.554394  0  2.322442  0
O  O131  1  0.02568363  0.73025446  0.87204914  1  -1.294269  0  -0.289992  -0.509393  0  2.162125  0
O  O132  1  0.87822527  0.74178590  0.99730497  1  -1.280508  0  -0.296171  -0.502514  0  2.106912  0
O  O133  1  0.02376511  0.67932360  0.02298249  1  -1.176738  0  -0.343047  -0.507529  0  2.154228  0
O  O134  1  0.74824401  0.54103538  0.11659852  1  -1.280612  0  -0.296596  -0.483288  0  2.081155  0
O  O135  1  0.81453918  0.41920866  0.05290827  1  -1.295781  0  -0.300516  -0.540492  0  2.189526  0
O  O136  1  0.83749406  0.39191725  0.18846728  1  -1.244214  0  -0.350886  -0.512871  0  2.154036  0
O  O137  1  0.20972102  0.56186728  0.93435766  1  -1.274977  0  -0.300814  -0.509146  0  2.154355  0
O  O138  1  0.25409235  0.44515434  0.87117796  1  -1.288867  0  -0.308034  -0.498495  0  2.081317  0
O  O139  1  0.16937827  0.59923582  0.80487665  1  -1.232699  0  -0.360399  -0.524007  0  2.141768  0
O  O140  1  0.57308708  0.86351168  0.87212101  1  -1.17839  0  -0.319602  -0.552316  0  2.32447  0
O  O141  1  0.13855166  0.31083430  0.42555542  1  -1.180233  0  -0.318499  -0.550822  0  2.319598  0
O  O142  1  0.87163675  0.68956546  0.57428226  1  -1.175635  0  -0.319554  -0.552794  0  2.3206  0
O  O143  1  0.14041959  0.12206321  0.30817677  1  -1.164644  0  -0.317113  -0.548297  0  2.332701  0
O  O144  1  0.87205533  0.86533807  0.69459517  1  -1.174105  0  -0.316619  -0.546287  0  2.335471  0
O  O145  1  0.30860016  0.42786898  0.13939613  1  -1.171523  0  -0.320659  -0.551878  0  2.3172  0
