# generated using pymatgen
data_Zn4H70C93(N8O)2
_symmetry_space_group_name_H-M   'P 1'
_cell_length_a   18.89790093
_cell_length_b   19.02287434
_cell_length_c   20.41682126
_cell_angle_alpha   106.20141586
_cell_angle_beta   107.13747214
_cell_angle_gamma   111.81102898
_symmetry_Int_Tables_number   1
_chemical_formula_structural   Zn4H70C93(N8O)2
_chemical_formula_sum   'Zn4 H70 C93 N16 O2'
_cell_volume   5854.21328360
_cell_formula_units_Z   1
loop_
 _symmetry_equiv_pos_site_id
 _symmetry_equiv_pos_as_xyz
  1  'x, y, z'
loop_
 _atom_site_type_symbol
 _atom_site_label
 _atom_site_symmetry_multiplicity
 _atom_site_fract_x
 _atom_site_fract_y
 _atom_site_fract_z
 _atom_site_occupancy
 _atom_site_pbe_bader_charge
 _atom_site_pbe_bader_spin_density
 _atom_site_pbe_cm5_charge
 _atom_site_pbe_ddec_charge
 _atom_site_pbe_ddec_spin_density
 _atom_site_pbe_ddec_sum_bond_order
 _atom_site_pbe_magmom
Zn  Zn0  1  0.89339685  0.89950574  0.51354812  1  1.184376  0  0.738075  0.599672  0  2.499022  0
Zn  Zn1  1  0.09937835  0.09768126  0.49210044  1  1.188156  0  0.736232  0.620398  0  2.394913  0
Zn  Zn2  1  0.10093570  0.00032493  0.60278365  1  1.183935  0  0.741367  0.601059  0  2.494617  0
Zn  Zn3  1  0.89169823  0.99199546  0.40163438  1  1.180992  0  0.738833  0.599545  0  2.495933  0
H  H4  1  0.85523301  0.02539673  0.62048655  1  0.116586  0  0.115838  0.104468  0  1.00366  0
H  H5  1  0.44991783  0.96737135  0.27917627  1  0.027733  0  0.097742  0.098761  0  1.000216  0
H  H6  1  0.56511278  0.93729910  0.32997767  1  0.031642  0  0.094987  0.09642  0  1.021861  0
H  H7  1  0.53376259  0.76724293  0.43521814  1  0.045851  0  0.09473  0.097424  0  1.037157  0
H  H8  1  0.40337914  0.70708572  0.45269526  1  0.043095  0  0.097236  0.098997  0  1.000592  0
H  H9  1  0.27476526  0.71050005  0.45444905  1  0.054166  0  0.099668  0.101703  0  0.996227  0
H  H10  1  0.86020793  0.61478358  0.52353133  1  0.038886  0  0.093558  0.092076  0  1.040986  0
H  H11  1  0.10234906  0.75022125  0.72333485  1  0.038241  0  0.097115  0.100576  0  1.023018  0
H  H12  1  0.16252857  0.67151404  0.77688210  1  0.061533  0  0.098193  0.099937  0  0.997686  0
H  H13  1  0.15660737  0.53639280  0.76480970  1  0.066367  0  0.099735  0.101345  0  0.995994  0
H  H14  1  0.08900666  0.38244683  0.68968120  1  0.067963  0  0.100992  0.106725  0  1.009604  0
H  H15  1  0.12711487  0.98299107  0.36517392  1  0.091438  0  0.115333  0.102492  0  1.007256  0
H  H16  1  0.30142140  0.12883111  0.73997056  1  0.103856  0  0.115343  0.102163  0  1.004011  0
H  H17  1  0.85101829  0.24944139  0.48688715  1  0.048115  0  0.095893  0.097139  0  1.034169  0
H  H18  1  0.77782001  0.46008736  0.46595614  1  0.035229  0  0.093884  0.095584  0  1.028453  0
H  H19  1  0.89821452  0.75546426  0.17892526  1  0.06922  0  0.099434  0.099539  0  1.000464  0
H  H20  1  0.45896031  0.20259863  0.78478268  1  0.024352  0  0.096226  0.094613  0  1.00672  0
H  H21  1  0.41785055  0.39033795  0.72786056  1  0.050449  0  0.096642  0.096486  0  1.004805  0
H  H22  1  0.68406718  0.54771542  0.94738268  1  0.055704  0  0.097254  0.096331  0  1.006586  0
H  H23  1  0.70087918  0.47262230  0.14039462  1  0.058505  0  0.097237  0.101124  0  1.04593  0
H  H24  1  0.59707544  0.31354514  0.89320711  1  0.040466  0  0.09898  0.097863  0  1.004214  0
H  H25  1  0.68200902  0.93680434  0.32878165  1  0.066912  0  0.112701  0.097884  0  1.012534  0
H  H26  1  0.13808881  0.17108638  0.36501640  1  0.055631  0  0.11297  0.100058  0  1.006941  0
H  H27  1  0.65984382  0.41523618  0.00968054  1  0.016444  0  0.095364  0.092935  0  1.0081  0
H  H28  1  0.81944502  0.63660834  0.05078531  1  0.053881  0  0.097606  0.100974  0  1.007009  0
H  H29  1  0.55734659  0.50157421  0.83539818  1  0.03553  0  0.097644  0.096104  0  0.999982  0
H  H30  1  0.12268852  0.24283887  0.84963797  1  0.01965  0  0.094827  0.09756  0  1.011757  0
H  H31  1  0.87448782  0.07144400  0.14681809  1  0.03918  0  0.094371  0.092429  0  1.036499  0
H  H32  1  0.13724364  0.25712310  0.30175001  1  0.023885  0  0.094453  0.09254  0  1.01087  0
H  H33  1  0.09713077  0.27778637  0.07151289  1  0.051646  0  0.09375  0.091627  0  1.012546  0
H  H34  1  0.88560984  0.12199733  0.05163046  1  0.0404  0  0.098321  0.097978  0  1.011215  0
H  H35  1  0.84920970  0.09104838  0.72707019  1  0.06001  0  0.097038  0.101687  0  1.054872  0
H  H36  1  0.30219945  0.26006844  0.59788434  1  0.079786  0  0.116181  0.102755  0  1.003808  0
H  H37  1  0.85347013  0.73893515  0.55832079  1  0.044542  0  0.114777  0.101865  0  1.003959  0
H  H38  1  0.90184029  0.17505174  0.97918890  1  0.094238  0  0.097378  0.094144  0  1.03998  0
H  H39  1  0.11252812  0.28294042  0.97000109  1  0.069887  0  0.099851  0.099308  0  1.001312  0
H  H40  1  0.14922948  0.30619880  0.20415586  1  0.04044  0  0.095976  0.094714  0  1.002533  0
H  H41  1  0.84575289  0.12092566  0.49603042  1  0.072407  0  0.114635  0.103715  0  1.003245  0
H  H42  1  0.13134999  0.16154985  0.74238785  1  0.10273  0  0.115847  0.102799  0  1.003831  0
H  H43  1  0.87877708  0.72586703  0.40118578  1  0.116511  0  0.114636  0.104063  0  1.022912  0
H  H44  1  0.17979318  0.89347730  0.73764335  1  0.019546  0  0.097145  0.135204  0  0.98477  0
H  H45  1  0.16583609  0.81837304  0.65367583  1  0.049545  0  0.099149  0.140191  0  0.98872  0
H  H46  1  0.19315019  0.92270351  0.66489191  1  0.036413  0  0.092066  0.122905  0  1.012646  0
H  H47  1  0.82297670  0.08544898  0.23663659  1  0.048439  0  0.100104  0.141063  0  0.985712  0
H  H48  1  0.88782853  0.86058320  0.26131325  1  0.095119  0  0.116254  0.104292  0  1.002132  0
H  H49  1  0.80971550  0.98415879  0.19103589  1  0.04554  0  0.096992  0.134241  0  0.987269  0
H  H50  1  0.80075867  0.01332287  0.27734815  1  0.019269  0  0.09058  0.121248  0  1.016817  0
H  H51  1  0.14764862  0.35633868  0.60969019  1  0.054758  0  0.096413  0.137432  0  1.005697  0
H  H52  1  0.18032261  0.30601654  0.66427214  1  0.066097  0  0.095211  0.135711  0  0.98709  0
H  H53  1  0.17916360  0.28286283  0.57363108  1  0.021728  0  0.08853  0.118905  0  1.022852  0
H  H54  1  0.70049459  0.31437879  0.40276788  1  0.037268  0  0.090601  0.124504  0  1.001095  0
H  H55  1  0.76584686  0.26878456  0.39293051  1  0.025004  0  0.091713  0.124838  0  0.995331  0
H  H56  1  0.72067254  0.25887541  0.45670878  1  0.03911  0  0.093216  0.128526  0  0.990336  0
H  H57  1  0.73144154  0.46581073  0.25261952  1  0.036026  0  0.099607  0.058521  0  0.961703  0
H  H58  1  0.65410774  0.49869588  0.22862189  1  0.019007  0  0.099987  0.05762  0  0.966427  0
H  H59  1  0.13112788  0.85401324  0.50992878  1  0.07872  0  0.115144  0.103596  0  1.007273  0
H  H60  1  0.69834730  0.57737441  0.36815300  1  0.039815  0  0.092191  0.125077  0  0.995635  0
H  H61  1  0.66535789  0.46879169  0.34266163  1  0.046884  0  0.093252  0.124144  0  0.997708  0
H  H62  1  0.77592247  0.54484382  0.39182376  1  0.056776  0  0.09198  0.125577  0  1.016064  0
H  H63  1  0.75880077  0.01246879  0.75805603  1  0.046604  0  0.097676  0.053596  0  0.972155  0
H  H64  1  0.73473466  0.09102240  0.74356328  1  0.031183  0  0.100063  0.058284  0  0.959037  0
H  H65  1  0.66801656  0.08756554  0.83386478  1  0.041303  0  0.094742  0.128692  0  0.990645  0
H  H66  1  0.61802372  0.98602214  0.75675426  1  0.009197  0  0.09417  0.124725  0  0.996204  0
H  H67  1  0.69237254  0.00938480  0.84799529  1  0.041597  0  0.093061  0.125077  0  0.99596  0
H  H68  1  0.66393496  0.84962179  0.54202841  1  0.041987  0  0.097841  0.138129  0  0.990323  0
H  H69  1  0.65593705  0.75670614  0.48166768  1  0.019511  0  0.095739  0.133471  0  0.987233  0
H  H70  1  0.18620627  0.78058845  0.44336922  1  0.062644  0  0.09849  0.102022  0  1.0068  0
H  H71  1  0.75744906  0.84223793  0.55308169  1  0.025164  0  0.093354  0.125548  0  1.011715  0
H  H72  1  0.21618721  0.94451047  0.33190594  1  0.028937  0  0.097862  0.099939  0  1.014253  0
H  H73  1  0.31960586  0.96889282  0.27889359  1  0.056598  0  0.099368  0.100629  0  0.997134  0
C  C74  1  0.92347001  0.05052437  0.64107948  1  0.388836  0  0.007172  -0.044947  0  3.958134  0
C  C75  1  0.92156811  0.78078395  0.58205251  1  0.437659  0  0.003332  -0.056087  0  4.039257  0
C  C76  1  0.88982136  0.83946872  0.30572978  1  0.39123  0  0.007642  -0.04997  0  3.968456  0
C  C77  1  0.05503837  0.22764034  0.56851297  1  0.419911  0  0.091262  0.214258  0  3.955757  0
C  C78  1  0.12471563  0.89221728  0.48021212  1  0.382923  0  0.0079  -0.048598  0  3.959972  0
C  C79  1  0.87371408  0.75983782  0.30285002  1  0.03777  0  -0.036216  -0.026428  0  4.067396  0
C  C80  1  0.14539408  0.89896118  0.42057740  1  0.026957  0  -0.036882  -0.040211  0  4.063631  0
C  C81  1  0.98969135  0.76950810  0.61774633  1  0.000214  0  -0.041311  -0.109167  0  4.059382  0
C  C82  1  0.00100462  0.12437115  0.28735988  1  0.038582  0  -0.042729  -0.113451  0  4.066658  0
C  C83  1  0.21727542  0.81153800  0.41416204  1  -0.056885  0  -0.092899  -0.190033  0  3.929894  0
C  C84  1  0.19566250  0.86750441  0.39236781  1  -0.00404  0  -0.00913  0.095478  0  4.077738  0
C  C85  1  0.97997877  0.23161921  0.56144768  1  -0.005145  0  -0.03831  -0.106421  0  4.039493  0
C  C86  1  0.23337994  0.90248548  0.35105967  1  -0.023422  0  -0.093473  -0.188107  0  3.941553  0
C  C87  1  0.29845211  0.89119926  0.33935449  1  -0.031214  0  -0.011801  0.079739  0  4.066228  0
C  C88  1  0.32639942  0.84156329  0.36904473  1  0.011223  0  -0.002487  -0.003966  0  3.927023  0
C  C89  1  0.28799876  0.14992247  0.69584563  1  0.389074  0  0.002272  -0.064109  0  4.017351  0
C  C90  1  0.28213234  0.79808311  0.40359884  1  -0.000666  0  -0.011296  0.080327  0  4.055851  0
C  C91  1  0.34308980  0.93354755  0.30398935  1  -0.077402  0  -0.094105  -0.135793  0  4.031693  0
C  C92  1  0.41509832  0.93278868  0.30423411  1  0.001631  0  -0.096818  -0.140578  0  4.03485  0
C  C93  1  0.44839693  0.88893171  0.33923876  1  -0.02916  0  -0.013446  0.079817  0  4.069969  0
C  C94  1  0.40083531  0.84020619  0.36874061  1  -0.003899  0  -0.002737  -0.002406  0  3.929057  0
C  C95  1  0.43183082  0.79444626  0.40202234  1  0.008268  0  -0.01268  0.079684  0  4.06344  0
C  C96  1  0.34030960  0.22266631  0.69240852  1  0.017579  0  -0.040517  -0.044576  0  4.110622  0
C  C97  1  0.38184359  0.74498413  0.43002184  1  -0.058517  0  -0.098309  -0.144396  0  4.03308  0
C  C98  1  0.31041596  0.74680818  0.43090070  1  -0.022491  0  -0.09528  -0.137775  0  4.025127  0
C  C99  1  0.52760829  0.89611340  0.34911814  1  -0.043923  0  -0.098062  -0.196204  0  3.949154  0
C  C100  1  0.56169809  0.85591731  0.38641215  1  -0.010228  0  -0.014143  0.101403  0  4.086141  0
C  C101  1  0.69933375  0.91603275  0.37245616  1  0.392419  0  0.002558  -0.056881  0  4.03544  0
C  C102  1  0.51110389  0.80246711  0.40943414  1  -0.060302  0  -0.100189  -0.202218  0  3.944141  0
C  C103  1  0.91045048  0.61492256  0.56704996  1  -0.03425  0  -0.098756  -0.198857  0  3.949649  0
C  C104  1  0.98288855  0.69216595  0.62259689  1  0.005126  0  -0.01437  0.102711  0  4.089002  0
C  C105  1  0.04711429  0.69114922  0.67792668  1  -0.014279  0  -0.098519  -0.201593  0  3.945679  0
C  C106  1  0.04242507  0.61507811  0.67610419  1  -0.068663  0  -0.01266  0.080616  0  4.061658  0
C  C107  1  0.64918295  0.87445764  0.40308343  1  0.032345  0  -0.043546  -0.111953  0  4.055767  0
C  C108  1  0.97045487  0.53715303  0.61707473  1  0.003266  0  -0.003337  -0.007446  0  3.93752  0
C  C109  1  0.90272023  0.53773110  0.56327241  1  -0.028091  0  -0.013982  0.087413  0  4.09129  0
C  C110  1  0.10846159  0.61220191  0.73035101  1  -0.055059  0  -0.097573  -0.142116  0  4.031977  0
C  C111  1  0.10514380  0.53736127  0.72366505  1  -0.048739  0  -0.094437  -0.136992  0  4.02585  0
C  C112  1  0.03607102  0.45871915  0.66180316  1  -0.027805  0  -0.012548  0.078445  0  4.058565  0
C  C113  1  0.28780480  0.21760559  0.62416390  1  0.389877  0  0.003329  -0.061772  0  4.008565  0
C  C114  1  0.96711648  0.45941907  0.60948881  1  0.012843  0  -0.002023  0.000149  0  3.940803  0
C  C115  1  0.89678920  0.38176780  0.54788046  1  -0.044073  0  -0.011211  0.021153  0  4.010473  0
C  C116  1  0.82592591  0.38304086  0.49668320  1  -0.012453  0  -0.011085  0.125164  0  3.984242  0
C  C117  1  0.83051099  0.45881969  0.50525268  1  -0.020047  0  -0.10049  -0.212129  0  3.985022  0
C  C118  1  0.88392031  0.77033431  0.37687597  1  0.423204  0  0.008231  -0.042175  0  3.952296  0
C  C119  1  0.03637008  0.38239018  0.64912978  1  -0.028796  0  -0.092801  -0.194047  0  3.943237  0
C  C120  1  0.97205921  0.30736304  0.58450940  1  -0.016747  0  -0.009603  0.105303  0  4.071603  0
C  C121  1  0.90140515  0.30785282  0.53663768  1  -0.055383  0  -0.095765  -0.188109  0  3.946947  0
C  C122  1  0.84186878  0.68510336  0.23337329  1  0.030017  0  -0.018365  -0.012804  0  4.012578  0
C  C123  1  0.85370666  0.69346101  0.17040070  1  -0.079093  0  -0.096251  -0.119605  0  4.031322  0
C  C124  1  0.80941748  0.62665290  0.09810865  1  -0.030978  0  -0.107832  -0.160668  0  4.020095  0
C  C125  1  0.70587351  0.86317359  0.45676831  1  0.447931  0  0.087488  0.201494  0  3.983355  0
C  C126  1  0.75086245  0.54654508  0.08578415  1  0.028753  0  -0.020392  0.128967  0  4.08297  0
C  C127  1  0.74481836  0.53506635  0.14958215  1  -0.089463  0  -0.117124  -0.281733  0  4.004028  0
C  C128  1  0.78880908  0.60260166  0.22193327  1  0.450845  0  0.079939  0.209358  0  4.051334  0
C  C129  1  0.12343671  0.95838964  0.40680205  1  0.42589  0  0.007739  -0.049044  0  3.963375  0
C  C130  1  0.55755343  0.33104908  0.85787667  1  -0.02128  0  -0.094922  -0.129011  0  3.994466  0
C  C131  1  0.47966798  0.26851960  0.79692865  1  -0.060674  0  -0.099007  -0.139533  0  4.017773  0
C  C132  1  0.45747302  0.37308192  0.76346968  1  -0.035041  0  -0.099662  -0.139529  0  4.014979  0
C  C133  1  0.53593580  0.43574563  0.82422429  1  -0.034672  0  -0.095777  -0.133599  0  3.997895  0
C  C134  1  0.58611578  0.41677537  0.87500999  1  -0.030162  0  -0.018691  0.10482  0  4.059764  0
C  C135  1  0.69004844  0.47727684  0.01062559  1  -0.027295  0  -0.095989  -0.130929  0  4.002233  0
C  C136  1  0.65941780  0.48488842  0.94559150  1  -0.051984  0  -0.098216  -0.143665  0  4.011607  0
C  C137  1  0.91409964  0.14772186  0.51559732  1  0.441409  0  0.004033  -0.052183  0  4.004415  0
C  C138  1  0.42636817  0.28823710  0.74994946  1  0.005311  0  -0.014182  0.08237  0  4.057828  0
C  C139  1  0.98660131  0.15990438  0.77931630  1  0.02056  0  -0.010566  0.115327  0  4.062889  0
C  C140  1  0.06276228  0.84492655  0.63784329  1  0.426816  0  0.087827  0.204728  0  3.986021  0
C  C141  1  0.06006102  0.21850013  0.84863966  1  0.001985  0  -0.110378  -0.169747  0  4.036922  0
C  C142  1  0.05409926  0.24130066  0.91677510  1  -0.147208  0  -0.093021  -0.107399  0  4.017395  0
C  C143  1  0.97569552  0.20775174  0.91998915  1  0.057591  0  -0.028894  0.001723  0  4.034701  0
C  C144  1  0.90113185  0.15714722  0.84879298  1  0.443399  0  0.082769  0.214013  0  4.039558  0
C  C145  1  0.90695927  0.13390374  0.78034769  1  -0.015541  0  -0.120348  -0.288719  0  4.012805  0
C  C146  1  0.94114243  0.15339134  0.10679642  1  -0.022605  0  -0.096228  -0.127796  0  3.992155  0
C  C147  1  0.93473891  0.12452104  0.16123413  1  -0.02269  0  -0.102411  -0.146369  0  4.021197  0
C  C148  1  0.08168544  0.22674099  0.24667379  1  -0.03605  0  -0.101385  -0.141383  0  4.01322  0
C  C149  1  0.06422881  0.12030226  0.70280341  1  0.383281  0  0.008278  -0.044245  0  3.951091  0
C  C150  1  0.08835693  0.25499586  0.19173378  1  -0.042532  0  -0.098147  -0.137836  0  4.006414  0
C  C151  1  0.92913381  0.07133075  0.29275541  1  0.44912  0  0.087763  0.205003  0  3.97853  0
C  C152  1  0.01875704  0.21816124  0.11946867  1  -0.000153  0  -0.019164  0.105019  0  4.056348  0
C  C153  1  0.96745821  0.21004501  0.98882040  1  -0.029663  0  -0.099377  -0.121363  0  4.027078  0
C  C154  1  0.03068626  0.24019040  0.05923332  1  -0.108753  0  -0.102578  -0.148692  0  4.01017  0
C  C155  1  0.00522609  0.15908076  0.23232311  1  -0.058584  0  -0.015359  0.092345  0  4.051378  0
C  C156  1  0.99162208  0.11744527  0.71053995  1  0.009368  0  -0.035907  -0.040535  0  4.053755  0
C  C157  1  0.15502783  0.87123483  0.67548919  1  -0.009332  0  -0.231088  -0.419938  0  3.995673  0
C  C158  1  0.83609696  0.03688975  0.24692365  1  -0.057923  0  -0.230188  -0.418323  0  3.998273  0
C  C159  1  0.14517352  0.29680489  0.60618428  1  -0.04088  0  -0.234618  -0.421637  0  3.995502  0
C  C160  1  0.74918039  0.30212451  0.43403437  1  -0.050759  0  -0.236796  -0.404328  0  4.000971  0
C  C161  1  0.71607936  0.51593561  0.27277783  1  0.458876  0  -0.064006  0.089127  0  3.930444  0
C  C162  1  0.07033315  0.13571453  0.34804728  1  0.419116  0  -0.000259  -0.061355  0  4.045939  0
C  C163  1  0.71391516  0.52764379  0.34848503  1  -0.100021  0  -0.242817  -0.398622  0  3.984115  0
C  C164  1  0.74894643  0.06492952  0.78460619  1  0.434728  0  -0.063282  0.091997  0  3.931014  0
C  C165  1  0.67774498  0.03541702  0.80734874  1  -0.041532  0  -0.242335  -0.397995  0  3.987593  0
C  C166  1  0.69493547  0.82583877  0.51088988  1  -0.017542  0  -0.231322  -0.420658  0  3.994136  0
N  N167  1  0.95369504  0.01621388  0.59729622  1  -0.809549  0  -0.282179  -0.180766  0  3.658651  0
N  N168  1  0.21121269  0.10580264  0.63498617  1  -0.784905  0  -0.272453  -0.17261  0  3.574289  0
N  N169  1  0.77864080  0.92855319  0.40445891  1  -0.792862  0  -0.272449  -0.175052  0  3.576054  0
N  N170  1  0.21084172  0.14769262  0.59000490  1  -0.788349  0  -0.266246  -0.175286  0  3.522661  0
N  N171  1  0.78252241  0.89573518  0.45648315  1  -0.798629  0  -0.272252  -0.229356  0  3.504332  0
N  N172  1  0.94708933  0.09793072  0.49694538  1  -0.809352  0  -0.287672  -0.183805  0  3.666153  0
N  N173  1  0.04005129  0.05893403  0.63496420  1  -0.7712  0  -0.283557  -0.183676  0  3.638285  0
N  N174  1  0.90356939  0.84945810  0.41894181  1  -0.781848  0  -0.282834  -0.179568  0  3.624746  0
N  N175  1  0.09410039  0.98538051  0.45554051  1  -0.80373  0  -0.27953  -0.179296  0  3.633596  0
N  N176  1  0.03812129  0.89570570  0.61496187  1  -0.771969  0  -0.27263  -0.231078  0  3.498847  0
N  N177  1  0.95556398  0.05372974  0.35203269  1  -0.806502  0  -0.271122  -0.229146  0  3.496566  0
N  N178  1  0.04298201  0.09344273  0.38635256  1  -0.788684  0  -0.273164  -0.183074  0  3.566403  0
N  N179  1  0.95063036  0.85599011  0.58048923  1  -0.816306  0  -0.27849  -0.179966  0  3.585454  0
N  N180  1  0.90684618  0.89162126  0.37503513  1  -0.815223  0  -0.289317  -0.184984  0  3.669262  0
N  N181  1  0.09482633  0.94467972  0.50061292  1  -0.761718  0  -0.28203  -0.180511  0  3.62939  0
N  N182  1  0.03328879  0.14673130  0.52930570  1  -0.780776  0  -0.278412  -0.234182  0  3.555712  0
O  O183  1  0.78042595  0.59463714  0.28433871  1  -1.074247  0  -0.179943  -0.202013  0  2.556261  0
O  O184  1  0.82506193  0.12883411  0.85262021  1  -1.076346  0  -0.184197  -0.206118  0  2.55042  0
