# generated using pymatgen
data_Gd3H19C30O23
_symmetry_space_group_name_H-M   'P 1'
_cell_length_a   10.12205989
_cell_length_b   12.19902301
_cell_length_c   14.71304556
_cell_angle_alpha   69.16669873
_cell_angle_beta   84.91488326
_cell_angle_gamma   75.65438497
_symmetry_Int_Tables_number   1
_chemical_formula_structural   Gd3H19C30O23
_chemical_formula_sum   'Gd6 H38 C60 O46'
_cell_volume   1645.02944106
_cell_formula_units_Z   2
loop_
 _symmetry_equiv_pos_site_id
 _symmetry_equiv_pos_as_xyz
  1  'x, y, z'
loop_
 _atom_site_type_symbol
 _atom_site_label
 _atom_site_symmetry_multiplicity
 _atom_site_fract_x
 _atom_site_fract_y
 _atom_site_fract_z
 _atom_site_occupancy
 _atom_site_hle17_bader_spin_density
 _atom_site_hle17_ddec_charge
 _atom_site_hle17_ddec_spin_density
 _atom_site_hle17_ddec_sum_bond_order
 _atom_site_hle17_magmom
 _atom_site_hse06_10hf_bader_spin_density
 _atom_site_hse06_10hf_ddec_charge
 _atom_site_hse06_10hf_ddec_spin_density
 _atom_site_hse06_10hf_ddec_sum_bond_order
 _atom_site_hse06_10hf_magmom
 _atom_site_hse06_bader_spin_density
 _atom_site_hse06_ddec_charge
 _atom_site_hse06_ddec_spin_density
 _atom_site_hse06_ddec_sum_bond_order
 _atom_site_hse06_magmom
 _atom_site_pbe_bader_spin_density
 _atom_site_pbe_cm5_charge
 _atom_site_pbe_ddec_charge
 _atom_site_pbe_ddec_spin_density
 _atom_site_pbe_ddec_sum_bond_order
 _atom_site_pbe_magmom
Gd  Gd0  1  0.24732863  0.48474818  0.90155364  1  0  2.260371  0  1.767021  0  0  2.172419  0  2.125082  0  0  2.218927  0  2.078348  0  0  1.498017  2.133474  0  2.167096  0
Gd  Gd1  1  0.75267162  0.51525286  0.09844555  1  0  2.260375  0  1.766978  0  0  2.172382  0  2.125083  0  0  2.218889  0  2.078354  0  0  1.498042  2.133451  0  2.167096  0
Gd  Gd2  1  0.36092075  0.97930313  0.78436333  1  0  2.207664  0  1.833646  0  0  2.104025  0  2.220296  0  0  2.163806  0  2.155128  0  0  1.49919  2.055386  0  2.276125  0
Gd  Gd3  1  0.63907827  0.02069881  0.21563498  1  0  2.207693  0  1.833556  0  0  2.104037  0  2.220245  0  0  2.163811  0  2.155083  0  0  1.499194  2.055401  0  2.276076  0
Gd  Gd4  1  0.49468514  0.28862887  0.54887430  1  0  2.225139  0  1.800515  0  0  2.138915  0  2.157285  0  0  2.187819  0  2.107667  0  0  1.489494  2.097534  0  2.202542  0
Gd  Gd5  1  0.50531535  0.71137126  0.45112581  1  0  2.225169  0  1.800531  0  0  2.138956  0  2.157272  0  0  2.187847  0  2.107675  0  0  1.48952  2.097588  0  2.202503  0
H  H6  1  0.71879887  0.80013611  0.84748676  1  0  0.123291  0  0.957392  0  0  0.12748  0  1.025949  0  0  0.131912  0  1.022121  0  0  0.11491  0.12422  0  1.028869  0
H  H7  1  0.28120110  0.19986222  0.15251257  1  0  0.123222  0  0.957495  0  0  0.127437  0  1.026024  0  0  0.131866  0  1.0222  0  0  0.114891  0.124176  0  1.028941  0
H  H8  1  0.88795307  0.04650833  0.60669339  1  0  0.108111  0  0.930882  0  0  0.118373  0  0.98895  0  0  0.122084  0  0.98547  0  0  0.113053  0.115609  0  0.99153  0
H  H9  1  0.11204815  0.95348911  0.39330885  1  0  0.108161  0  0.930837  0  0  0.118402  0  0.988926  0  0  0.122115  0  0.985444  0  0  0.113057  0.115638  0  0.991503  0
H  H10  1  0.09640196  0.88918574  0.61604636  1  0  0.120467  0  0.94893  0  0  0.13392  0  1.002499  0  0  0.137449  0  1.000884  0  0  0.1155  0.131404  0  1.003806  0
H  H11  1  0.90360001  0.11081260  0.38395556  1  0  0.120442  0  0.948913  0  0  0.133879  0  1.002501  0  0  0.13741  0  1.000887  0  0  0.115488  0.131363  0  1.003807  0
H  H12  1  0.28239239  0.76968502  0.67839952  1  0  0.117352  0  0.940943  0  0  0.124955  0  1.007311  0  0  0.127563  0  1.005055  0  0  0.126841  0.12285  0  1.009238  0
H  H13  1  0.71760835  0.23031422  0.32160085  1  0  0.117383  0  0.940995  0  0  0.124995  0  1.007358  0  0  0.127604  0  1.005098  0  0  0.126858  0.122893  0  1.00928  0
H  H14  1  0.20284622  0.73034849  0.59414567  1  0  0.09813  0  0.939698  0  0  0.107275  0  1.006242  0  0  0.108546  0  1.005519  0  0  0.121664  0.106306  0  1.006801  0
H  H15  1  0.79715352  0.26965074  0.40585476  1  0  0.098137  0  0.939715  0  0  0.107308  0  1.006238  0  0  0.108579  0  1.005515  0  0  0.121663  0.10634  0  1.006797  0
H  H16  1  0.01195374  0.30016892  0.95639717  1  0  0.124011  0  0.950931  0  0  0.128482  0  1.017974  0  0  0.133286  0  1.013321  0  0  0.11831  0.125085  0  1.021249  0
H  H17  1  0.98804651  0.69983212  0.04360270  1  0  0.124015  0  0.950917  0  0  0.128488  0  1.017962  0  0  0.133293  0  1.013308  0  0  0.118308  0.125092  0  1.021238  0
H  H18  1  0.96045022  0.98046366  0.19023835  1  0  0.106578  0  0.989658  0  0  0.112904  0  1.059052  0  0  0.116741  0  1.055313  0  0  0.112347  0.110245  0  1.061433  0
H  H19  1  0.03955027  0.01953648  0.80976177  1  0  0.106578  0  0.989656  0  0  0.112905  0  1.059049  0  0  0.116743  0  1.055309  0  0  0.11234  0.110247  0  1.061427  0
H  H20  1  0.16644989  0.86315209  0.14065019  1  0  0.113935  0  0.946085  0  0  0.128863  0  0.995154  0  0  0.132099  0  0.994175  0  0  0.113124  0.12653  0  0.996054  0
H  H21  1  0.83355060  0.13684805  0.85935129  1  0  0.113926  0  0.946106  0  0  0.128858  0  0.995172  0  0  0.132094  0  0.994192  0  0  0.113134  0.126526  0  0.996071  0
H  H22  1  0.30001397  0.77477869  0.07430854  1  0  0.101091  0  0.911788  0  0  0.115955  0  0.96405  0  0  0.117616  0  0.962404  0  0  0.123539  0.114884  0  0.965334  0
H  H23  1  0.69998628  0.22522235  0.92568997  1  0  0.101075  0  0.911799  0  0  0.115973  0  0.96401  0  0  0.117634  0  0.962368  0  0  0.123549  0.114905  0  0.965287  0
H  H24  1  0.42191790  0.83746707  0.10763247  1  0  0.130413  0  0.903439  0  0  0.140279  0  0.961246  0  0  0.142908  0  0.959156  0  0  0.129195  0.138426  0  0.962968  0
H  H25  1  0.57808382  0.16253216  0.89236580  1  0  0.130442  0  0.903404  0  0  0.140309  0  0.961197  0  0  0.142946  0  0.959109  0  0  0.129183  0.138451  0  0.962918  0
H  H26  1  0.93493551  0.25161141  0.62549185  1  0  0.119106  0  0.923303  0  0  0.130418  0  0.978688  0  0  0.134219  0  0.975877  0  0  0.115477  0.127548  0  0.980939  0
H  H27  1  0.06506276  0.74838962  0.37450746  1  0  0.119074  0  0.923309  0  0  0.13039  0  0.978689  0  0  0.134191  0  0.975878  0  0  0.115466  0.12752  0  0.980942  0
H  H28  1  0.88868815  0.53365993  0.34498859  1  0  0.116281  0  0.918374  0  0  0.126117  0  0.976152  0  0  0.129945  0  0.973237  0  0  0.118463  0.123399  0  0.978323  0
H  H29  1  0.11130988  0.46634200  0.65501047  1  0  0.116321  0  0.918357  0  0  0.126134  0  0.97616  0  0  0.129971  0  0.973232  0  0  0.118482  0.123414  0  0.978331  0
H  H30  1  0.13595159  0.46453461  0.31084794  1  0  0.124577  0  0.912141  0  0  0.139996  0  0.959191  0  0  0.143413  0  0.958263  0  0  0.117025  0.137581  0  0.960133  0
H  H31  1  0.86404593  0.53546552  0.68915237  1  0  0.124603  0  0.912116  0  0  0.140012  0  0.959184  0  0  0.143428  0  0.958256  0  0  0.117017  0.137595  0  0.960126  0
H  H32  1  0.34435716  0.29341842  0.29179099  1  0  0.103604  0  0.901624  0  0  0.11589  0  0.957552  0  0  0.118191  0  0.955428  0  0  0.118189  0.114172  0  0.959354  0
H  H33  1  0.65564015  0.70658622  0.70820799  1  0  0.103597  0  0.90161  0  0  0.115862  0  0.957583  0  0  0.118164  0  0.955456  0  0  0.118176  0.114149  0  0.959388  0
H  H34  1  0.28335814  0.16968267  0.37580191  1  0  0.098899  0  0.942259  0  0  0.110707  0  1.001944  0  0  0.111249  0  1.003226  0  0  0.116968  0.110362  0  1.001056  0
H  H35  1  0.71664088  0.83031927  0.62419709  1  0  0.098854  0  0.942318  0  0  0.110694  0  1.001986  0  0  0.111238  0  1.003267  0  0  0.116956  0.110351  0  1.001101  0
H  H36  1  0.44838635  0.66234191  0.88282025  1  0  0.451448  0  0.83443  0  0  0.421302  0  0.896397  0  0  0.431214  0  0.881639  0  0  0.314738  0.414148  0  0.907042  0
H  H37  1  0.55161414  0.33765823  0.11717919  1  0  0.451486  0  0.834378  0  0  0.421342  0  0.896338  0  0  0.431254  0  0.88158  0  0  0.314753  0.414189  0  0.906981  0
H  H38  1  0.53478285  0.52995352  0.90040067  1  0  0.446449  0  0.802854  0  0  0.42857  0  0.857333  0  0  0.437137  0  0.844689  0  0  0.337271  0.422502  0  0.865276  0
H  H39  1  0.46521764  0.47004662  0.09960080  1  0  0.44644  0  0.802847  0  0  0.428571  0  0.85732  0  0  0.437137  0  0.844679  0  0  0.337292  0.422507  0  0.86523  0
H  H40  1  0.44170509  0.37122674  0.72315980  1  0  0.442362  0  0.854583  0  0  0.414016  0  0.913179  0  0  0.425291  0  0.896611  0  0  0.30218  0.405934  0  0.925035  0
H  H41  1  0.55829489  0.62877160  0.27684089  1  0  0.442355  0  0.854591  0  0  0.41401  0  0.913185  0  0  0.425283  0  0.896618  0  0  0.302198  0.405927  0  0.925042  0
H  H42  1  0.40949042  0.24362506  0.75079712  1  0  0.426005  0  0.881065  0  0  0.393763  0  0.948395  0  0  0.40507  0  0.931686  0  0  0.299196  0.385733  0  0.960212  0
H  H43  1  0.59050932  0.75637418  0.24920400  1  0  0.426003  0  0.881068  0  0  0.393761  0  0.948399  0  0  0.405067  0  0.931691  0  0  0.299203  0.385731  0  0.960216  0
C  C44  1  0.02433951  0.75074526  0.73463676  1  0  0.293373  0  3.706581  0  0  0.277866  0  3.965481  0  0  0.292225  0  3.981206  0  0  0.103913  0.26834  0  3.95457  0
C  C45  1  0.97566245  0.24925308  0.26536448  1  0  0.293355  0  3.706676  0  0  0.277769  0  3.96562  0  0  0.292129  0  3.981345  0  0  0.103879  0.268241  0  3.954715  0
C  C46  1  0.91613050  0.72497376  0.80152983  1  0  -0.204924  0  3.70815  0  0  -0.188908  0  3.951953  0  0  -0.202934  0  3.974835  0  0  -0.025497  -0.179861  0  3.936784  0
C  C47  1  0.08387047  0.27502457  0.19847080  1  0  -0.204943  0  3.708179  0  0  -0.188793  0  3.951863  0  0  -0.202817  0  3.974741  0  0  -0.025499  -0.17975  0  3.936703  0
C  C48  1  0.80176110  0.81923096  0.79632762  1  0  -0.039182  0  3.70927  0  0  -0.076689  0  3.963176  0  0  -0.071776  0  3.981608  0  0  -0.068468  -0.079603  0  3.950803  0
C  C49  1  0.19823864  0.18076828  0.20367281  1  0  -0.039157  0  3.709301  0  0  -0.076706  0  3.963172  0  0  -0.071793  0  3.981601  0  0  -0.068453  -0.079619  0  3.950795  0
C  C50  1  0.78979651  0.93385712  0.72664688  1  0  -0.106608  0  3.786974  0  0  -0.083827  0  4.022416  0  0  -0.095237  0  4.045036  0  0  -0.024481  -0.076691  0  4.007467  0
C  C51  1  0.21020446  0.06614121  0.27335374  1  0  -0.106566  0  3.786932  0  0  -0.083815  0  4.022405  0  0  -0.095221  0  4.045026  0  0  -0.024486  -0.076675  0  4.007448  0
C  C52  1  0.89651198  0.95676961  0.66074271  1  0  -0.001859  0  3.714391  0  0  -0.029079  0  3.966105  0  0  -0.022992  0  3.981014  0  0  -0.066033  -0.03272  0  3.955814  0
C  C53  1  0.10348974  0.04322963  0.33925828  1  0  -0.00195  0  3.714405  0  0  -0.029157  0  3.966109  0  0  -0.023071  0  3.981019  0  0  -0.06605  -0.032798  0  3.955814  0
C  C54  1  0.01280588  0.86683825  0.66520909  1  0  -0.192504  0  3.729999  0  0  -0.2152  0  3.98999  0  0  -0.223666  0  4.009772  0  0  -0.101187  -0.209905  0  3.976725  0
C  C55  1  0.98719485  0.13316099  0.33479196  1  0  -0.192382  0  3.729969  0  0  -0.215028  0  3.989933  0  0  -0.223499  0  4.00972  0  0  -0.10112  -0.209733  0  3.976669  0
C  C56  1  0.24541706  0.69774284  0.66766254  1  0  -0.099602  0  3.607152  0  0  -0.160391  0  3.873314  0  0  -0.156995  0  3.872595  0  0  -0.060998  -0.162693  0  3.873778  0
C  C57  1  0.75458194  0.30225550  0.33234025  1  0  -0.099693  0  3.607275  0  0  -0.160506  0  3.873405  0  0  -0.15711  0  3.872685  0  0  -0.061018  -0.162808  0  3.87387  0
C  C58  1  0.36304229  0.58942315  0.67791741  1  0  0.735583  0  3.830183  0  0  0.688946  0  4.129779  0  0  0.722719  0  4.119284  0  0  0.234816  0.665783  0  4.136221  0
C  C59  1  0.63696093  0.41057789  0.32207956  1  0  0.735609  0  3.83019  0  0  0.688999  0  4.129776  0  0  0.722772  0  4.11928  0  0  0.234816  0.665841  0  4.136211  0
C  C60  1  0.91478643  0.60507838  0.87905023  1  0  0.75041  0  3.826574  0  0  0.702135  0  4.126401  0  0  0.738821  0  4.112983  0  0  0.23768  0.677271  0  4.134467  0
C  C61  1  0.08521109  0.39492175  0.12095143  1  0  0.750332  0  3.826571  0  0  0.702002  0  4.126441  0  0  0.738687  0  4.11302  0  0  0.237638  0.677138  0  4.134508  0
C  C62  1  0.66219748  0.02930668  0.71630620  1  0  0.721297  0  3.871056  0  0  0.673226  0  4.167305  0  0  0.708738  0  4.157316  0  0  0.23487  0.648902  0  4.172978  0
C  C63  1  0.33780277  0.97069436  0.28369231  1  0  0.721178  0  3.87112  0  0  0.673119  0  4.167373  0  0  0.708624  0  4.157398  0  0  0.234827  0.648793  0  4.173042  0
C  C64  1  0.20249042  0.01203762  0.01344509  1  0  0.29141  0  3.722292  0  0  0.275504  0  3.987735  0  0  0.290106  0  4.002438  0  0  0.105382  0.265614  0  3.977666  0
C  C65  1  0.79750908  0.98796252  0.98655645  1  0  0.291455  0  3.722214  0  0  0.275551  0  3.987624  0  0  0.290151  0  4.002325  0  0  0.105415  0.265657  0  3.977564  0
C  C66  1  0.15986599  0.13753807  0.96303913  1  0  -0.19205  0  3.734942  0  0  -0.17772  0  3.979192  0  0  -0.190665  0  3.999751  0  0  -0.021999  -0.169393  0  3.965666  0
C  C67  1  0.84013450  0.86246207  0.03696166  1  0  -0.192128  0  3.734944  0  0  -0.177758  0  3.979158  0  0  -0.190704  0  3.999718  0  0  -0.02203  -0.169432  0  3.965638  0
C  C68  1  0.04293569  0.20306519  0.99422530  1  0  -0.032041  0  3.698913  0  0  -0.067571  0  3.949754  0  0  -0.062034  0  3.966333  0  0  -0.066015  -0.07096  0  3.938503  0
C  C69  1  0.95706504  0.79693404  0.00577507  1  0  -0.032048  0  3.698865  0  0  -0.067596  0  3.949705  0  0  -0.062055  0  3.966283  0  0  -0.066017  -0.070984  0  3.938456  0
C  C70  1  0.96670809  0.14727515  0.07279093  1  0  -0.115309  0  3.804622  0  0  -0.09522  0  4.045768  0  0  -0.10748  0  4.070777  0  0  -0.028851  -0.087462  0  4.029268  0
C  C71  1  0.03329165  0.85272409  0.92721018  1  0  -0.115265  0  3.804622  0  0  -0.09516  0  4.045779  0  0  -0.107424  0  4.070788  0  0  -0.028843  -0.087401  0  4.029275  0
C  C72  1  0.01350324  0.02424002  0.12482250  1  0  -0.027819  0  3.738045  0  0  -0.0576  0  3.996138  0  0  -0.0528  0  4.014738  0  0  -0.069755  -0.060066  0  3.98292  0
C  C73  1  0.98649725  0.97576012  0.87517830  1  0  -0.02782  0  3.738023  0  0  -0.057595  0  3.996116  0  0  -0.052793  0  4.014712  0  0  -0.069715  -0.060055  0  3.982888  0
C  C74  1  0.13130879  0.95759799  0.09662788  1  0  -0.186604  0  3.73808  0  0  -0.207545  0  3.998201  0  0  -0.216782  0  4.019736  0  0  -0.099224  -0.201657  0  3.983827  0
C  C75  1  0.86869269  0.04240215  0.90337354  1  0  -0.186574  0  3.738029  0  0  -0.20754  0  3.998179  0  0  -0.216774  0  4.019713  0  0  -0.099224  -0.201651  0  3.983809  0
C  C76  1  0.37654756  0.82897101  0.04592636  1  0  -0.071617  0  3.572057  0  0  -0.124716  0  3.829733  0  0  -0.121335  0  3.828686  0  0  -0.052844  -0.127517  0  3.830579  0
C  C77  1  0.62345416  0.17102823  0.95407327  1  0  -0.071672  0  3.572067  0  0  -0.124774  0  3.829734  0  0  -0.12141  0  3.828709  0  0  -0.052843  -0.127558  0  3.830559  0
C  C78  1  0.48100507  0.75974051  0.99359595  1  0  0.739524  0  3.833472  0  0  0.691979  0  4.133789  0  0  0.726031  0  4.123341  0  0  0.238658  0.668621  0  4.140235  0
C  C79  1  0.51899662  0.24025513  0.00640814  1  0  0.739414  0  3.833481  0  0  0.691806  0  4.133937  0  0  0.725861  0  4.123489  0  0  0.238547  0.668443  0  4.140383  0
C  C80  1  0.23391721  0.20739164  0.87933580  1  0  0.751728  0  3.829127  0  0  0.705511  0  4.115264  0  0  0.74174  0  4.103677  0  0  0.244015  0.680711  0  4.122447  0
C  C81  1  0.76608277  0.79260669  0.12066557  1  0  0.751742  0  3.829238  0  0  0.705483  0  4.11541  0  0  0.741713  0  4.103824  0  0  0.244004  0.680686  0  4.122593  0
C  C82  1  0.84353379  0.22046705  0.10445552  1  0  0.71636  0  3.871576  0  0  0.669847  0  4.164765  0  0  0.705058  0  4.155039  0  0  0.227958  0.645477  0  4.171009  0
C  C83  1  0.15646523  0.77953489  0.89554483  1  0  0.716377  0  3.871523  0  0  0.669816  0  4.164789  0  0  0.705029  0  4.155059  0  0  0.227935  0.645445  0  4.17103  0
C  C84  1  0.17406479  0.32616511  0.45166277  1  0  0.27933  0  3.751335  0  0  0.263935  0  4.015419  0  0  0.275855  0  4.03114  0  0  0.098385  0.255872  0  4.004563  0
C  C85  1  0.82593348  0.67383593  0.54833722  1  0  0.279376  0  3.751318  0  0  0.264004  0  4.015412  0  0  0.275922  0  4.031131  0  0  0.098398  0.255943  0  4.004552  0
C  C86  1  0.12007348  0.26515576  0.54186407  1  0  -0.1609  0  3.710452  0  0  -0.144471  0  3.949231  0  0  -0.155805  0  3.970064  0  0  -0.015193  -0.136912  0  3.934852  0
C  C87  1  0.87992503  0.73484438  0.45813617  1  0  -0.160907  0  3.710434  0  0  -0.144557  0  3.949303  0  0  -0.155894  0  3.97014  0  0  -0.015241  -0.136999  0  3.934924  0
C  C88  1  0.97935129  0.29995350  0.55723330  1  0  -0.043267  0  3.674394  0  0  -0.077913  0  3.921748  0  0  -0.074191  0  3.940036  0  0  -0.066434  -0.079758  0  3.908939  0
C  C89  1  0.02064698  0.70004754  0.44276670  1  0  -0.043216  0  3.674336  0  0  -0.077831  0  3.921686  0  0  -0.074108  0  3.939974  0  0  -0.066407  -0.079678  0  3.90888  0
C  C90  1  0.89623292  0.39788042  0.48786023  1  0  -0.09088  0  3.736393  0  0  -0.068372  0  3.97388  0  0  -0.078697  0  3.997889  0  0  -0.017599  -0.061962  0  3.957942  0
C  C91  1  0.10376634  0.60212062  0.51213970  1  0  -0.090928  0  3.73634  0  0  -0.06841  0  3.973821  0  0  -0.078736  0  3.997832  0  0  -0.017603  -0.062003  0  3.957885  0
C  C92  1  0.95342507  0.45780302  0.39920111  1  0  -0.012873  0  3.685457  0  0  -0.043565  0  3.947417  0  0  -0.039059  0  3.964323  0  0  -0.066985  -0.046414  0  3.936155  0
C  C93  1  0.04657419  0.54219802  0.60079881  1  0  -0.012851  0  3.685426  0  0  -0.043524  0  3.947376  0  0  -0.039023  0  3.964281  0  0  -0.066978  -0.046372  0  3.936111  0
C  C94  1  0.09110337  0.41974289  0.38014940  1  0  -0.162862  0  3.70571  0  0  -0.188319  0  3.972263  0  0  -0.19521  0  3.990948  0  0  -0.089574  -0.184043  0  3.959815  0
C  C95  1  0.90889465  0.58025904  0.61984966  1  0  -0.162929  0  3.705695  0  0  -0.188379  0  3.972255  0  0  -0.19527  0  3.990944  0  0  -0.089577  -0.184101  0  3.959798  0
C  C96  1  0.35140267  0.23026622  0.36727175  1  0  -0.062234  0  3.584255  0  0  -0.116641  0  3.839488  0  0  -0.113821  0  3.839175  0  0  -0.054767  -0.118827  0  3.839701  0
C  C97  1  0.64859536  0.76973571  0.63272799  1  0  -0.062218  0  3.584199  0  0  -0.116654  0  3.839543  0  0  -0.113837  0  3.839231  0  0  -0.0548  -0.118864  0  3.839785  0
C  C98  1  0.49691178  0.15531618  0.38861400  1  0  0.748721  0  3.818105  0  0  0.705528  0  4.11292  0  0  0.739734  0  4.102309  0  0  0.239334  0.682095  0  4.119406  0
C  C99  1  0.50308700  0.84468665  0.61138406  1  0  0.74888  0  3.81781  0  0  0.705591  0  4.112826  0  0  0.739795  0  4.102213  0  0  0.239356  0.682175  0  4.119289  0
C  C100  1  0.20804684  0.16757535  0.62100223  1  0  0.710452  0  3.84057  0  0  0.664067  0  4.133716  0  0  0.700236  0  4.122376  0  0  0.221437  0.639526  0  4.14008  0
C  C101  1  0.79195190  0.83242388  0.37899827  1  0  0.710436  0  3.840638  0  0  0.664085  0  4.133765  0  0  0.700253  0  4.122426  0  0  0.22145  0.639544  0  4.140131  0
C  C102  1  0.74615640  0.43848223  0.50575608  1  0  0.716501  0  3.871012  0  0  0.670129  0  4.167283  0  0  0.705418  0  4.156502  0  0  0.234304  0.646284  0  4.173363  0
C  C103  1  0.25384259  0.56151610  0.49424535  1  0  0.716488  0  3.87105  0  0  0.670075  0  4.167376  0  0  0.705364  0  4.156596  0  0  0.234269  0.646232  0  4.173455  0
O  O104  1  0.14220359  0.66301652  0.73955645  1  0  -0.334069  0  2.450116  0  0  -0.264924  0  2.691668  0  0  -0.284051  0  2.695845  0  0  -0.19081  -0.250862  0  2.688103  0
O  O105  1  0.85779936  0.33698182  0.26044473  1  0  -0.334073  0  2.450105  0  0  -0.264927  0  2.691716  0  0  -0.284054  0  2.695897  0  0  -0.190814  -0.250863  0  2.688155  0
O  O106  1  0.45400182  0.59938431  0.61327319  1  0  -0.699143  0  2.040136  0  0  -0.664194  0  2.291591  0  0  -0.688994  0  2.280601  0  0  -0.374765  -0.645886  0  2.298489  0
O  O107  1  0.54599942  0.40061673  0.38672593  1  0  -0.699134  0  2.040128  0  0  -0.664191  0  2.291574  0  0  -0.688995  0  2.280585  0  0  -0.374729  -0.645875  0  2.298468  0
O  O108  1  0.36283432  0.49455600  0.75115571  1  0  -0.702974  0  2.097328  0  0  -0.654191  0  2.338173  0  0  -0.678835  0  2.32501  0  0  -0.371029  -0.636529  0  2.346927  0
O  O109  1  0.63716788  0.50544143  0.24884443  1  0  -0.702972  0  2.097305  0  0  -0.654204  0  2.338165  0  0  -0.678845  0  2.324999  0  0  -0.371056  -0.636541  0  2.346918  0
O  O110  1  0.01573650  0.51609372  0.88638196  1  0  -0.729627  0  2.05173  0  0  -0.692242  0  2.309974  0  0  -0.715973  0  2.295641  0  0  -0.407232  -0.675023  0  2.319048  0
O  O111  1  0.98426471  0.48390371  0.11361892  1  0  -0.729559  0  2.051868  0  0  -0.692162  0  2.310168  0  0  -0.715891  0  2.295833  0  0  -0.407195  -0.674945  0  2.319246  0
O  O112  1  0.80978364  0.59794267  0.93386707  1  0  -0.739485  0  1.98828  0  0  -0.701984  0  2.242834  0  0  -0.725166  0  2.22699  0  0  -0.401885  -0.684904  0  2.253006  0
O  O113  1  0.19021784  0.40205747  0.06613230  1  0  -0.739439  0  1.988132  0  0  -0.701957  0  2.242738  0  0  -0.725139  0  2.226891  0  0  -0.40187  -0.684871  0  2.252906  0
O  O114  1  0.57166857  0.01344183  0.78335039  1  0  -0.747899  0  2.038256  0  0  -0.708798  0  2.299826  0  0  -0.734949  0  2.287317  0  0  -0.430784  -0.689183  0  2.308152  0
O  O115  1  0.42833117  0.98655741  0.21665141  1  0  -0.747862  0  2.03837  0  0  -0.708755  0  2.299944  0  0  -0.734902  0  2.287437  0  0  -0.43076  -0.689142  0  2.30827  0
O  O116  1  0.64931600  0.11990939  0.63899613  1  0  -0.692456  0  2.079831  0  0  -0.651613  0  2.3359  0  0  -0.676347  0  2.323394  0  0  -0.393739  -0.633546  0  2.343767  0
O  O117  1  0.35068398  0.88008894  0.36100456  1  0  -0.69241  0  2.079749  0  0  -0.65157  0  2.335801  0  0  -0.676304  0  2.323305  0  0  -0.393741  -0.633505  0  2.343662  0
O  O118  1  0.31454248  0.94688030  0.97910048  1  0  -0.328244  0  2.392206  0  0  -0.264787  0  2.636928  0  0  -0.283279  0  2.638533  0  0  -0.185075  -0.250809  0  2.635254  0
O  O119  1  0.68545678  0.05312074  0.02089877  1  0  -0.328246  0  2.392261  0  0  -0.264776  0  2.636959  0  0  -0.283265  0  2.63857  0  0  -0.185089  -0.2508  0  2.635282  0
O  O120  1  0.54963261  0.65969670  0.04748784  1  0  -0.717894  0  2.054148  0  0  -0.678321  0  2.312556  0  0  -0.703804  0  2.30003  0  0  -0.398152  -0.659731  0  2.320617  0
O  O121  1  0.45036445  0.34030883  0.95250681  1  0  -0.717874  0  2.053995  0  0  -0.678291  0  2.312455  0  0  -0.703779  0  2.299928  0  0  -0.398066  -0.659695  0  2.320513  0
O  O122  1  0.48733215  0.80009714  0.90152514  1  0  -0.709231  0  2.080342  0  0  -0.661079  0  2.326841  0  0  -0.686519  0  2.313635  0  0  -0.368139  -0.642603  0  2.335812  0
O  O123  1  0.51266860  0.19990569  0.09847009  1  0  -0.709124  0  2.080492  0  0  -0.66096  0  2.327038  0  0  -0.686396  0  2.313828  0  0  -0.368134  -0.642491  0  2.336013  0
O  O124  1  0.30482171  0.15417840  0.82379020  1  0  -0.745819  0  2.109703  0  0  -0.691927  0  2.353146  0  0  -0.719721  0  2.340571  0  0  -0.393468  -0.671928  0  2.361629  0
O  O125  1  0.69517779  0.84582174  0.17620998  1  0  -0.745802  0  2.109791  0  0  -0.691903  0  2.353246  0  0  -0.719697  0  2.340674  0  0  -0.393444  -0.6719  0  2.361727  0
O  O126  1  0.22288553  0.31748209  0.86538483  1  0  -0.70263  0  2.032666  0  0  -0.659764  0  2.280815  0  0  -0.684219  0  2.26832  0  0  -0.382287  -0.641884  0  2.288804  0
O  O127  1  0.77711472  0.68251896  0.13461639  1  0  -0.702626  0  2.032675  0  0  -0.659746  0  2.280858  0  0  -0.6842  0  2.268364  0  0  -0.382283  -0.641865  0  2.288846  0
O  O128  1  0.82283562  0.33468121  0.06737906  1  0  -0.733545  0  2.055591  0  0  -0.692064  0  2.307927  0  0  -0.716547  0  2.296041  0  0  -0.402518  -0.674416  0  2.315846  0
O  O129  1  0.17716611  0.66531803  0.93262193  1  0  -0.733576  0  2.05557  0  0  -0.692081  0  2.307917  0  0  -0.716565  0  2.296031  0  0  -0.402518  -0.674433  0  2.315834  0
O  O130  1  0.76587607  0.16540292  0.16817831  1  0  -0.749895  0  2.077513  0  0  -0.706751  0  2.344251  0  0  -0.733328  0  2.33296  0  0  -0.411693  -0.687019  0  2.351689  0
O  O131  1  0.23412442  0.83459722  0.83182181  1  0  -0.749902  0  2.077493  0  0  -0.706728  0  2.344242  0  0  -0.733307  0  2.332958  0  0  -0.411681  -0.686996  0  2.351676  0
O  O132  1  0.31292294  0.29419646  0.43461174  1  0  -0.361396  0  2.468466  0  0  -0.297109  0  2.713162  0  0  -0.312401  0  2.713811  0  0  -0.225675  -0.28558  0  2.712034  0
O  O133  1  0.68707533  0.70580458  0.56538825  1  0  -0.361442  0  2.468453  0  0  -0.297116  0  2.713108  0  0  -0.312401  0  2.713755  0  0  -0.225649  -0.285591  0  2.711995  0
O  O134  1  0.54954111  0.10604065  0.32667529  1  0  -0.741113  0  2.034573  0  0  -0.69907  0  2.29691  0  0  -0.727378  0  2.283571  0  0  -0.425698  -0.678158  0  2.30583  0
O  O135  1  0.45045719  0.89396399  0.67332227  1  0  -0.741172  0  2.034476  0  0  -0.699073  0  2.296844  0  0  -0.727401  0  2.283548  0  0  -0.425705  -0.678166  0  2.305757  0
O  O136  1  0.55650796  0.14760317  0.46273666  1  0  -0.668883  0  1.996921  0  0  -0.630037  0  2.232701  0  0  -0.653899  0  2.221898  0  0  -0.360448  -0.612827  0  2.23977  0
O  O137  1  0.44349007  0.85239876  0.53726308  1  0  -0.668946  0  1.996893  0  0  -0.630063  0  2.232722  0  0  -0.653919  0  2.22192  0  0  -0.36044  -0.612858  0  2.23978  0
O  O138  1  0.33564754  0.16363940  0.62645487  1  0  -0.786883  0  2.116474  0  0  -0.74549  0  2.372483  0  0  -0.771447  0  2.36044  0  0  -0.406747  -0.726084  0  2.380104  0
O  O139  1  0.66435295  0.83636073  0.37354457  1  0  -0.786912  0  2.11652  0  0  -0.745526  0  2.372523  0  0  -0.771478  0  2.360475  0  0  -0.406755  -0.726124  0  2.380145  0
O  O140  1  0.15557571  0.08859019  0.68496468  1  0  -0.68086  0  1.973684  0  0  -0.638879  0  2.210985  0  0  -0.664888  0  2.201313  0  0  -0.363391  -0.620265  0  2.217013  0
O  O141  1  0.84442328  0.91140813  0.31503471  1  0  -0.680842  0  1.973691  0  0  -0.638858  0  2.210979  0  0  -0.664868  0  2.201311  0  0  -0.363379  -0.620245  0  2.217009  0
O  O142  1  0.68478159  0.35957146  0.56002755  1  0  -0.720792  0  2.023955  0  0  -0.680108  0  2.273045  0  0  -0.704396  0  2.259511  0  0  -0.394303  -0.662153  0  2.281342  0
O  O143  1  0.31521890  0.64042868  0.43997325  1  0  -0.720767  0  2.023899  0  0  -0.680086  0  2.272978  0  0  -0.704371  0  2.259445  0  0  -0.3943  -0.662133  0  2.281274  0
O  O144  1  0.68950491  0.54875424  0.46267783  1  0  -0.731734  0  2.073993  0  0  -0.696827  0  2.340346  0  0  -0.721609  0  2.327943  0  0  -0.393906  -0.678689  0  2.347922  0
O  O145  1  0.31049335  0.45124680  0.53732217  1  0  -0.731713  0  2.074142  0  0  -0.696774  0  2.340511  0  0  -0.721561  0  2.328114  0  0  -0.393878  -0.678635  0  2.348087  0
O  O146  1  0.44309710  0.58090539  0.88764019  1  0  -0.891279  0  1.877962  0  0  -0.855056  0  2.067301  0  0  -0.871023  0  2.035691  0  0  -0.609147  -0.843135  0  2.08854  0
O  O147  1  0.55690438  0.41909475  0.11236054  1  0  -0.891304  0  1.877915  0  0  -0.855073  0  2.067296  0  0  -0.87104  0  2.035683  0  0  -0.609163  -0.843151  0  2.088509  0
O  O148  1  0.47143158  0.29392698  0.71032575  1  0  -0.901014  0  1.859796  0  0  -0.864373  0  2.049283  0  0  -0.882934  0  2.015126  0  0  -0.648684  -0.850226  0  2.07324  0
O  O149  1  0.52856915  0.70607226  0.28967462  1  0  -0.901018  0  1.859817  0  0  -0.864366  0  2.049303  0  0  -0.882925  0  2.015148  0  0  -0.648712  -0.850222  0  2.07326  0
