# generated using pymatgen
data_AgH18C17S3(OF)3
_symmetry_space_group_name_H-M   'P 1'
_cell_length_a   9.66485943
_cell_length_b   10.08986126
_cell_length_c   11.73333920
_cell_angle_alpha   78.31809325
_cell_angle_beta   65.95041815
_cell_angle_gamma   68.71534095
_symmetry_Int_Tables_number   1
_chemical_formula_structural   AgH18C17S3(OF)3
_chemical_formula_sum   'Ag2 H36 C34 S6 O6 F6'
_cell_volume   971.60155568
_cell_formula_units_Z   2
loop_
 _symmetry_equiv_pos_site_id
 _symmetry_equiv_pos_as_xyz
  1  'x, y, z'
loop_
 _atom_site_type_symbol
 _atom_site_label
 _atom_site_symmetry_multiplicity
 _atom_site_fract_x
 _atom_site_fract_y
 _atom_site_fract_z
 _atom_site_occupancy
 _atom_site_hle17_bader_spin_density
 _atom_site_hle17_ddec_charge
 _atom_site_hle17_ddec_spin_density
 _atom_site_hle17_ddec_sum_bond_order
 _atom_site_hle17_magmom
 _atom_site_hse06_10hf_bader_spin_density
 _atom_site_hse06_10hf_ddec_charge
 _atom_site_hse06_10hf_ddec_spin_density
 _atom_site_hse06_10hf_ddec_sum_bond_order
 _atom_site_hse06_10hf_magmom
 _atom_site_hse06_bader_spin_density
 _atom_site_hse06_ddec_charge
 _atom_site_hse06_ddec_spin_density
 _atom_site_hse06_ddec_sum_bond_order
 _atom_site_hse06_magmom
 _atom_site_pbe_bader_spin_density
 _atom_site_pbe_cm5_charge
 _atom_site_pbe_ddec_charge
 _atom_site_pbe_ddec_spin_density
 _atom_site_pbe_ddec_sum_bond_order
 _atom_site_pbe_magmom
Ag  Ag0  1  0.25959600  0.44614861  0.93175831  1  0  0.418378  0  1.628825  0  0  0.305855  0  2.100792  0  0  0.32522  0  2.059897  0  0  0.385642  0.292038  0  2.126747  0
Ag  Ag1  1  0.74040707  0.55385360  0.06824034  1  0  0.418419  0  1.628841  0  0  0.305875  0  2.100783  0  0  0.325241  0  2.059891  0  0  0.385646  0.292057  0  2.126738  0
H  H2  1  0.14361878  0.39079944  0.75975762  1  0  0.088471  0  0.968747  0  0  0.096344  0  1.038798  0  0  0.099418  0  1.037092  0  0  0.092209  0.094745  0  1.039071  0
H  H3  1  0.85638279  0.60920064  0.24024105  1  0  0.088483  0  0.968674  0  0  0.096333  0  1.038796  0  0  0.099407  0  1.037089  0  0  0.092214  0.094733  0  1.03907  0
H  H4  1  0.99172622  0.28853566  0.69502373  1  0  0.099569  0  0.96743  0  0  0.109182  0  1.029125  0  0  0.112305  0  1.027057  0  0  0.09836  0.106674  0  1.031303  0
H  H5  1  0.00827346  0.71146654  0.30497606  1  0  0.099861  0  0.96698  0  0  0.109207  0  1.029113  0  0  0.112324  0  1.027052  0  0  0.098372  0.1067  0  1.031291  0
H  H6  1  0.10896757  0.03665701  0.63131543  1  0  0.081128  0  0.974886  0  0  0.092152  0  1.038135  0  0  0.093652  0  1.039432  0  0  0.095235  0.091164  0  1.037199  0
H  H7  1  0.89102607  0.96334624  0.36868620  1  0  0.081114  0  0.974922  0  0  0.092145  0  1.038169  0  0  0.093642  0  1.039461  0  0  0.095235  0.091149  0  1.037259  0
H  H8  1  0.38332150  0.89561411  0.62298064  1  0  0.089028  0  0.971101  0  0  0.096832  0  1.036874  0  0  0.099201  0  1.036481  0  0  0.094834  0.095326  0  1.036982  0
H  H9  1  0.61667328  0.10438275  0.37702171  1  0  0.089026  0  0.97114  0  0  0.096861  0  1.036869  0  0  0.099227  0  1.036488  0  0  0.094838  0.095355  0  1.036978  0
H  H10  1  0.53666225  0.99796498  0.68404947  1  0  0.096855  0  0.962916  0  0  0.109229  0  1.021171  0  0  0.111828  0  1.020289  0  0  0.098371  0.107254  0  1.022026  0
H  H11  1  0.46333366  0.00202867  0.31595477  1  0  0.096868  0  0.962932  0  0  0.109246  0  1.021164  0  0  0.111847  0  1.020281  0  0  0.09839  0.10728  0  1.022009  0
H  H12  1  0.64846593  0.04865850  0.78740376  1  0  0.084589  0  0.941498  0  0  0.103098  0  1.000036  0  0  0.103557  0  1.000653  0  0  0.09712  0.102577  0  0.999638  0
H  H13  1  0.35153224  0.95134155  0.21260031  1  0  0.084584  0  0.941448  0  0  0.103076  0  1.000014  0  0  0.103538  0  1.000628  0  0  0.097115  0.102556  0  0.99962  0
H  H14  1  0.62923378  0.17671542  0.88106639  1  0  0.121531  0  0.921611  0  0  0.14489  0  0.967967  0  0  0.146076  0  0.968047  0  0  0.110756  0.14391  0  0.968254  0
H  H15  1  0.37076628  0.82328571  0.11893431  1  0  0.121526  0  0.921609  0  0  0.14489  0  0.967964  0  0  0.146076  0  0.968043  0  0  0.110753  0.14391  0  0.968252  0
H  H16  1  0.37481598  0.14712501  0.03574843  1  0  0.069995  0  0.9536  0  0  0.087268  0  1.020004  0  0  0.088435  0  1.019297  0  0  0.085993  0.086134  0  1.021117  0
H  H17  1  0.62518370  0.85287399  0.96425191  1  0  0.070002  0  0.953578  0  0  0.087266  0  1.019989  0  0  0.088415  0  1.019305  0  0  0.085969  0.086131  0  1.0211  0
H  H18  1  0.37470354  0.03059940  0.94144545  1  0  0.069061  0  0.951212  0  0  0.088088  0  1.010313  0  0  0.088563  0  1.011878  0  0  0.089024  0.087268  0  1.01022  0
H  H19  1  0.62529803  0.96940067  0.05855749  1  0  0.069107  0  0.951247  0  0  0.088166  0  1.010277  0  0  0.088643  0  1.011839  0  0  0.089038  0.087341  0  1.010188  0
H  H20  1  0.83307860  0.80859132  0.79147522  1  0  0.09572  0  0.977237  0  0  0.105366  0  1.043918  0  0  0.108167  0  1.042313  0  0  0.096602  0.10328  0  1.045694  0
H  H21  1  0.16692259  0.19140662  0.20852224  1  0  0.09571  0  0.977187  0  0  0.10538  0  1.043832  0  0  0.108178  0  1.04223  0  0  0.09663  0.10329  0  1.045615  0
H  H22  1  0.88776431  0.87241712  0.56463678  1  0  0.083323  0  0.9729  0  0  0.090351  0  1.042229  0  0  0.092973  0  1.041388  0  0  0.094317  0.088419  0  1.042948  0
H  H23  1  0.11223877  0.12757869  0.43535871  1  0  0.083387  0  0.97272  0  0  0.090347  0  1.042246  0  0  0.092968  0  1.041408  0  0  0.094302  0.088417  0  1.042967  0
H  H24  1  0.16829325  0.80825023  0.41129708  1  0  0.090129  0  0.949348  0  0  0.102428  0  1.008375  0  0  0.104856  0  1.007853  0  0  0.099351  0.100737  0  1.008634  0
H  H25  1  0.83171210  0.19174558  0.58869765  1  0  0.090168  0  0.94936  0  0  0.102465  0  1.008366  0  0  0.104889  0  1.007841  0  0  0.099383  0.100766  0  1.008632  0
H  H26  1  0.39227176  0.68652441  0.48632838  1  0  0.084984  0  0.975516  0  0  0.089521  0  1.046233  0  0  0.092388  0  1.045317  0  0  0.090468  0.08786  0  1.046297  0
H  H27  1  0.60772943  0.31347353  0.51367164  1  0  0.084961  0  0.975523  0  0  0.08944  0  1.046295  0  0  0.092322  0  1.045365  0  0  0.090443  0.087775  0  1.046361  0
H  H28  1  0.33790652  0.62711851  0.71370630  1  0  0.093076  0  0.998039  0  0  0.097077  0  1.075604  0  0  0.100582  0  1.072695  0  0  0.090698  0.094312  0  1.078145  0
H  H29  1  0.66209543  0.37288049  0.28629328  1  0  0.09309  0  0.998058  0  0  0.097077  0  1.075631  0  0  0.100587  0  1.07272  0  0  0.090712  0.094312  0  1.07817  0
H  H30  1  0.11502472  0.75501320  0.06073805  1  0  0.108006  0  0.940212  0  0  0.125563  0  0.998751  0  0  0.126366  0  0.999206  0  0  0.101257  0.124711  0  0.998686  0
H  H31  1  0.88497571  0.24498687  0.93926015  1  0  0.107984  0  0.940193  0  0  0.12554  0  0.998746  0  0  0.126344  0  0.999195  0  0  0.101254  0.124689  0  0.99868  0
H  H32  1  0.21523918  0.80029407  0.90164298  1  0  0.108964  0  0.930067  0  0  0.127347  0  0.985397  0  0  0.128069  0  0.986226  0  0  0.102097  0.126572  0  0.984906  0
H  H33  1  0.78476012  0.19970920  0.09835760  1  0  0.108959  0  0.930065  0  0  0.127339  0  0.985387  0  0  0.128059  0  0.986218  0  0  0.102102  0.126564  0  0.984896  0
H  H34  1  0.86027293  0.93851064  0.05898551  1  0  0.064476  0  0.962796  0  0  0.081247  0  1.027878  0  0  0.080962  0  1.030703  0  0  0.086728  0.080906  0  1.02702  0
H  H35  1  0.13972788  0.06148516  0.94101586  1  0  0.064476  0  0.96275  0  0  0.081246  0  1.027855  0  0  0.080963  0  1.030678  0  0  0.086734  0.080907  0  1.026998  0
H  H36  1  0.95039304  0.98153923  0.89686769  1  0  0.066977  0  0.934506  0  0  0.086721  0  0.992823  0  0  0.086784  0  0.99475  0  0  0.087985  0.086503  0  0.99168  0
H  H37  1  0.04960324  0.01845977  0.10313379  1  0  0.066979  0  0.934513  0  0  0.086739  0  0.992831  0  0  0.086803  0  0.994758  0  0  0.087992  0.086522  0  0.99169  0
C  C38  1  0.29438454  0.39721530  0.34864031  1  0  0.599978  0  3.67006  0  0  0.525589  0  4.04525  0  0  0.553336  0  4.01895  0  0  0.290412  0.505565  0  4.064344  0
C  C39  1  0.70561288  0.60278690  0.65135853  1  0  0.598027  0  3.673309  0  0  0.52558  0  4.045428  0  0  0.55331  0  4.019182  0  0  0.290413  0.505557  0  4.064526  0
C  C40  1  0.34860016  0.20021141  0.72887661  1  0  0.020309  0  3.803932  0  0  0.043222  0  4.052775  0  0  0.043734  0  4.077867  0  0  -0.017456  0.042869  0  4.035662  0
C  C41  1  0.65139915  0.79978546  0.27112422  1  0  0.020256  0  3.803923  0  0  0.043141  0  4.052815  0  0  0.043641  0  4.077923  0  0  -0.017478  0.042797  0  4.035686  0
C  C42  1  0.19625523  0.28226401  0.72933169  1  0  -0.118682  0  3.762147  0  0  -0.136211  0  4.006107  0  0  -0.139345  0  4.027316  0  0  -0.099757  -0.134277  0  3.991569  0
C  C43  1  0.80374408  0.71773605  0.27066944  1  0  -0.118656  0  3.76217  0  0  -0.136177  0  4.0061  0  0  -0.139307  0  4.02731  0  0  -0.099768  -0.134243  0  3.991554  0
C  C44  1  0.11109766  0.22438463  0.69239508  1  0  -0.052334  0  3.7448  0  0  -0.064313  0  3.989043  0  0  -0.065051  0  4.008736  0  0  -0.089966  -0.063773  0  3.976233  0
C  C45  1  0.88890277  0.77561544  0.30760397  1  0  -0.05235  0  3.744682  0  0  -0.064312  0  3.98899  0  0  -0.065047  0  4.008687  0  0  -0.089968  -0.063767  0  3.976166  0
C  C46  1  0.17670051  0.08419172  0.65648536  1  0  -0.076374  0  3.756999  0  0  -0.090763  0  4.004984  0  0  -0.092553  0  4.026423  0  0  -0.09437  -0.089217  0  3.990052  0
C  C47  1  0.82329841  0.91580942  0.34351316  1  0  -0.076381  0  3.757107  0  0  -0.090771  0  4.005026  0  0  -0.092553  0  4.02646  0  0  -0.094362  -0.089228  0  3.990088  0
C  C48  1  0.33014978  0.00394399  0.65306796  1  0  -0.05725  0  3.770383  0  0  -0.070505  0  4.022337  0  0  -0.07178  0  4.043884  0  0  -0.092277  -0.069472  0  4.007216  0
C  C49  1  0.66984839  0.99605287  0.34693240  1  0  -0.05738  0  3.770455  0  0  -0.070674  0  4.022426  0  0  -0.071948  0  4.043958  0  0  -0.09238  -0.069641  0  4.007308  0
C  C50  1  0.41689721  0.06176067  0.68799732  1  0  -0.118442  0  3.761832  0  0  -0.138966  0  4.00774  0  0  -0.141948  0  4.029465  0  0  -0.097479  -0.136808  0  3.992998  0
C  C51  1  0.58310096  0.93823620  0.31200475  1  0  -0.118319  0  3.761675  0  0  -0.138836  0  4.007584  0  0  -0.141817  0  4.029311  0  0  -0.097423  -0.136689  0  3.992833  0
C  C52  1  0.56179213  0.12816117  0.85540867  1  0  -0.136376  0  3.622109  0  0  -0.176788  0  3.888891  0  0  -0.175963  0  3.900197  0  0  -0.14446  -0.176949  0  3.880702  0
C  C53  1  0.43820718  0.87183890  0.14459331  1  0  -0.1363  0  3.621982  0  0  -0.176743  0  3.888766  0  0  -0.175918  0  3.90007  0  0  -0.144455  -0.176899  0  3.88056  0
C  C54  1  0.45254088  0.06388953  0.96899886  1  0  -0.103769  0  3.694177  0  0  -0.143738  0  3.951635  0  0  -0.145398  0  3.967123  0  0  -0.169817  -0.142484  0  3.941615  0
C  C55  1  0.54746144  0.93611161  0.03100279  1  0  -0.103921  0  3.694225  0  0  -0.143848  0  3.95165  0  0  -0.145489  0  3.967119  0  0  -0.169778  -0.142591  0  3.941624  0
C  C56  1  0.08212604  0.71624855  0.76609063  1  0  0.034353  0  3.767188  0  0  0.062022  0  4.004862  0  0  0.060552  0  4.031724  0  0  -0.015539  0.062495  0  3.986916  0
C  C57  1  0.91787704  0.28374726  0.23390657  1  0  0.034375  0  3.767323  0  0  0.062052  0  4.004974  0  0  0.060585  0  4.031831  0  0  -0.015511  0.062525  0  3.987029  0
C  C58  1  0.95523931  0.78589962  0.72472020  1  0  -0.102149  0  3.750441  0  0  -0.124116  0  3.994683  0  0  -0.125831  0  4.016272  0  0  -0.093674  -0.123349  0  3.981397  0
C  C59  1  0.04476264  0.21409619  0.27527908  1  0  -0.101911  0  3.749921  0  0  -0.124069  0  3.994615  0  0  -0.12578  0  4.016199  0  0  -0.093678  -0.123301  0  3.981335  0
C  C60  1  0.98669019  0.82032941  0.59708159  1  0  -0.069383  0  3.77756  0  0  -0.083985  0  4.032326  0  0  -0.086402  0  4.053957  0  0  -0.095303  -0.082433  0  4.017964  0
C  C61  1  0.01330987  0.17966853  0.40291796  1  0  -0.069115  0  3.776943  0  0  -0.084028  0  4.032441  0  0  -0.086445  0  4.054065  0  0  -0.095315  -0.082479  0  4.018081  0
C  C62  1  0.14359687  0.78505656  0.51132639  1  0  -0.06322  0  3.747818  0  0  -0.079991  0  3.998551  0  0  -0.081114  0  4.019569  0  0  -0.08873  -0.079039  0  3.984314  0
C  C63  1  0.85640583  0.21494352  0.48866934  1  0  -0.063297  0  3.747887  0  0  -0.080071  0  3.99865  0  0  -0.081198  0  4.019685  0  0  -0.088755  -0.07911  0  3.984411  0
C  C64  1  0.26989224  0.71563394  0.55333227  1  0  -0.055993  0  3.763064  0  0  -0.068556  0  4.01245  0  0  -0.070718  0  4.03397  0  0  -0.092478  -0.06728  0  3.997567  0
C  C65  1  0.73010668  0.28436399  0.44666595  1  0  -0.055936  0  3.763104  0  0  -0.068427  0  4.012417  0  0  -0.070603  0  4.033926  0  0  -0.092451  -0.067148  0  3.997532  0
C  C66  1  0.23981720  0.68120971  0.68048175  1  0  -0.118395  0  3.759696  0  0  -0.135853  0  4.00011  0  0  -0.138699  0  4.02247  0  0  -0.095678  -0.133638  0  3.98474  0
C  C67  1  0.76018437  0.31879356  0.31951807  1  0  -0.118402  0  3.759851  0  0  -0.13587  0  4.000183  0  0  -0.138726  0  4.022547  0  0  -0.095686  -0.133654  0  3.984812  0
C  C68  1  0.09819262  0.79957389  0.97211026  1  0  -0.129264  0  3.596241  0  0  -0.166403  0  3.853428  0  0  -0.165665  0  3.865096  0  0  -0.146221  -0.166324  0  3.8445  0
C  C69  1  0.90180631  0.20042724  0.02788911  1  0  -0.129258  0  3.596142  0  0  -0.166363  0  3.853338  0  0  -0.165622  0  3.864999  0  0  -0.146232  -0.166284  0  3.844413  0
C  C70  1  0.97300677  0.94557645  0.98460618  1  0  -0.101166  0  3.70342  0  0  -0.140219  0  3.961337  0  0  -0.142029  0  3.977419  0  0  -0.170724  -0.138756  0  3.949787  0
C  C71  1  0.02699178  0.05442255  0.01539454  1  0  -0.101083  0  3.703303  0  0  -0.14021  0  3.96127  0  0  -0.142016  0  3.977346  0  0  -0.170703  -0.138749  0  3.949725  0
S  S72  1  0.45686043  0.27695568  0.77341400  1  0  0.035816  0  2.725275  0  0  0.058821  0  3.138394  0  0  0.05348  0  3.132377  0  0  0.018447  0.062418  0  3.141411  0
S  S73  1  0.54314038  0.72304013  0.22658651  1  0  0.035808  0  2.725368  0  0  0.058833  0  3.138508  0  0  0.053497  0  3.132493  0  0  0.018469  0.062425  0  3.141524  0
S  S74  1  0.04094477  0.66856504  0.92890302  1  0  -0.02223  0  2.762576  0  0  0.010067  0  3.183328  0  0  0.00536  0  3.174979  0  0  -0.002854  0.01483  0  3.185452  0
S  S75  1  0.95905717  0.33143396  0.07109742  1  0  -0.022286  0  2.762623  0  0  0.009998  0  3.18335  0  0  0.005278  0  3.175022  0  0  -0.002899  0.014762  0  3.185478  0
S  S76  1  0.35735281  0.46317038  0.18058981  1  0  1.130258  0  5.799719  0  0  1.026851  0  6.336648  0  0  1.070678  0  6.316538  0  0  0.485137  0.99661  0  6.349674  0
S  S77  1  0.64264762  0.53683929  0.81941184  1  0  1.129648  0  5.801435  0  0  1.026965  0  6.336616  0  0  1.070797  0  6.316506  0  0  0.485197  0.996725  0  6.34964  0
O  O78  1  0.28156075  0.39646138  0.13206725  1  0  -0.614229  0  2.093225  0  0  -0.56123  0  2.378247  0  0  -0.581497  0  2.36222  0  0  -0.350178  -0.546964  0  2.388968  0
O  O79  1  0.71843667  0.60356002  0.86792826  1  0  -0.614588  0  2.094066  0  0  -0.56134  0  2.378331  0  0  -0.58161  0  2.362301  0  0  -0.350236  -0.547077  0  2.389055  0
O  O80  1  0.28995206  0.61743235  0.18505586  1  0  -0.598255  0  1.996845  0  0  -0.565101  0  2.249911  0  0  -0.583793  0  2.23826  0  0  -0.329696  -0.552184  0  2.257725  0
O  O81  1  0.71005440  0.38257625  0.81495248  1  0  -0.598538  0  1.997598  0  0  -0.565065  0  2.249815  0  0  -0.583756  0  2.238159  0  0  -0.329674  -0.552148  0  2.257626  0
O  O82  1  0.53107621  0.40554548  0.13556231  1  0  -0.609154  0  2.043402  0  0  -0.56857  0  2.316651  0  0  -0.58745  0  2.30205  0  0  -0.338318  -0.555055  0  2.32645  0
O  O83  1  0.46892422  0.59446098  0.86444160  1  0  -0.609119  0  2.043419  0  0  -0.56862  0  2.3166  0  0  -0.587499  0  2.301981  0  0  -0.338366  -0.555105  0  2.326395  0
F  F84  1  0.13436584  0.44739746  0.40640799  1  0  -0.218129  0  1.232428  0  0  -0.175745  0  1.400842  0  0  -0.186022  0  1.387075  0  0  -0.086469  -0.168424  0  1.410727  0
F  F85  1  0.86562743  0.55260366  0.59358731  1  0  -0.209384  0  1.224842  0  0  -0.175704  0  1.400984  0  0  -0.185972  0  1.38723  0  0  -0.086456  -0.168382  0  1.410871  0
F  F86  1  0.33966167  0.25201388  0.35997706  1  0  -0.238621  0  1.214155  0  0  -0.187828  0  1.379164  0  0  -0.198239  0  1.365496  0  0  -0.088773  -0.180254  0  1.388606  0
F  F87  1  0.66034103  0.74798620  0.64001270  1  0  -0.239505  0  1.21502  0  0  -0.187835  0  1.379146  0  0  -0.198236  0  1.365494  0  0  -0.088785  -0.180259  0  1.38859  0
F  F88  1  0.36296435  0.43905265  0.40996599  1  0  -0.233833  0  1.209243  0  0  -0.186228  0  1.374383  0  0  -0.197025  0  1.361554  0  0  -0.090835  -0.178472  0  1.383322  0
F  F89  1  0.63702665  0.56093886  0.59004367  1  0  -0.234813  0  1.210312  0  0  -0.186269  0  1.374519  0  0  -0.197064  0  1.361697  0  0  -0.090833  -0.178515  0  1.383459  0
