# generated using pymatgen
data_CuH18C22(NO)4
_symmetry_space_group_name_H-M   'P 1'
_cell_length_a   13.46463261
_cell_length_b   14.52825499
_cell_length_c   15.29097091
_cell_angle_alpha   113.90935397
_cell_angle_beta   116.12211490
_cell_angle_gamma   89.99115740
_symmetry_Int_Tables_number   1
_chemical_formula_structural   CuH18C22(NO)4
_chemical_formula_sum   'Cu4 H72 C88 N16 O16'
_cell_volume   2396.57599293
_cell_formula_units_Z   4
loop_
 _symmetry_equiv_pos_site_id
 _symmetry_equiv_pos_as_xyz
  1  'x, y, z'
loop_
 _atom_site_type_symbol
 _atom_site_label
 _atom_site_symmetry_multiplicity
 _atom_site_fract_x
 _atom_site_fract_y
 _atom_site_fract_z
 _atom_site_occupancy
 _atom_site_pbe_bader_charge
 _atom_site_pbe_bader_spin_density
 _atom_site_pbe_cm5_charge
 _atom_site_pbe_ddec_charge
 _atom_site_pbe_ddec_spin_density
 _atom_site_pbe_ddec_sum_bond_order
 _atom_site_pbe_magmom
Cu  Cu0  1  0.55314919  0.15716114  0.61826720  1  1.087231  -0.570289  0.739031  0.793553  -0.744166  2.223977  -0.568
Cu  Cu1  1  0.93485969  0.34284208  0.38171435  1  1.092724  -0.567119  0.739114  0.793608  -0.739965  2.224339  -0.565
Cu  Cu2  1  0.44685700  0.84283832  0.38173484  1  1.087243  -0.570154  0.739035  0.793604  -0.743994  2.223883  -0.568
Cu  Cu3  1  0.06514560  0.65715969  0.61828652  1  1.092731  0.566994  0.739107  0.793503  0.783958  2.224526  0.564
H  H4  1  0.10221869  0.83261587  0.26323309  1  0.071864  -0.000271  0.10152  0.108178  -0.000224  1.000999  0.0
H  H5  1  0.83885702  0.66735047  0.73685251  1  0.100443  0.000267  0.101098  0.107045  0.000242  1.002536  0.0
H  H6  1  0.89779415  0.16738744  0.73677571  1  0.071779  -0.00029  0.101541  0.108173  -0.000237  1.000995  0.0
H  H7  1  0.16114247  0.33265131  0.26314668  1  0.100362  -0.000291  0.10112  0.107099  -0.00024  1.002502  0.0
H  H8  1  0.90215392  0.84456815  0.21976507  1  0.041039  -8.2e-05  0.091705  0.087959  -4.2e-05  1.01594  0.0
H  H9  1  0.68224373  0.65539025  0.78027027  1  0.03937  -2.6e-05  0.091983  0.088223  -2e-05  1.016389  0.0
H  H10  1  0.09785870  0.15543671  0.78024057  1  0.040773  -2.2e-05  0.091663  0.087984  -4e-06  1.015825  0.0
H  H11  1  0.31775716  0.34460921  0.21972978  1  0.03938  -7.6e-05  0.092001  0.088255  -3.9e-05  1.016366  0.0
H  H12  1  0.02086744  0.14082631  0.49984366  1  0.069627  -0.000214  0.094715  0.094448  -8.1e-05  1.04023  0.0
H  H13  1  0.52110376  0.35914906  0.50012685  1  0.069226  0.000268  0.094417  0.093777  0.000169  1.040133  0.0
H  H14  1  0.97913642  0.85917855  0.50015899  1  0.069718  -0.000271  0.094736  0.094507  -0.000163  1.040142  0.0
H  H15  1  0.47890079  0.64084963  0.49987253  1  0.069208  -0.000214  0.094405  0.093795  -8.9e-05  1.040162  0.0
H  H16  1  0.22087331  0.12923749  0.54137384  1  0.09767  -3.8e-05  0.096257  0.094472  -1.4e-05  1.041955  0.0
H  H17  1  0.67958234  0.37080276  0.45863394  1  0.086945  -1e-06  0.096291  0.094022  -2.4e-05  1.042583  0.0
H  H18  1  0.77913294  0.87076891  0.45863572  1  0.097864  -1.7e-05  0.096242  0.094459  3e-06  1.041966  0.0
H  H19  1  0.32041997  0.62919902  0.54136560  1  0.086979  -3e-05  0.096332  0.094042  3e-06  1.042603  0.0
H  H20  1  0.77288321  0.97740314  0.16197864  1  0.033775  -0.002391  0.089345  0.102839  -0.001166  0.995668  -0.001
H  H21  1  0.61077797  0.52247508  0.83791199  1  0.03314  -0.002369  0.089389  0.102486  -0.001166  0.995358  -0.001
H  H22  1  0.22711773  0.02257472  0.83800884  1  0.034124  0.002383  0.089366  0.10286  0.001231  0.995834  0.001
H  H23  1  0.38922534  0.47754753  0.16209684  1  0.033413  -0.002374  0.089371  0.102434  -0.001172  0.995518  -0.001
H  H24  1  0.68337876  0.03646478  0.21543994  1  0.084091  0.000254  0.089241  0.091467  0.000133  1.062975  0.0
H  H25  1  0.46780097  0.46345631  0.78443674  1  0.059719  0.000277  0.089652  0.092061  0.000156  1.062576  0.0
H  H26  1  0.31662573  0.96352158  0.78454319  1  0.083997  -0.00031  0.089233  0.091512  -0.000168  1.06296  0.0
H  H27  1  0.53220884  0.53656012  0.21557795  1  0.059399  0.00028  0.089628  0.092038  0.000157  1.062646  0.0
H  H28  1  0.82530675  0.06039694  0.40157324  1  0.043987  -0.000311  0.093816  0.100119  -0.000206  0.986191  0.0
H  H29  1  0.42366128  0.43951168  0.59830665  1  0.070975  -0.000319  0.093609  0.100206  -0.000214  0.986316  0.0
H  H30  1  0.17469686  0.93961334  0.59841804  1  0.043856  0.000291  0.093895  0.10023  0.000197  0.98619  0.0
H  H31  1  0.57634591  0.56047311  0.40169619  1  0.07094  -0.000277  0.093569  0.100105  -0.000183  0.986256  0.0
H  H32  1  0.77748101  0.92913801  0.30414435  1  0.020431  -0.000209  0.088492  0.084667  -9.8e-05  1.001648  0.0
H  H33  1  0.47327058  0.57079974  0.69576473  1  0.03026  -0.000188  0.088825  0.085401  -7.7e-05  1.001594  0.0
H  H34  1  0.22252742  0.07086839  0.69586491  1  0.021046  0.000194  0.088457  0.084614  9e-05  1.001703  0.0
H  H35  1  0.52671870  0.42919125  0.30421918  1  0.029934  -0.000213  0.088808  0.085368  -0.000102  1.001577  0.0
H  H36  1  0.69483289  0.17255294  0.51707833  1  0.122831  -0.001728  0.126149  0.099988  -0.000759  0.986485  -0.001
H  H37  1  0.17763772  0.32739728  0.48282093  1  0.090483  -0.001736  0.125693  0.099566  -0.000758  0.986415  -0.001
H  H38  1  0.30515189  0.82742957  0.48289988  1  0.12259  -0.001728  0.126019  0.099947  -0.000761  0.98648  -0.001
H  H39  1  0.82237017  0.67261992  0.51719119  1  0.090684  0.001736  0.125748  0.099556  0.000811  0.98642  0.001
H  H40  1  0.66181509  0.17082601  0.34243078  1  0.152737  -0.001118  0.113758  0.129706  -0.000772  1.03742  -0.001
H  H41  1  0.31925657  0.32917864  0.65753376  1  0.164969  -0.001106  0.113593  0.129881  -0.000771  1.036803  -0.001
H  H42  1  0.33815804  0.82916268  0.65754800  1  0.152711  -0.000637  0.113709  0.129662  -0.00013  1.037548  -0.001
H  H43  1  0.68074630  0.67083084  0.34248308  1  0.165362  0.000621  0.113581  0.129853  0.000165  1.036828  0.001
H  H44  1  0.30612065  0.15019655  0.25294431  1  0.091553  -0.001102  0.115666  0.123798  -0.000576  0.981223  -0.001
H  H45  1  0.05305041  0.34974556  0.74699428  1  0.074241  -0.001093  0.115834  0.123839  -0.000561  0.980661  -0.001
H  H46  1  0.69386212  0.84980446  0.74705534  1  0.091767  -0.001091  0.115684  0.123836  -0.000571  0.981096  0.0
H  H47  1  0.94694472  0.65024774  0.25300018  1  0.074269  0.001083  0.115812  0.12379  0.000591  0.98056  0.001
H  H48  1  0.35614788  0.15523526  0.43348738  1  0.130347  -0.002137  0.126891  0.107126  -0.001016  0.986751  -0.002
H  H49  1  0.92251469  0.34480727  0.56645513  1  0.130475  -0.002139  0.126832  0.107359  -0.001026  0.985859  -0.002
H  H50  1  0.64384505  0.84476034  0.56651205  1  0.130314  -0.00213  0.126863  0.107081  -0.00101  0.986746  -0.002
H  H51  1  0.07748444  0.65519604  0.43354738  1  0.130528  0.002132  0.126851  0.107383  0.001085  0.985869  0.002
H  H52  1  0.72914364  0.12887155  0.80247710  1  0.16035  -0.001526  0.125088  0.107929  -0.000713  0.994391  -0.001
H  H53  1  0.92665877  0.37113614  0.19755705  1  0.139535  -0.001559  0.124685  0.10783  -0.000712  0.994708  -0.001
H  H54  1  0.27086393  0.87112790  0.19753046  1  0.160654  -0.001526  0.125095  0.107906  -0.000713  0.994378  -0.001
H  H55  1  0.07334300  0.62886487  0.80243596  1  0.139628  0.001556  0.124648  0.107787  0.000759  0.994726  0.001
H  H56  1  0.74470387  0.11417408  0.96723410  1  0.120777  -0.000949  0.117778  0.134521  -0.000506  0.977108  0.0
H  H57  1  0.77742036  0.38583764  0.03281289  1  0.123768  -0.000935  0.117754  0.134319  -0.000497  0.976435  0.0
H  H58  1  0.25529673  0.88582537  0.03277145  1  0.120821  -0.000964  0.117755  0.134434  -0.000503  0.977154  0.0
H  H59  1  0.22257207  0.61415951  0.96718144  1  0.123311  0.000948  0.117748  0.134328  0.00052  0.976414  0.0
H  H60  1  0.39512128  0.13798511  0.85714428  1  0.099777  -0.000976  0.112513  0.12008  -0.000474  1.016199  -0.001
H  H61  1  0.53801407  0.36201046  0.14296372  1  0.108683  -0.001107  0.112542  0.120526  -0.000585  1.015866  -0.001
H  H62  1  0.60487680  0.86201050  0.14284872  1  0.099627  -0.001114  0.112507  0.120117  -0.000584  1.016113  -0.001
H  H63  1  0.46199341  0.63799285  0.85704633  1  0.108292  0.000967  0.112502  0.120486  0.000503  1.015845  0.001
H  H64  1  0.39331279  0.14700565  0.69496185  1  0.138815  -0.001899  0.120366  0.096994  -0.000891  1.018336  -0.002
H  H65  1  0.69836010  0.35298220  0.30509688  1  0.134755  -0.001943  0.12044  0.097512  -0.000912  1.018608  -0.002
H  H66  1  0.60669334  0.85298841  0.30503469  1  0.138799  -0.001903  0.120401  0.097049  -0.000888  1.018273  -0.002
H  H67  1  0.30165143  0.64701957  0.69490857  1  0.135081  0.001934  0.120403  0.097409  0.000965  1.018655  0.002
H  H68  1  0.66228936  0.11580495  0.07812233  1  0.13644  1.2e-05  0.123418  0.098986  8e-06  1.003017  0.0
H  H69  1  0.58409737  0.38414159  0.92185980  1  0.136947  9e-06  0.123451  0.099583  5e-06  1.002911  0.0
H  H70  1  0.33770199  0.88419220  0.92187588  1  0.1363  -4.5e-05  0.123401  0.098964  -4.9e-05  1.002884  0.0
H  H71  1  0.41590121  0.61585941  0.07814161  1  0.136873  4e-05  0.123457  0.099609  4.9e-05  1.002737  0.0
H  H72  1  0.36862199  0.15492620  0.12162622  1  0.096029  -1.3e-05  0.118102  0.080918  -1.8e-05  0.978696  0.0
H  H73  1  0.24688412  0.34503966  0.87830842  1  0.08724  -1.8e-05  0.118288  0.081286  -2.5e-05  0.977848  0.0
H  H74  1  0.63136233  0.84507559  0.87836441  1  0.096056  -3.8e-05  0.118118  0.08097  -3.7e-05  0.978789  0.0
H  H75  1  0.75311086  0.65495903  0.12169380  1  0.087413  1e-05  0.118353  0.081396  1.2e-05  0.977834  0.0
C  C76  1  0.29468142  0.97596099  0.43348293  1  1.538411  0.001326  0.19936  0.564213  -0.000219  4.251523  0.003
C  C77  1  0.86126391  0.52417392  0.56665602  1  1.567198  -0.000706  0.198869  0.563464  0.000737  4.252604  -0.002
C  C78  1  0.70532803  0.02404695  0.56652772  1  1.538087  0.001328  0.199269  0.5639  -0.000213  4.251909  0.003
C  C79  1  0.13873739  0.47582631  0.43334213  1  1.567729  0.000704  0.198888  0.56339  -0.000448  4.252814  0.002
C  C80  1  0.17361566  0.98092111  0.40480643  1  -0.054909  -0.009753  -0.031941  -0.054786  -0.006893  3.999782  -0.008
C  C81  1  0.76880197  0.51913003  0.59526157  1  -0.039163  0.008908  -0.032212  -0.056124  0.006644  4.00062  0.007
C  C82  1  0.82639324  0.01908451  0.59520311  1  -0.053668  -0.009809  -0.032056  -0.054798  -0.006918  4.000005  -0.008
C  C83  1  0.23119988  0.48087252  0.40473768  1  -0.039245  -0.008853  -0.03221  -0.056104  -0.006233  4.00073  -0.007
C  C84  1  0.08343506  0.90028747  0.31416813  1  -0.044929  0.000133  -0.092782  -0.099305  4.7e-05  4.005387  0.0
C  C85  1  0.76920133  0.59965188  0.68595696  1  -0.089159  -0.000207  -0.092224  -0.097865  -6.6e-05  4.00656  0.0
C  C86  1  0.91657387  0.09971738  0.68583878  1  -0.045507  0.000126  -0.092664  -0.099216  3.7e-05  4.005545  0.0
C  C87  1  0.23079932  0.40034990  0.31404256  1  -0.089115  0.000197  -0.092261  -0.097963  9.7e-05  4.006673  0.0
C  C88  1  0.97216826  0.90740156  0.29069605  1  -0.06484  -0.000169  -0.09889  -0.147867  -6.3e-05  3.997683  0.0
C  C89  1  0.68138462  0.59252137  0.70938093  1  -0.06109  4.5e-05  -0.099133  -0.147111  -1.6e-05  4.000043  0.0
C  C90  1  0.02784223  0.09260407  0.70930929  1  -0.064799  -0.000189  -0.098874  -0.147902  -7.8e-05  3.997484  0.0
C  C91  1  0.31861631  0.40747886  0.29061852  1  -0.061123  -6.6e-05  -0.099161  -0.147129  -1e-06  4.000097  0.0
C  C92  1  0.94805837  0.99425732  0.35662212  1  -0.003345  0.000357  -0.003102  0.138164  0.000291  3.933591  0.0
C  C93  1  0.59138918  0.50566575  0.64334613  1  -0.016208  -0.00045  -0.002901  0.137029  -0.000273  3.939266  0.0
C  C94  1  0.05194979  0.00574677  0.64338052  1  -0.003317  0.000563  -0.003103  0.138198  0.000371  3.933513  0.0
C  C95  1  0.40861138  0.49433294  0.35665257  1  -0.01616  0.000231  -0.002853  0.137065  0.0002  3.939321  0.0
C  C96  1  0.03877358  0.07390616  0.44724986  1  -0.02861  -0.000798  -0.094001  -0.132092  -0.000514  3.96172  -0.001
C  C97  1  0.59159059  0.42605907  0.55275420  1  -0.076153  0.000939  -0.093886  -0.131868  0.000687  3.962478  0.001
C  C98  1  0.96123205  0.92609793  0.55275438  1  -0.028735  -0.000968  -0.094091  -0.132234  -0.000671  3.961692  -0.001
C  C99  1  0.40841070  0.57394116  0.44724395  1  -0.076275  -0.000773  -0.093967  -0.132031  -0.00049  3.962742  -0.001
C  C100  1  0.15005474  0.06752415  0.47098976  1  -0.078252  -0.000805  -0.090369  -0.092362  -0.000538  3.998892  -0.001
C  C101  1  0.67911938  0.43250385  0.52902037  1  -0.016921  0.000959  -0.08987  -0.090137  0.00071  3.997429  0.001
C  C102  1  0.84995351  0.93248147  0.52901912  1  -0.078662  -0.000807  -0.090329  -0.092342  -0.000529  3.998835  -0.001
C  C103  1  0.32088101  0.56749871  0.47097661  1  -0.016818  -0.00098  -0.089839  -0.090013  -0.000639  3.997459  -0.001
C  C104  1  0.82995465  0.14001127  0.26284338  1  1.544668  0.000581  0.185877  0.610532  -0.000215  4.184562  0.003
C  C105  1  0.56696751  0.35994149  0.73699286  1  1.541463  0.000598  0.185  0.608066  -0.000225  4.187992  0.003
C  C106  1  0.17003823  0.85997666  0.73712353  1  1.543787  -0.00061  0.185756  0.610553  0.000492  4.184528  -0.003
C  C107  1  0.43305056  0.64007722  0.26304472  1  1.541402  0.000623  0.184926  0.608043  -0.000205  4.188694  0.003
C  C108  1  0.77226287  0.03434149  0.23564793  1  -0.055342  -0.010275  -0.171526  -0.291805  -0.007456  3.916942  -0.008
C  C109  1  0.53646701  0.46558657  0.76422490  1  -0.032115  -0.010278  -0.171997  -0.291293  -0.007442  3.91572  -0.008
C  C110  1  0.22774167  0.96564718  0.76433663  1  -0.055117  0.010246  -0.171547  -0.291947  0.007861  3.917251  0.008
C  C111  1  0.46354145  0.53442754  0.23578706  1  -0.031756  -0.010296  -0.171976  -0.291349  -0.007452  3.916023  -0.008
C  C112  1  0.82770267  0.00353993  0.32882544  1  -0.013021  -0.000104  -0.159194  -0.172835  -0.000127  3.947288  0.0
C  C113  1  0.49878229  0.49638040  0.67104919  1  -0.046288  -3.2e-05  -0.159189  -0.1739  -7.2e-05  3.948795  0.0
C  C114  1  0.17230215  0.99646417  0.67116972  1  -0.013714  1e-05  -0.159238  -0.172934  8.7e-05  3.947426  0.0
C  C115  1  0.50121852  0.50361598  0.32895003  1  -0.046264  -8.9e-05  -0.15917  -0.173724  -0.000114  3.948494  0.0
C  C116  1  0.60987471  0.16564520  0.45505705  1  0.460698  0.001249  0.056491  0.107739  0.000414  3.913361  0.001
C  C117  1  0.15467185  0.33426669  0.54482295  1  0.507746  0.001224  0.057035  0.108003  0.000386  3.913135  0.001
C  C118  1  0.39010823  0.83433962  0.54492484  1  0.460973  0.001246  0.056527  0.107722  0.000404  3.913133  0.001
C  C119  1  0.84532975  0.66574511  0.45518655  1  0.507359  -0.00121  0.05698  0.108003  -0.000138  3.913117  -0.001
C  C120  1  0.59081451  0.16391294  0.35760378  1  -0.009744  -0.005554  -0.069454  -0.147098  -0.003782  3.875246  -0.004
C  C121  1  0.23304355  0.33601610  0.64228619  1  -0.029347  -0.005605  -0.069019  -0.147353  -0.0038  3.872975  -0.004
C  C122  1  0.40916571  0.83607805  0.64238264  1  -0.010221  -0.00484  -0.069366  -0.147144  -0.003356  3.875318  -0.004
C  C123  1  0.76695798  0.66398721  0.35772121  1  -0.029808  0.004891  -0.06891  -0.147113  0.003577  3.872731  0.004
C  C124  1  0.47952762  0.15573549  0.28067116  1  -0.036479  0.003287  0.01044  0.104715  0.002322  4.017683  0.002
C  C125  1  0.19864366  0.34414081  0.71918895  1  0.00295  0.003188  0.009937  0.104914  0.002252  4.015958  0.002
C  C126  1  0.52045212  0.84426321  0.71931829  1  -0.036659  0.003314  0.010388  0.104727  0.002335  4.01774  0.002
C  C127  1  0.80135221  0.65585402  0.28081241  1  0.002874  -0.00321  0.009813  0.104666  -0.002136  4.015973  -0.002
C  C128  1  0.39343925  0.15413632  0.30862463  1  -0.049208  -0.005885  -0.074679  -0.170369  -0.003981  3.940057  -0.005
C  C129  1  0.08461939  0.34574523  0.69124915  1  -0.079537  -0.005915  -0.074557  -0.170363  -0.004  3.93959  -0.005
C  C130  1  0.60654285  0.84586161  0.69137030  1  -0.04895  -0.005863  -0.074618  -0.170334  -0.003968  3.939944  -0.005
C  C131  1  0.91537707  0.65425114  0.30875068  1  -0.079465  0.005859  -0.074478  -0.170162  0.004202  3.93944  0.005
C  C132  1  0.41997584  0.15633999  0.40826195  1  0.498605  0.001245  0.054689  0.104756  0.000164  3.920417  0.001
C  C133  1  0.01154321  0.34360428  0.59163630  1  0.542473  0.001271  0.054708  0.105125  0.000108  3.917992  0.001
C  C134  1  0.58001328  0.84365330  0.59173311  1  0.498707  0.001209  0.054741  0.104796  0.000134  3.920227  0.001
C  C135  1  0.98845472  0.65639672  0.40836445  1  0.542604  -0.001243  0.05467  0.104995  0.000162  3.918093  -0.001
C  C136  1  0.65753163  0.12875464  0.81790156  1  0.441894  0.000631  0.052056  0.098724  -1.8e-05  3.923465  0.001
C  C137  1  0.83963118  0.37126777  0.18214505  1  0.483367  0.000703  0.052252  0.098501  -9e-06  3.921994  0.001
C  C138  1  0.34247555  0.87124713  0.18210451  1  0.441826  0.00065  0.052014  0.098636  -3e-06  3.923813  0.001
C  C139  1  0.16037192  0.62873093  0.81785205  1  0.482978  -0.000726  0.052312  0.098542  0.000231  3.921998  -0.001
C  C140  1  0.66499871  0.12026754  0.90778714  1  -0.019559  -0.005262  -0.075647  -0.172267  -0.003613  3.931096  -0.004
C  C141  1  0.75715680  0.37978461  0.09227363  1  -0.048242  -0.005361  -0.075995  -0.172294  -0.003652  3.928473  -0.004
C  C142  1  0.33500425  0.87973269  0.09221848  1  -0.01994  -0.00525  -0.075638  -0.172125  -0.003609  3.931288  -0.004
C  C143  1  0.24284089  0.62021177  0.90772329  1  -0.047826  0.005345  -0.076027  -0.172414  0.003864  3.92862  0.004
C  C144  1  0.56941025  0.12289964  0.92313350  1  -0.016388  0.002633  0.005855  0.098142  0.001866  4.024119  0.002
C  C145  1  0.64621435  0.37717070  0.07691022  1  -0.007718  0.002635  0.006242  0.099747  0.001865  4.020061  0.002
C  C146  1  0.43058791  0.87709750  0.07686574  1  -0.016388  0.002633  0.005818  0.097977  0.00186  4.024255  0.002
C  C147  1  0.35378478  0.62282567  0.92308899  1  -0.007554  -0.002629  0.006268  0.099753  -0.001743  4.02001  -0.002
C  C148  1  0.46956060  0.13292125  0.84584310  1  -0.008369  -0.00559  -0.073215  -0.149043  -0.003824  3.912421  -0.004
C  C149  1  0.62375742  0.36716055  0.15426959  1  -0.03565  -0.005726  -0.073034  -0.149583  -0.003886  3.912898  -0.005
C  C150  1  0.53044079  0.86707667  0.15415460  1  -0.008354  -0.005712  -0.073171  -0.14901  -0.00389  3.912477  -0.005
C  C151  1  0.37624354  0.63283582  0.84573061  1  -0.035178  0.005693  -0.072939  -0.149499  0.004116  3.913183  0.005
C  C152  1  0.46849594  0.13953123  0.75754608  1  0.477066  -1.7e-05  0.050985  0.099299  -0.000727  3.908661  0.0
C  C153  1  0.71098358  0.36051831  0.24255488  1  0.48505  -7e-05  0.050589  0.098304  -0.000748  3.911259  0.0
C  C154  1  0.53150972  0.86046515  0.24245222  1  0.477343  -1.1e-05  0.050942  0.099254  -0.000714  3.908582  0.0
C  C155  1  0.28902124  0.63948115  0.75744909  1  0.484589  5.4e-05  0.050613  0.098371  0.000992  3.911645  0.0
C  C156  1  0.57962015  0.12105625  0.02096246  1  0.591982  -0.000291  0.084573  0.068444  -0.000146  3.880653  0.0
C  C157  1  0.55854335  0.37893224  0.97901141  1  0.61736  -0.000434  0.084345  0.06662  -0.000258  3.879779  0.0
C  C158  1  0.42037119  0.87894090  0.97903575  1  0.59211  -0.00031  0.08468  0.068655  -0.000182  3.880587  0.0
C  C159  1  0.44145881  0.62106644  0.02099054  1  0.617269  0.000431  0.084381  0.066614  0.000309  3.87977  0.0
C  C160  1  0.45341398  0.14882441  0.17468633  1  0.623155  -0.000533  0.078594  0.042774  -0.000332  3.91663  -0.001
C  C161  1  0.27857286  0.35111657  0.82520739  1  0.586287  -0.000478  0.07851  0.042179  -0.000302  3.914735  0.0
C  C162  1  0.54656654  0.85117815  0.82530399  1  0.62381  -0.000567  0.078645  0.042785  -0.000359  3.916654  -0.001
C  C163  1  0.72142909  0.64888211  0.17479683  1  0.586186  0.00053  0.078427  0.042061  0.000369  3.914402  0.0
N  N164  1  0.52600148  0.15970196  0.47928496  1  -1.181464  -0.081498  -0.336337  -0.215234  -0.055548  3.596937  -0.071
N  N165  1  0.04657817  0.34026075  0.52062662  1  -1.206767  -0.081363  -0.336359  -0.21508  -0.055471  3.597001  -0.07
N  N166  1  0.47398642  0.84028594  0.52070427  1  -1.181422  -0.081438  -0.336286  -0.215135  -0.055509  3.596849  -0.071
N  N167  1  0.95342480  0.65975105  0.47938095  1  -1.206836  0.081299  -0.336378  -0.21507  0.058755  3.596971  0.07
N  N168  1  0.56092827  0.13772386  0.74399910  1  -1.17642  -0.084135  -0.332978  -0.195553  -0.057375  3.568053  -0.072
N  N169  1  0.81695839  0.36231363  0.25608238  1  -1.188786  -0.083954  -0.332419  -0.194916  -0.057212  3.567992  -0.072
N  N170  1  0.43907834  0.86227251  0.25600179  1  -1.176635  -0.084129  -0.332946  -0.195475  -0.057371  3.568013  -0.072
N  N171  1  0.18304754  0.63768660  0.74391710  1  -1.188452  0.083934  -0.332496  -0.194865  0.060611  3.56799  0.072
N  N172  1  0.49632741  0.13006059  0.04295756  1  -0.763294  0.000554  -0.211804  -0.180034  0.000352  3.29047  0.0
N  N173  1  0.45323832  0.36994378  0.95697536  1  -0.767466  0.000423  -0.211834  -0.179634  0.000276  3.289587  0.0
N  N174  1  0.50366246  0.86994042  0.95703761  1  -0.763275  0.000431  -0.211794  -0.180109  0.000289  3.290544  0.0
N  N175  1  0.54675950  0.63004951  0.04302594  1  -0.767404  -0.000574  -0.211819  -0.179587  -0.000331  3.28972  0.0
N  N176  1  0.52999114  0.13398832  0.14413166  1  -0.75837  0.001046  -0.197008  -0.143352  0.000736  3.358713  0.001
N  N177  1  0.38570301  0.36596506  0.85576115  1  -0.731644  0.00084  -0.196824  -0.143348  0.000585  3.356783  0.001
N  N178  1  0.46999493  0.86601347  0.85586320  1  -0.758908  0.000851  -0.197173  -0.1435  0.000554  3.358869  0.001
N  N179  1  0.61428985  0.63402900  0.14423950  1  -0.731604  -0.000713  -0.196808  -0.143331  -0.000398  3.356352  -0.001
O  O180  1  0.30848957  0.89755216  0.36338278  1  -1.127136  -0.10172  -0.330976  -0.572087  -0.066373  2.429228  -0.093
O  O181  1  0.94513369  0.60258569  0.63678749  1  -1.143544  0.10126  -0.330885  -0.571621  0.070174  2.428876  0.092
O  O182  1  0.69152167  0.10245809  0.63662606  1  -1.127297  -0.101757  -0.330899  -0.571828  -0.066397  2.429204  -0.093
O  O183  1  0.05486955  0.39741300  0.36321059  1  -1.143619  -0.101294  -0.330855  -0.571592  -0.066142  2.428977  -0.092
O  O184  1  0.37250307  0.04505378  0.52132556  1  -1.185203  -0.005721  -0.324343  -0.599747  -0.00358  2.350229  -0.007
O  O185  1  0.85129383  0.45507670  0.47881914  1  -1.19157  -0.001798  -0.32407  -0.59979  -0.001531  2.350032  -0.002
O  O186  1  0.62750275  0.95495262  0.47868108  1  -1.184854  -0.005719  -0.324284  -0.599647  -0.003577  2.350383  -0.007
O  O187  1  0.14870576  0.54492277  0.52117960  1  -1.191956  0.001797  -0.324066  -0.599714  0.001763  2.350073  0.002
O  O188  1  0.83578681  0.21654222  0.34917837  1  -1.122601  -0.107485  -0.339941  -0.569876  -0.069933  2.269762  -0.097
O  O189  1  0.48648088  0.28337304  0.65071541  1  -1.108926  -0.107868  -0.340046  -0.568993  -0.07027  2.27039  -0.097
O  O190  1  0.16425407  0.78343794  0.65081737  1  -1.122811  0.107368  -0.339778  -0.569724  0.074098  2.269739  0.097
O  O191  1  0.51356199  0.71664494  0.34928475  1  -1.108991  -0.107764  -0.339894  -0.568875  -0.070213  2.270721  -0.097
O  O192  1  0.86610751  0.14905258  0.20358824  1  -1.179149  -0.001489  -0.354988  -0.590269  -0.000576  2.06975  -0.002
O  O193  1  0.66241197  0.35095036  0.79622402  1  -1.190633  -0.001481  -0.354194  -0.588572  -0.000573  2.069812  -0.002
O  O194  1  0.13382203  0.85093540  0.79633760  1  -1.178455  0.001403  -0.354928  -0.590208  0.000682  2.069295  0.002
O  O195  1  0.33757329  0.64906674  0.20387057  1  -1.19041  -0.001425  -0.35426  -0.58861  -0.000535  2.069897  -0.002
