# generated using pymatgen
data_PrH19C32N4O5
_symmetry_space_group_name_H-M   'P 1'
_cell_length_a   8.79795430
_cell_length_b   8.79796570
_cell_length_c   17.34172417
_cell_angle_alpha   91.78419187
_cell_angle_beta   91.78379679
_cell_angle_gamma   106.28001700
_symmetry_Int_Tables_number   1
_chemical_formula_structural   PrH19C32N4O5
_chemical_formula_sum   'Pr2 H38 C64 N8 O10'
_cell_volume   1286.76130719
_cell_formula_units_Z   2
loop_
 _symmetry_equiv_pos_site_id
 _symmetry_equiv_pos_as_xyz
  1  'x, y, z'
loop_
 _atom_site_type_symbol
 _atom_site_label
 _atom_site_symmetry_multiplicity
 _atom_site_fract_x
 _atom_site_fract_y
 _atom_site_fract_z
 _atom_site_occupancy
 _atom_site_hle17_bader_spin_density
 _atom_site_hle17_ddec_charge
 _atom_site_hle17_ddec_spin_density
 _atom_site_hle17_ddec_sum_bond_order
 _atom_site_hle17_magmom
 _atom_site_hse06_10hf_bader_spin_density
 _atom_site_hse06_10hf_ddec_charge
 _atom_site_hse06_10hf_ddec_spin_density
 _atom_site_hse06_10hf_ddec_sum_bond_order
 _atom_site_hse06_10hf_magmom
 _atom_site_hse06_bader_spin_density
 _atom_site_hse06_ddec_charge
 _atom_site_hse06_ddec_spin_density
 _atom_site_hse06_ddec_sum_bond_order
 _atom_site_hse06_magmom
 _atom_site_pbe_bader_spin_density
 _atom_site_pbe_cm5_charge
 _atom_site_pbe_ddec_charge
 _atom_site_pbe_ddec_spin_density
 _atom_site_pbe_ddec_sum_bond_order
 _atom_site_pbe_magmom
Pr  Pr0  1  0.29036036  0.70964049  0.74999943  1  0  2.085355  0  1.816184  0  0  1.843234  0  2.375149  0  0  1.895354  0  2.319038  0  0  1.483385  1.803765  0  2.418247  0
Pr  Pr1  1  0.70963921  0.29035962  0.25000030  1  0  2.085332  0  1.816218  0  0  1.843211  0  2.375171  0  0  1.895304  0  2.319111  0  0  1.48336  1.803733  0  2.418295  0
H  H2  1  0.22031119  0.17527080  0.78514659  1  0  0.11119  0  0.968826  0  0  0.122362  0  1.031537  0  0  0.126242  0  1.028761  0  0  0.10539  0.119569  0  1.033669  0
H  H3  1  0.82473091  0.77968916  0.71485376  1  0  0.111191  0  0.968859  0  0  0.122381  0  1.031542  0  0  0.12626  0  1.028767  0  0  0.105399  0.119587  0  1.033678  0
H  H4  1  0.77968871  0.82473049  0.21485374  1  0  0.111189  0  0.968846  0  0  0.122376  0  1.03153  0  0  0.126255  0  1.028755  0  0  0.105395  0.119585  0  1.033662  0
H  H5  1  0.17527092  0.22031093  0.28514774  1  0  0.111234  0  0.968804  0  0  0.122388  0  1.03154  0  0  0.126268  0  1.028764  0  0  0.105392  0.119598  0  1.033672  0
H  H6  1  0.75643374  0.24356657  0.75000091  1  0  0.102078  0  0.95245  0  0  0.109963  0  1.019822  0  0  0.113884  0  1.017134  0  0  0.100352  0.107123  0  1.021842  0
H  H7  1  0.24356546  0.75643232  0.25000168  1  0  0.102082  0  0.952456  0  0  0.109964  0  1.019834  0  0  0.113884  0  1.017148  0  0  0.100364  0.107125  0  1.021851  0
H  H8  1  0.08783456  0.85671592  0.88561802  1  0  0.078091  0  0.960374  0  0  0.085124  0  1.02559  0  0  0.087424  0  1.024256  0  0  0.120127  0.08341  0  1.026577  0
H  H9  1  0.14328257  0.91216934  0.61438088  1  0  0.078103  0  0.960389  0  0  0.085122  0  1.025619  0  0  0.087421  0  1.024288  0  0  0.120122  0.083414  0  1.02661  0
H  H10  1  0.91216696  0.14328301  0.11438114  1  0  0.078087  0  0.960316  0  0  0.085113  0  1.025548  0  0  0.087412  0  1.024216  0  0  0.12012  0.083403  0  1.02653  0
H  H11  1  0.85671587  0.08783078  0.38561826  1  0  0.078052  0  0.960346  0  0  0.085069  0  1.025583  0  0  0.087368  0  1.024252  0  0  0.120098  0.083362  0  1.026564  0
H  H12  1  0.06987158  0.92622480  0.02630183  1  0  0.098376  0  0.951758  0  0  0.111693  0  1.006631  0  0  0.114548  0  1.006317  0  0  0.10587  0.109623  0  1.007024  0
H  H13  1  0.07377041  0.93012797  0.47369749  1  0  0.098446  0  0.951635  0  0  0.111737  0  1.006541  0  0  0.114588  0  1.006234  0  0  0.10588  0.109672  0  1.006934  0
H  H14  1  0.93012848  0.07377295  0.97369671  1  0  0.098384  0  0.951724  0  0  0.111696  0  1.006608  0  0  0.11455  0  1.006295  0  0  0.105875  0.109624  0  1.006997  0
H  H15  1  0.92622869  0.06987451  0.52630227  1  0  0.098372  0  0.951733  0  0  0.111679  0  1.006625  0  0  0.114536  0  1.006311  0  0  0.105871  0.10961  0  1.007014  0
H  H16  1  0.28379570  0.89924691  0.11973286  1  0  0.106761  0  0.964593  0  0  0.116264  0  1.027443  0  0  0.118474  0  1.026666  0  0  0.109202  0.114618  0  1.028016  0
H  H17  1  0.10074791  0.71620395  0.38026662  1  0  0.106762  0  0.96462  0  0  0.11627  0  1.027477  0  0  0.11848  0  1.02671  0  0  0.109204  0.114626  0  1.028043  0
H  H18  1  0.71620403  0.10074966  0.88026565  1  0  0.106766  0  0.964637  0  0  0.116274  0  1.027492  0  0  0.118484  0  1.026721  0  0  0.109199  0.11463  0  1.028061  0
H  H19  1  0.89924859  0.28379735  0.61973308  1  0  0.106753  0  0.964581  0  0  0.116254  0  1.027442  0  0  0.11846  0  1.026676  0  0  0.109192  0.114611  0  1.028007  0
H  H20  1  0.52542668  0.81764798  0.14368047  1  0  0.114784  0  0.949657  0  0  0.125855  0  1.009994  0  0  0.129199  0  1.007873  0  0  0.110008  0.123343  0  1.011729  0
H  H21  1  0.18234794  0.47457148  0.35631786  1  0  0.114844  0  0.949592  0  0  0.125901  0  1.009923  0  0  0.129246  0  1.007801  0  0  0.110059  0.123389  0  1.011654  0
H  H22  1  0.47457077  0.18234858  0.85631858  1  0  0.11484  0  0.949597  0  0  0.125887  0  1.009938  0  0  0.129231  0  1.007818  0  0  0.110053  0.123377  0  1.01167  0
H  H23  1  0.81764937  0.52542864  0.64368125  1  0  0.114834  0  0.949657  0  0  0.125886  0  1.009992  0  0  0.129229  0  1.007872  0  0  0.110052  0.123375  0  1.011724  0
H  H24  1  0.72699461  0.68963798  0.09571775  1  0  0.116964  0  0.980011  0  0  0.124946  0  1.044296  0  0  0.128764  0  1.041888  0  0  0.104174  0.122135  0  1.046146  0
H  H25  1  0.31035698  0.27300527  0.40428174  1  0  0.117006  0  0.980036  0  0  0.124976  0  1.044325  0  0  0.128793  0  1.041917  0  0  0.104186  0.12217  0  1.04617  0
H  H26  1  0.27300182  0.31035502  0.90428237  1  0  0.116982  0  0.979994  0  0  0.124954  0  1.044295  0  0  0.128771  0  1.041886  0  0  0.104173  0.122148  0  1.046136  0
H  H27  1  0.68963803  0.72699483  0.59571906  1  0  0.11697  0  0.980055  0  0  0.125005  0  1.044273  0  0  0.128823  0  1.041864  0  0  0.104184  0.122197  0  1.046118  0
H  H28  1  0.85000159  0.59017053  0.98593158  1  0  0.102193  0  0.92288  0  0  0.116713  0  0.975131  0  0  0.119582  0  0.973616  0  0  0.111655  0.114616  0  0.976285  0
H  H29  1  0.40982494  0.14999982  0.51406830  1  0  0.102165  0  0.922907  0  0  0.116711  0  0.975131  0  0  0.119581  0  0.973613  0  0  0.111664  0.114593  0  0.97631  0
H  H30  1  0.14999810  0.40982600  0.01406982  1  0  0.102181  0  0.922899  0  0  0.116713  0  0.975139  0  0  0.119582  0  0.973624  0  0  0.111673  0.114607  0  0.976298  0
H  H31  1  0.59017007  0.85000028  0.48593249  1  0  0.102163  0  0.922897  0  0  0.116685  0  0.975152  0  0  0.119554  0  0.973637  0  0  0.11165  0.114585  0  0.97631  0
H  H32  1  0.85055985  0.53280772  0.84163144  1  0  0.119412  0  0.961164  0  0  0.129435  0  1.017384  0  0  0.13265  0  1.016579  0  0  0.111747  0.127081  0  1.018145  0
H  H33  1  0.46719128  0.14944584  0.65836848  1  0  0.119352  0  0.961144  0  0  0.129375  0  1.017369  0  0  0.132592  0  1.016563  0  0  0.111741  0.127021  0  1.018132  0
H  H34  1  0.14944539  0.46719238  0.15837012  1  0  0.119367  0  0.961168  0  0  0.129425  0  1.01735  0  0  0.132645  0  1.016543  0  0  0.111758  0.127071  0  1.018114  0
H  H35  1  0.53280896  0.85055664  0.34163130  1  0  0.119339  0  0.961186  0  0  0.129383  0  1.017385  0  0  0.132599  0  1.01658  0  0  0.111735  0.127026  0  1.018153  0
H  H36  1  0.63909638  0.58613875  0.75766526  1  0  0.071639  0  0.95231  0  0  0.080473  0  1.018336  0  0  0.083023  0  1.015763  0  0  0.121183  0.07866  0  1.020078  0
H  H37  1  0.41385933  0.36091303  0.74233402  1  0  0.071643  0  0.952247  0  0  0.080454  0  1.018289  0  0  0.083004  0  1.015713  0  0  0.121185  0.078641  0  1.020029  0
H  H38  1  0.36091048  0.41385899  0.24233455  1  0  0.071631  0  0.95226  0  0  0.080448  0  1.018303  0  0  0.082996  0  1.015731  0  0  0.121185  0.078639  0  1.020034  0
H  H39  1  0.58614044  0.63909182  0.25766580  1  0  0.071636  0  0.952301  0  0  0.08043  0  1.018363  0  0  0.082981  0  1.015786  0  0  0.121174  0.078616  0  1.0201  0
C  C40  1  0.07238268  0.40211019  0.77709094  1  0  0.620367  0  3.958729  0  0  0.577746  0  4.243852  0  0  0.610987  0  4.235527  0  0  0.182611  0.555313  0  4.24843  0
C  C41  1  0.59788921  0.92761529  0.72290826  1  0  0.620438  0  3.958706  0  0  0.577784  0  4.243845  0  0  0.611024  0  4.23552  0  0  0.182602  0.555345  0  4.248435  0
C  C42  1  0.92761687  0.59788990  0.22291052  1  0  0.620376  0  3.958757  0  0  0.577734  0  4.2439  0  0  0.610974  0  4.235574  0  0  0.182577  0.555295  0  4.248486  0
C  C43  1  0.40211050  0.07238127  0.27709083  1  0  0.620323  0  3.958832  0  0  0.577686  0  4.243982  0  0  0.610925  0  4.235656  0  0  0.182555  0.555253  0  4.248568  0
C  C44  1  0.99674595  0.22773007  0.76702573  1  0  -0.043065  0  3.818866  0  0  -0.019247  0  4.053391  0  0  -0.023961  0  4.074959  0  0  -0.027872  -0.016194  0  4.038682  0
C  C45  1  0.77226909  0.00325449  0.73297446  1  0  -0.043147  0  3.818934  0  0  -0.019257  0  4.053367  0  0  -0.02397  0  4.074931  0  0  -0.027879  -0.016207  0  4.038669  0
C  C46  1  0.00325327  0.77226884  0.23297570  1  0  -0.043041  0  3.818834  0  0  -0.019197  0  4.053326  0  0  -0.023908  0  4.074887  0  0  -0.027871  -0.016145  0  4.038624  0
C  C47  1  0.22773160  0.99674560  0.26702644  1  0  -0.043019  0  3.818829  0  0  -0.019188  0  4.053326  0  0  -0.023898  0  4.074888  0  0  -0.027849  -0.016147  0  4.038638  0
C  C48  1  0.09483035  0.12736364  0.76984845  1  0  -0.20858  0  3.679869  0  0  -0.240011  0  3.926438  0  0  -0.243973  0  3.944545  0  0  -0.104018  -0.237131  0  3.91423  0
C  C49  1  0.87263589  0.90516929  0.73015256  1  0  -0.208586  0  3.679936  0  0  -0.240046  0  3.92647  0  0  -0.244009  0  3.944577  0  0  -0.104024  -0.237166  0  3.914269  0
C  C50  1  0.90516886  0.87263527  0.23015298  1  0  -0.208631  0  3.679877  0  0  -0.240072  0  3.926444  0  0  -0.244035  0  3.94455  0  0  -0.104026  -0.237196  0  3.91424  0
C  C51  1  0.12736446  0.09482962  0.26984889  1  0  -0.208685  0  3.679903  0  0  -0.240101  0  3.926481  0  0  -0.244063  0  3.944588  0  0  -0.104035  -0.237224  0  3.914282  0
C  C52  1  0.03617619  0.96382535  0.75000046  1  0  0.386  0  3.946148  0  0  0.381992  0  4.201171  0  0  0.395774  0  4.215529  0  0  0.082791  0.372336  0  4.191217  0
C  C53  1  0.96382450  0.03617474  0.25000102  1  0  0.38604  0  3.946093  0  0  0.382013  0  4.201145  0  0  0.395795  0  4.215503  0  0  0.082768  0.372366  0  4.191182  0
C  C54  1  0.83378964  0.16621034  0.75000019  1  0  -0.145242  0  3.769983  0  0  -0.17954  0  4.02494  0  0  -0.180447  0  4.043203  0  0  -0.106987  -0.178661  0  4.012494  0
C  C55  1  0.16620991  0.83378975  0.25000127  1  0  -0.14526  0  3.76994  0  0  -0.179546  0  4.024911  0  0  -0.180453  0  4.043172  0  0  -0.106979  -0.178661  0  4.012464  0
C  C56  1  0.17585255  0.84247168  0.92840184  1  0  0.142654  0  3.728778  0  0  0.113294  0  3.985582  0  0  0.121105  0  4.002005  0  0  0.060115  0.108324  0  3.974174  0
C  C57  1  0.15752482  0.82414835  0.57159910  1  0  0.14256  0  3.728852  0  0  0.11321  0  3.985642  0  0  0.12102  0  4.002065  0  0  0.060074  0.108224  0  3.97425  0
C  C58  1  0.82414897  0.15752725  0.07159790  1  0  0.14263  0  3.728684  0  0  0.113271  0  3.985495  0  0  0.121082  0  4.001915  0  0  0.060099  0.108294  0  3.974094  0
C  C59  1  0.84247246  0.17585175  0.42840174  1  0  0.142662  0  3.728702  0  0  0.113324  0  3.985503  0  0  0.121134  0  4.001926  0  0  0.060114  0.108347  0  3.974108  0
C  C60  1  0.16735178  0.88278817  0.00696732  1  0  -0.125672  0  3.754396  0  0  -0.13867  0  4.008703  0  0  -0.145735  0  4.029869  0  0  -0.086198  -0.134096  0  3.994373  0
C  C61  1  0.11720893  0.83264912  0.49303239  1  0  -0.125694  0  3.754239  0  0  -0.138649  0  4.00854  0  0  -0.145713  0  4.029704  0  0  -0.086166  -0.13408  0  3.994219  0
C  C62  1  0.83264860  0.11721076  0.99303182  1  0  -0.125646  0  3.754291  0  0  -0.138629  0  4.008605  0  0  -0.145693  0  4.029772  0  0  -0.086176  -0.13405  0  3.994268  0
C  C63  1  0.88278836  0.16735099  0.50696730  1  0  -0.125618  0  3.754267  0  0  -0.138606  0  4.00857  0  0  -0.145673  0  4.029738  0  0  -0.086164  -0.13403  0  3.994238  0
C  C64  1  0.28412710  0.86694860  0.05854904  1  0  -0.039873  0  3.674291  0  0  -0.064741  0  3.920625  0  0  -0.062168  0  3.939148  0  0  -0.062536  -0.066142  0  3.907995  0
C  C65  1  0.13304793  0.71587106  0.44145096  1  0  -0.03991  0  3.67443  0  0  -0.064786  0  3.920797  0  0  -0.062219  0  3.939323  0  0  -0.062561  -0.066181  0  3.908162  0
C  C66  1  0.71587067  0.13304915  0.94145004  1  0  -0.039958  0  3.674385  0  0  -0.064838  0  3.920743  0  0  -0.062272  0  3.93927  0  0  -0.062582  -0.066239  0  3.90811  0
C  C67  1  0.86694970  0.28413024  0.55854875  1  0  -0.039882  0  3.674306  0  0  -0.064742  0  3.920645  0  0  -0.062171  0  3.939167  0  0  -0.062535  -0.06614  0  3.908006  0
C  C68  1  0.40612240  0.80604448  0.03169872  1  0  0.026485  0  3.786614  0  0  0.042946  0  4.01764  0  0  0.04023  0  4.04255  0  0  0.000892  0.044566  0  4.000892  0
C  C69  1  0.19394937  0.59387655  0.46829919  1  0  0.02651  0  3.786466  0  0  0.042906  0  4.01761  0  0  0.040188  0  4.042524  0  0  0.000863  0.044512  0  4.000873  0
C  C70  1  0.59387620  0.19395210  0.96829919  1  0  0.026507  0  3.786487  0  0  0.042921  0  4.01755  0  0  0.040204  0  4.04246  0  0  0.000882  0.04453  0  4.000812  0
C  C71  1  0.80604420  0.40612239  0.53169926  1  0  0.026449  0  3.786675  0  0  0.042865  0  4.017728  0  0  0.040148  0  4.042637  0  0  0.00085  0.044473  0  4.000988  0
C  C72  1  0.52690849  0.78155710  0.08295834  1  0  -0.095363  0  3.725707  0  0  -0.119743  0  3.983586  0  0  -0.12313  0  4.006912  0  0  -0.082781  -0.117349  0  3.967874  0
C  C73  1  0.21843990  0.47308869  0.41704050  1  0  -0.095442  0  3.725616  0  0  -0.119747  0  3.983481  0  0  -0.123133  0  4.006804  0  0  -0.082835  -0.117344  0  3.967764  0
C  C74  1  0.47308896  0.21843947  0.91704014  1  0  -0.095384  0  3.725638  0  0  -0.119698  0  3.9835  0  0  -0.123085  0  4.006824  0  0  -0.082827  -0.117301  0  3.967786  0
C  C75  1  0.78155639  0.52690786  0.58295968  1  0  -0.095439  0  3.725664  0  0  -0.119766  0  3.983545  0  0  -0.123153  0  4.006868  0  0  -0.082826  -0.117365  0  3.967827  0
C  C76  1  0.63938079  0.71575900  0.05618102  1  0  -0.105266  0  3.729792  0  0  -0.130877  0  3.990033  0  0  -0.134572  0  4.012609  0  0  -0.088063  -0.128276  0  3.974783  0
C  C77  1  0.28423401  0.36061673  0.44381802  1  0  -0.105356  0  3.729935  0  0  -0.130978  0  3.990178  0  0  -0.134674  0  4.012754  0  0  -0.088094  -0.128383  0  3.974934  0
C  C78  1  0.36061711  0.28423518  0.94381858  1  0  -0.105351  0  3.729854  0  0  -0.130985  0  3.990085  0  0  -0.134679  0  4.01266  0  0  -0.088091  -0.128386  0  3.974832  0
C  C79  1  0.71575807  0.63938100  0.55618211  1  0  -0.105306  0  3.729837  0  0  -0.130972  0  3.99007  0  0  -0.134667  0  4.012644  0  0  -0.088101  -0.128375  0  3.974819  0
C  C80  1  0.64250554  0.67556590  0.97578768  1  0  0.024043  0  3.789471  0  0  0.040104  0  4.022261  0  0  0.037961  0  4.046871  0  0  -0.002158  0.04139  0  4.005624  0
C  C81  1  0.32442611  0.35749646  0.52421209  1  0  0.023992  0  3.789469  0  0  0.04008  0  4.022276  0  0  0.037937  0  4.046885  0  0  -0.002146  0.041356  0  4.005647  0
C  C82  1  0.35749431  0.32442710  0.02421193  1  0  0.024004  0  3.789471  0  0  0.040114  0  4.022229  0  0  0.037972  0  4.046837  0  0  -0.002124  0.041395  0  4.005595  0
C  C83  1  0.67556595  0.64250125  0.47578919  1  0  0.024004  0  3.78956  0  0  0.040064  0  4.022399  0  0  0.037921  0  4.047009  0  0  -0.002143  0.041349  0  4.005761  0
C  C84  1  0.76026366  0.61157951  0.94614451  1  0  -0.048818  0  3.697397  0  0  -0.073652  0  3.946777  0  0  -0.071533  0  3.96489  0  0  -0.062122  -0.074764  0  3.934328  0
C  C85  1  0.38841522  0.23973780  0.55385556  1  0  -0.048813  0  3.69727  0  0  -0.073681  0  3.946657  0  0  -0.071564  0  3.964772  0  0  -0.062196  -0.074772  0  3.934209  0
C  C86  1  0.23973683  0.38841584  0.05385688  1  0  -0.048827  0  3.697416  0  0  -0.073691  0  3.946803  0  0  -0.071575  0  3.964919  0  0  -0.06219  -0.07479  0  3.934347  0
C  C87  1  0.61157979  0.76026229  0.44614524  1  0  -0.048782  0  3.697375  0  0  -0.073624  0  3.946775  0  0  -0.071505  0  3.964888  0  0  -0.062138  -0.07473  0  3.934324  0
C  C88  1  0.76033799  0.57854480  0.86781318  1  0  -0.117395  0  3.724049  0  0  -0.129517  0  3.977452  0  0  -0.136281  0  3.998683  0  0  -0.081317  -0.12514  0  3.963175  0
C  C89  1  0.42145129  0.23966874  0.63218695  1  0  -0.117198  0  3.723964  0  0  -0.129313  0  3.977355  0  0  -0.136079  0  3.998589  0  0  -0.08119  -0.124931  0  3.963067  0
C  C90  1  0.23966512  0.42145174  0.13218770  1  0  -0.117256  0  3.724163  0  0  -0.129398  0  3.977559  0  0  -0.136167  0  3.998796  0  0  -0.081257  -0.125025  0  3.963283  0
C  C91  1  0.57854586  0.76033491  0.36781396  1  0  -0.117273  0  3.724043  0  0  -0.129398  0  3.977424  0  0  -0.136163  0  3.998655  0  0  -0.081288  -0.125024  0  3.96315  0
C  C92  1  0.64126522  0.60917114  0.81989807  1  0  0.144753  0  3.722924  0  0  0.113882  0  3.982843  0  0  0.120863  0  4.000161  0  0  0.060641  0.1094  0  3.970975  0
C  C93  1  0.39082642  0.35874016  0.68010175  1  0  0.144633  0  3.722862  0  0  0.113802  0  3.98275  0  0  0.120783  0  4.00007  0  0  0.060581  0.109317  0  3.970879  0
C  C94  1  0.35873971  0.39082779  0.18010174  1  0  0.144679  0  3.722891  0  0  0.113828  0  3.982808  0  0  0.120808  0  4.000129  0  0  0.060619  0.109343  0  3.970943  0
C  C95  1  0.60917233  0.64126113  0.31989914  1  0  0.144637  0  3.722948  0  0  0.1138  0  3.982869  0  0  0.120783  0  4.000186  0  0  0.06062  0.109327  0  3.97099  0
C  C96  1  0.52657243  0.70182549  0.92257234  1  0  0.143487  0  3.732519  0  0  0.139446  0  3.969092  0  0  0.14358  0  3.989922  0  0  0.12489  0.136682  0  3.954985  0
C  C97  1  0.29816839  0.47342795  0.57742652  1  0  0.143646  0  3.732552  0  0  0.139567  0  3.969221  0  0  0.143702  0  3.990051  0  0  0.125017  0.136804  0  3.955108  0
C  C98  1  0.47342876  0.29817226  0.07742679  1  0  0.143621  0  3.732591  0  0  0.139532  0  3.969218  0  0  0.143666  0  3.990048  0  0  0.124981  0.136769  0  3.955108  0
C  C99  1  0.70182516  0.52657096  0.42257365  1  0  0.143667  0  3.732649  0  0  0.139583  0  3.969305  0  0  0.143718  0  3.990135  0  0  0.125011  0.136818  0  3.955193  0
C  C100  1  0.40404203  0.76592942  0.95142025  1  0  0.141424  0  3.737384  0  0  0.136483  0  3.974948  0  0  0.14083  0  3.995549  0  0  0.124558  0.133585  0  3.960997  0
C  C101  1  0.23406505  0.59595944  0.54857898  1  0  0.141509  0  3.737162  0  0  0.136554  0  3.974809  0  0  0.140902  0  3.99541  0  0  0.124624  0.133664  0  3.960853  0
C  C102  1  0.59595916  0.23406834  0.04857831  1  0  0.141439  0  3.737255  0  0  0.136541  0  3.9748  0  0  0.14089  0  3.995399  0  0  0.124588  0.133649  0  3.960848  0
C  C103  1  0.76592997  0.40404067  0.45142067  1  0  0.141484  0  3.737319  0  0  0.136579  0  3.97488  0  0  0.140927  0  3.995479  0  0  0.124612  0.133687  0  3.960928  0
N  N104  1  0.29036718  0.78650731  0.90103243  1  0  -0.411467  0  3.218914  0  0  -0.354081  0  3.479887  0  0  -0.368268  0  3.496516  0  0  -0.367504  -0.344294  0  3.468567  0
N  N105  1  0.21348992  0.70963600  0.59896712  1  0  -0.411491  0  3.219038  0  0  -0.35408  0  3.48002  0  0  -0.368268  0  3.496649  0  0  -0.367534  -0.34429  0  3.468699  0
N  N106  1  0.70963467  0.21349281  0.09896677  1  0  -0.411456  0  3.218946  0  0  -0.354074  0  3.479908  0  0  -0.368258  0  3.496536  0  0  -0.367494  -0.344287  0  3.46859  0
N  N107  1  0.78650657  0.29036529  0.40103258  1  0  -0.411492  0  3.218935  0  0  -0.354115  0  3.479901  0  0  -0.368299  0  3.49653  0  0  -0.36751  -0.344331  0  3.46859  0
N  N108  1  0.52771999  0.66851680  0.84552518  1  0  -0.403429  0  3.209191  0  0  -0.346712  0  3.468841  0  0  -0.361291  0  3.4876  0  0  -0.357917  -0.336644  0  3.456094  0
N  N109  1  0.33147969  0.47228505  0.65447260  1  0  -0.403508  0  3.209377  0  0  -0.346787  0  3.469036  0  0  -0.361368  0  3.487798  0  0  -0.358019  -0.336715  0  3.456275  0
N  N110  1  0.47228381  0.33148215  0.15447287  1  0  -0.403484  0  3.209342  0  0  -0.346763  0  3.469009  0  0  -0.361338  0  3.48777  0  0  -0.358021  -0.336695  0  3.456257  0
N  N111  1  0.66851647  0.52771505  0.34552764  1  0  -0.403465  0  3.209383  0  0  -0.346735  0  3.469033  0  0  -0.361312  0  3.487796  0  0  -0.357991  -0.336669  0  3.456276  0
O  O112  1  0.20333373  0.45203974  0.81696141  1  0  -0.703288  0  2.026643  0  0  -0.648879  0  2.268033  0  0  -0.673367  0  2.26027  0  0  -0.390295  -0.631412  0  2.272763  0
O  O113  1  0.54796187  0.79666618  0.68303830  1  0  -0.703271  0  2.02666  0  0  -0.648884  0  2.268094  0  0  -0.673371  0  2.260331  0  0  -0.39029  -0.631411  0  2.272822  0
O  O114  1  0.79666616  0.54796154  0.18303950  1  0  -0.703306  0  2.026581  0  0  -0.648888  0  2.267966  0  0  -0.673376  0  2.260207  0  0  -0.390293  -0.631414  0  2.272694  0
O  O115  1  0.45203816  0.20333156  0.31696197  1  0  -0.703288  0  2.026687  0  0  -0.648871  0  2.268068  0  0  -0.673355  0  2.260306  0  0  -0.39029  -0.631398  0  2.2728  0
O  O116  1  0.01150013  0.49786226  0.74188432  1  0  -0.683197  0  1.937045  0  0  -0.632457  0  2.175086  0  0  -0.654866  0  2.164425  0  0  -0.365823  -0.616438  0  2.18178  0
O  O117  1  0.50213713  0.98850154  0.75811406  1  0  -0.683252  0  1.937018  0  0  -0.632512  0  2.175078  0  0  -0.654926  0  2.164423  0  0  -0.365806  -0.616489  0  2.181778  0
O  O118  1  0.98850059  0.50213786  0.25811485  1  0  -0.683182  0  1.937092  0  0  -0.632451  0  2.175166  0  0  -0.65486  0  2.164509  0  0  -0.365775  -0.616428  0  2.181862  0
O  O119  1  0.49786133  0.01149859  0.24188392  1  0  -0.68316  0  1.937102  0  0  -0.63242  0  2.175156  0  0  -0.654835  0  2.16451  0  0  -0.365773  -0.616396  0  2.181852  0
O  O120  1  0.12940069  0.87060181  0.75000031  1  0  -0.782526  0  2.1344  0  0  -0.711938  0  2.403547  0  0  -0.737103  0  2.395261  0  0  -0.508463  -0.693372  0  2.408712  0
O  O121  1  0.87060068  0.12940067  0.25000006  1  0  -0.782528  0  2.134339  0  0  -0.711931  0  2.403493  0  0  -0.73709  0  2.395207  0  0  -0.508435  -0.693362  0  2.408653  0
