# generated using pymatgen
data_CoH26(C7N)6
_symmetry_space_group_name_H-M   'P 1'
_cell_length_a   9.34987753
_cell_length_b   19.10451012
_cell_length_c   19.10921752
_cell_angle_alpha   117.40437010
_cell_angle_beta   99.40810241
_cell_angle_gamma   99.37699982
_symmetry_Int_Tables_number   1
_chemical_formula_structural   CoH26(C7N)6
_chemical_formula_sum   'Co3 H78 C126 N18'
_cell_volume   2876.91448494
_cell_formula_units_Z   3
loop_
 _symmetry_equiv_pos_site_id
 _symmetry_equiv_pos_as_xyz
  1  'x, y, z'
loop_
 _atom_site_type_symbol
 _atom_site_label
 _atom_site_symmetry_multiplicity
 _atom_site_fract_x
 _atom_site_fract_y
 _atom_site_fract_z
 _atom_site_occupancy
 _atom_site_pbe_bader_charge
 _atom_site_pbe_bader_spin_density
 _atom_site_pbe_cm5_charge
 _atom_site_pbe_ddec_charge
 _atom_site_pbe_ddec_spin_density
 _atom_site_pbe_ddec_sum_bond_order
 _atom_site_pbe_magmom
Co  Co0  1  0.00000046  0.00000376  0.50000037  1  1.11375  -1.004787  0.668752  0.488613  -1.151773  3.07558  -0.996
Co  Co1  1  0.50000109  0.49999806  0.50000241  1  1.11168  -1.005408  0.667594  0.48479  -1.151985  3.077462  -0.997
Co  Co2  1  0.00000276  0.49999803  0.99999673  1  1.1138  1.004296  0.668631  0.487869  1.275101  3.076949  0.996
H  H3  1  0.16184819  0.02619606  0.23149470  1  0.063327  -1e-05  0.098489  0.09465  -7e-06  0.998577  0.0
H  H4  1  0.93114513  0.76879233  0.79480157  1  0.064489  -1.3e-05  0.098437  0.09538  -6e-06  0.998001  0.0
H  H5  1  0.13592022  0.20520602  0.97389756  1  0.07772  1.1e-05  0.098139  0.094957  8e-06  0.997785  0.0
H  H6  1  0.83815439  0.97381170  0.76850714  1  0.063298  -1e-05  0.098487  0.09464  -7e-06  0.998679  0.0
H  H7  1  0.06885581  0.23120563  0.20520401  1  0.064552  -1.3e-05  0.098455  0.095387  -6e-06  0.998035  0.0
H  H8  1  0.86408939  0.79479195  0.02610347  1  0.077501  1.1e-05  0.098099  0.094927  8e-06  0.99768  0.0
H  H9  1  0.56991187  0.14604268  0.50255011  1  0.102898  -4.5e-05  0.098211  0.111565  -3.2e-05  1.055805  0.0
H  H10  1  0.06765575  0.49746086  0.64347200  1  0.08705  -6.1e-05  0.098176  0.112398  -4.3e-05  1.054388  0.0
H  H11  1  0.42370541  0.35679684  0.85432145  1  0.093146  6.4e-05  0.098095  0.11175  5.4e-05  1.056758  0.0
H  H12  1  0.43009071  0.85396509  0.49745226  1  0.102672  -4.5e-05  0.098222  0.111609  -3.3e-05  1.055852  0.0
H  H13  1  0.93234566  0.50253588  0.35653514  1  0.087151  -6.1e-05  0.098204  0.112388  -4.2e-05  1.054542  0.0
H  H14  1  0.57629165  0.64319989  0.14567226  1  0.093162  6.4e-05  0.098104  0.11174  5.4e-05  1.05678  0.0
H  H15  1  0.75150456  0.23156326  0.65793007  1  0.086259  -7.7e-05  0.102339  0.122351  -7.6e-05  1.015363  0.0
H  H16  1  0.09405037  0.34209382  0.57366696  1  0.061468  -2.7e-05  0.102304  0.122194  -3.8e-05  1.015164  0.0
H  H17  1  0.51983187  0.42626373  0.76855777  1  0.095308  4.8e-05  0.102112  0.121459  6.8e-05  1.016442  0.0
H  H18  1  0.24849602  0.76844267  0.34207181  1  0.086302  -7.7e-05  0.102337  0.122306  -7.6e-05  1.015312  0.0
H  H19  1  0.90594965  0.65790231  0.42633874  1  0.061539  -2.7e-05  0.102368  0.122288  -3.8e-05  1.015233  0.0
H  H20  1  0.48016504  0.57373056  0.23143532  1  0.095447  4.8e-05  0.102074  0.121391  6.8e-05  1.016473  0.0
H  H21  1  0.82509458  0.18348348  0.78448489  1  0.096793  0.001094  0.106761  0.118142  0.000509  1.004096  0.0
H  H22  1  0.04050265  0.21564891  0.39899566  1  0.083776  -0.001071  0.106655  0.118525  -0.000446  1.004568  0.0
H  H23  1  0.64130061  0.60104104  0.81663512  1  0.085213  -0.001102  0.106853  0.119491  -0.000462  1.00378  0.0
H  H24  1  0.17489672  0.81651693  0.21551005  1  0.096912  0.001094  0.106741  0.118096  0.000509  1.004111  0.0
H  H25  1  0.95950382  0.78435579  0.60100875  1  0.083761  -0.001071  0.106668  0.118562  -0.000446  1.00457  0.0
H  H26  1  0.35869861  0.39895569  0.18336033  1  0.085083  -0.001102  0.106909  0.119521  -0.000462  1.003905  0.0
H  H27  1  0.85031419  0.31295871  0.91387404  1  0.086571  0.001949  0.112587  0.076877  0.000764  1.030857  0.001
H  H28  1  0.93599028  0.08627526  0.39900661  1  0.109877  -0.001907  0.112817  0.076577  -0.00065  1.032524  -0.001
H  H29  1  0.53744883  0.60111991  0.68722355  1  0.096892  -0.001906  0.111915  0.075649  -0.000655  1.033129  -0.001
H  H30  1  0.14967959  0.68704232  0.08612086  1  0.086795  0.001949  0.112577  0.076915  0.000764  1.030897  0.001
H  H31  1  0.06401000  0.91373006  0.60099968  1  0.109776  -0.001907  0.112776  0.076519  -0.000649  1.032478  -0.001
H  H32  1  0.46254253  0.39887193  0.31277059  1  0.096564  -0.001906  0.111891  0.07565  -0.000654  1.033118  -0.001
H  H33  1  0.19623988  0.44258901  0.87406248  1  0.098668  0.002004  0.11557  0.085018  0.000801  1.014161  0.001
H  H34  1  0.32183714  0.12584584  0.56835746  1  0.101042  -0.002011  0.115465  0.085247  -0.000723  1.013498  -0.001
H  H35  1  0.75377060  0.43158648  0.55765152  1  0.101304  -0.002035  0.115458  0.085125  -0.00073  1.013262  -0.001
H  H36  1  0.80375406  0.55741018  0.12593159  1  0.098598  0.002004  0.115577  0.085021  0.0008  1.014139  0.001
H  H37  1  0.67816005  0.87415764  0.43164931  1  0.101086  -0.002011  0.11545  0.085277  -0.000723  1.01348  -0.001
H  H38  1  0.24621967  0.56840536  0.44234149  1  0.10138  -0.002034  0.115464  0.085132  -0.00073  1.013196  -0.001
H  H39  1  0.18544830  0.31892523  0.74304356  1  0.07195  0.001298  0.108945  0.120265  0.000606  0.988207  0.001
H  H40  1  0.44233304  0.25686596  0.57586029  1  0.084839  -0.001235  0.109162  0.121164  -0.000517  0.989022  -0.001
H  H41  1  0.86644470  0.42415872  0.68128573  1  0.075006  -0.001257  0.11033  0.122956  -0.000532  0.987301  -0.001
H  H42  1  0.81454751  0.68107335  0.25695142  1  0.071859  0.001298  0.108977  0.120371  0.000606  0.988199  0.001
H  H43  1  0.55766926  0.74313691  0.42414660  1  0.084923  -0.001235  0.109193  0.121141  -0.000517  0.989075  -0.001
H  H44  1  0.13355592  0.57583863  0.31871011  1  0.075099  -0.001256  0.110328  0.122955  -0.000532  0.987233  -0.001
H  H45  1  0.24812958  0.21179514  0.81093485  1  0.101652  -4.4e-05  0.09885  0.118345  -3.8e-05  1.047984  0.0
H  H46  1  0.43748562  0.18903223  0.40095437  1  0.082977  -1.1e-05  0.099396  0.118842  -2.3e-05  1.048942  0.0
H  H47  1  0.03562436  0.59933390  0.78837218  1  0.084051  3.7e-05  0.098829  0.118119  4.9e-05  1.04883  0.0
H  H48  1  0.75186588  0.78821140  0.18906639  1  0.101759  -4.4e-05  0.098822  0.118228  -3.8e-05  1.048099  0.0
H  H49  1  0.56251516  0.81096757  0.59905360  1  0.083074  -1.1e-05  0.099405  0.118785  -2.3e-05  1.049004  0.0
H  H50  1  0.96437487  0.40066284  0.21162328  1  0.084164  3.7e-05  0.098875  0.118182  4.9e-05  1.04877  0.0
H  H51  1  0.43296391  0.11384833  0.76868788  1  0.086083  -1.5e-05  0.101408  0.119976  -2.4e-05  1.026845  0.0
H  H52  1  0.66434495  0.23128358  0.34516713  1  0.086584  -3.3e-05  0.10079  0.119483  -3.4e-05  1.027463  0.0
H  H53  1  0.31857213  0.65504400  0.88619344  1  0.070645  1.3e-05  0.101152  0.119857  3.8e-05  1.026898  0.0
H  H54  1  0.56703294  0.88615882  0.23131427  1  0.086049  -1.5e-05  0.101351  0.119878  -2.4e-05  1.026867  0.0
H  H55  1  0.33565243  0.76871377  0.65483736  1  0.086558  -3.3e-05  0.100781  0.11947  -3.4e-05  1.027334  0.0
H  H56  1  0.68142509  0.34495090  0.11379840  1  0.070741  1.3e-05  0.101154  0.11985  3.8e-05  1.02699  0.0
H  H57  1  0.64066720  0.05355833  0.28094328  1  0.023281  -3e-05  0.099144  0.099423  -1.5e-05  0.998031  0.0
H  H58  1  0.36035226  0.71915146  0.77266548  1  0.013725  -2.4e-05  0.099046  0.099319  -9e-06  0.997314  0.0
H  H59  1  0.58733329  0.22743305  0.94653152  1  0.054748  2.4e-05  0.098617  0.098799  1.2e-05  0.998814  0.0
H  H60  1  0.35933830  0.94645311  0.71905944  1  0.023287  -3e-05  0.099153  0.099482  -1.5e-05  0.998  0.0
H  H61  1  0.63964898  0.28084711  0.22733987  1  0.013434  -2.4e-05  0.099054  0.099303  -9e-06  0.997425  0.0
H  H62  1  0.41266921  0.77255940  0.05346118  1  0.054759  2.4e-05  0.098637  0.098879  1.2e-05  0.998732  0.0
H  H63  1  0.40771559  0.06051047  0.20344562  1  0.052848  3.1e-05  0.097703  0.093158  1.4e-05  0.996463  0.0
H  H64  1  0.20511299  0.79682365  0.85712899  1  0.034958  0.0  0.09807  0.093514  0.0  0.997432  0.0
H  H65  1  0.34759518  0.14290508  0.93956047  1  0.060288  -0.0  0.097921  0.092506  2e-06  0.998399  0.0
H  H66  1  0.59228482  0.93949729  0.79655500  1  0.052353  3.1e-05  0.097713  0.093125  1.4e-05  0.996363  0.0
H  H67  1  0.79488778  0.20317615  0.14287532  1  0.035063  0.0  0.098084  0.093527  0.0  0.997397  0.0
H  H68  1  0.65241056  0.85709165  0.06043865  1  0.060206  -0.0  0.097932  0.092529  2e-06  0.998384  0.0
H  H69  1  0.15304053  0.98728106  0.33898835  1  0.081192  0.000122  0.100817  0.100137  9.7e-05  1.03308  0.0
H  H70  1  0.81443888  0.66112933  0.64842650  1  0.079963  0.000108  0.100544  0.100527  9e-05  1.033195  0.0
H  H71  1  0.16570373  0.35161482  0.01272721  1  0.09074  -0.000122  0.101256  0.102021  -8.9e-05  1.033106  0.0
H  H72  1  0.84696513  0.01272854  0.66101510  1  0.080993  0.000122  0.100808  0.100081  9.7e-05  1.033034  0.0
H  H73  1  0.18556006  0.33886679  0.35157964  1  0.080127  0.000108  0.100552  0.100539  9e-05  1.033136  0.0
H  H74  1  0.83430417  0.64838192  0.98726998  1  0.090821  -0.000122  0.101263  0.101972  -8.9e-05  1.033176  0.0
H  H75  1  0.38604868  0.98229011  0.41709119  1  0.074188  7.8e-05  0.098277  0.104183  7.1e-05  1.038547  0.0
H  H76  1  0.96912968  0.58292181  0.56528365  1  0.078331  7.6e-05  0.097671  0.102641  7e-05  1.040031  0.0
H  H77  1  0.40355080  0.43480517  0.01779483  1  0.067749  -7.7e-05  0.097601  0.102669  -6.5e-05  1.039814  0.0
H  H78  1  0.61395913  0.01772378  0.58291389  1  0.0734  7.8e-05  0.098246  0.104181  7.1e-05  1.03859  0.0
H  H79  1  0.03086956  0.41707493  0.43472332  1  0.078479  7.6e-05  0.097637  0.102606  7e-05  1.040045  0.0
H  H80  1  0.59645340  0.56518850  0.98219594  1  0.067665  -7.7e-05  0.097575  0.102566  -6.5e-05  1.039903  0.0
C  C81  1  0.26451932  0.02343307  0.26544478  1  -0.069696  0.000252  -0.099565  -0.101663  0.000136  4.041803  0.0
C  C82  1  0.99973244  0.73476103  0.75808422  1  -0.00225  0.000128  -0.100004  -0.102048  6.8e-05  4.042807  0.0
C  C83  1  0.24128564  0.24194872  0.97664682  1  -0.081679  -0.000195  -0.098417  -0.100264  -9.6e-05  4.041992  0.0
C  C84  1  0.73548417  0.97657654  0.73455850  1  -0.068927  0.000252  -0.09957  -0.101749  0.000136  4.041807  0.0
C  C85  1  0.00026664  0.26523754  0.24192044  1  -0.002629  0.000128  -0.09998  -0.102037  6.8e-05  4.04272  0.0
C  C86  1  0.75872227  0.75804802  0.02335298  1  -0.081261  -0.000195  -0.098367  -0.100171  -9.5e-05  4.041963  0.0
C  C87  1  0.72911351  0.06694555  0.48271826  1  0.328789  0.009398  0.084698  0.164414  0.005463  4.06434  0.006
C  C88  1  0.24670814  0.51731268  0.58427791  1  0.307959  0.009491  0.083749  0.162776  0.005522  4.063697  0.006
C  C89  1  0.66215560  0.41586282  0.93324867  1  0.376052  -0.009356  0.084573  0.162755  -0.004923  4.062379  -0.006
C  C90  1  0.27088767  0.93306160  0.51728162  1  0.328872  0.009399  0.084649  0.164154  0.005464  4.064443  0.006
C  C91  1  0.75329357  0.48268467  0.41572745  1  0.308543  0.009491  0.083634  0.162739  0.005523  4.06388  0.006
C  C92  1  0.33784348  0.58413147  0.06674355  1  0.377026  -0.009356  0.08451  0.162572  -0.004923  4.062491  -0.006
C  C93  1  0.66846252  0.13373425  0.52826577  1  -0.028755  0.006219  -0.109959  -0.186415  0.003774  4.010394  0.003
C  C94  1  0.14057578  0.47176468  0.60551767  1  -0.075344  0.006137  -0.110206  -0.187858  0.003703  4.00654  0.003
C  C95  1  0.53465031  0.39465424  0.86651526  1  -0.078414  -0.006175  -0.109835  -0.186122  -0.003367  4.008146  -0.003
C  C96  1  0.33153836  0.86627229  0.47173433  1  -0.028849  0.006218  -0.109902  -0.186394  0.003773  4.010552  0.003
C  C97  1  0.85942563  0.52823206  0.39448790  1  -0.075959  0.006137  -0.110218  -0.187795  0.003703  4.006759  0.003
C  C98  1  0.46534691  0.60534065  0.13347761  1  -0.080134  -0.006177  -0.109772  -0.186045  -0.003367  4.008136  -0.003
C  C99  1  0.76040519  0.17697366  0.60619563  1  -0.138034  0.005832  -0.110497  -0.191815  0.003498  4.006582  0.003
C  C100  1  0.15464950  0.39384713  0.57085148  1  -0.051401  0.005814  -0.110788  -0.191907  0.003538  4.004765  0.003
C  C101  1  0.58334880  0.42914808  0.82314910  1  -0.095258  -0.005769  -0.110844  -0.190995  -0.003139  4.005019  -0.003
C  C102  1  0.23959399  0.82303166  0.39380534  1  -0.137518  0.005833  -0.110584  -0.19184  0.003499  4.006588  0.003
C  C103  1  0.84534974  0.60614960  0.42915444  1  -0.051161  0.005815  -0.110785  -0.191988  0.003538  4.004836  0.003
C  C104  1  0.41664642  0.57084498  0.17684382  1  -0.095098  -0.005769  -0.11089  -0.190896  -0.00314  4.00501  -0.003
C  C105  1  0.87764047  0.13670212  0.60818796  1  0.417845  0.009864  0.085559  0.17325  0.005876  4.064963  0.006
C  C106  1  0.26981927  0.39185290  0.52858071  1  0.390694  0.010094  0.086488  0.174035  0.006001  4.06652  0.007
C  C107  1  0.74090121  0.47134797  0.86335180  1  0.397546  -0.009826  0.086481  0.173554  -0.005265  4.064298  -0.006
C  C108  1  0.12235810  0.86330197  0.39181187  1  0.417851  0.009862  0.085547  0.173401  0.005874  4.06494  0.006
C  C109  1  0.73018089  0.60814568  0.47142509  1  0.389627  0.010095  0.086518  0.174135  0.006  4.066651  0.007
C  C110  1  0.25909787  0.52864632  0.13664146  1  0.398158  -0.009825  0.086542  0.173518  -0.005265  4.064553  -0.006
C  C111  1  0.99744852  0.16568380  0.67703211  1  0.016375  0.006423  -0.005444  -0.08639  0.004083  3.994608  0.003
C  C112  1  0.32058863  0.32295665  0.48864884  1  0.064391  0.00623  -0.007024  -0.08928  0.004012  3.998664  0.003
C  C113  1  0.83154584  0.51130357  0.83441926  1  0.039496  -0.006409  -0.00568  -0.088292  -0.003687  3.997294  -0.003
C  C114  1  0.00254726  0.83431906  0.32296746  1  0.014765  0.006425  -0.005532  -0.086667  0.004085  3.994878  0.003
C  C115  1  0.67941709  0.67704438  0.51135853  1  0.064555  0.006228  -0.007094  -0.089394  0.004011  3.998859  0.003
C  C116  1  0.16845573  0.48869133  0.16557501  1  0.038982  -0.00641  -0.005783  -0.088514  -0.003687  3.997501  -0.003
C  C117  1  0.00390781  0.24089640  0.75317893  1  -0.024367  -0.002916  0.015271  0.13311  -0.001636  4.005605  -0.002
C  C118  1  0.25070622  0.24681295  0.48767129  1  -0.0545  0.003054  0.014862  0.133435  0.001761  4.00393  0.002
C  C119  1  0.76270810  0.51225497  0.75922866  1  -0.013418  0.002854  0.016172  0.135167  0.001781  4.003444  0.002
C  C120  1  0.99608737  0.75910523  0.24681898  1  -0.022813  -0.002915  0.01523  0.132976  -0.001635  4.005597  -0.002
C  C121  1  0.74929841  0.75318808  0.51233494  1  -0.054471  0.003051  0.014852  0.133374  0.001759  4.003839  0.002
C  C122  1  0.23728974  0.48774116  0.24076483  1  -0.013394  0.002849  0.016238  0.135312  0.001778  4.003431  0.002
C  C123  1  0.90830643  0.23998920  0.80217432  1  -0.046718  0.004131  -0.083711  -0.179523  0.002536  3.938025  0.003
C  C124  1  0.10599308  0.19788623  0.43775210  1  -0.059609  -0.003749  -0.084105  -0.181535  -0.002047  3.937084  -0.003
C  C125  1  0.66809584  0.56223548  0.76015171  1  -0.077338  -0.004094  -0.086448  -0.185268  -0.002259  3.936556  -0.003
C  C126  1  0.09168735  0.76001182  0.19782214  1  -0.046827  0.00413  -0.083612  -0.179252  0.002535  3.937695  0.003
C  C127  1  0.89401061  0.80211725  0.56225362  1  -0.059681  -0.003748  -0.084126  -0.181567  -0.002046  3.937074  -0.003
C  C128  1  0.33190200  0.43776064  0.23984335  1  -0.077484  -0.004092  -0.086485  -0.185203  -0.002258  3.936818  -0.003
C  C129  1  0.92232807  0.31177680  0.87409801  1  0.483512  -0.001308  0.044328  0.093957  -0.000203  3.954644  -0.001
C  C130  1  0.04789556  0.12598153  0.43759315  1  0.540973  0.001602  0.044473  0.096058  0.000675  3.954801  0.001
C  C131  1  0.61053242  0.56245623  0.68839497  1  0.504146  0.001361  0.045736  0.097832  0.000601  3.95544  0.001
C  C132  1  0.07766649  0.68822361  0.12589719  1  0.483065  -0.001306  0.044303  0.093873  -0.000202  3.954675  -0.001
C  C133  1  0.95210518  0.87402255  0.56241261  1  0.541079  0.0016  0.044501  0.096097  0.000674  3.954784  0.001
C  C134  1  0.38946203  0.43753744  0.31159921  1  0.505166  0.00136  0.045669  0.097704  0.000599  3.955714  0.001
C  C135  1  0.11533969  0.38404821  0.85228295  1  0.487071  -0.000946  0.047038  0.096974  3.7e-05  3.957302  -0.001
C  C136  1  0.26276841  0.14767798  0.53164070  1  0.496048  0.001022  0.047097  0.096721  0.000354  3.95431  0.001
C  C137  1  0.73129490  0.46832386  0.61615736  1  0.528553  0.000872  0.045443  0.094268  0.000256  3.95615  0.001
C  C138  1  0.88465643  0.61595097  0.14771234  1  0.487121  -0.000944  0.047081  0.097145  3.8e-05  3.957175  -0.001
C  C139  1  0.73723234  0.85232611  0.46836559  1  0.495772  0.001021  0.047108  0.09653  0.000353  3.954332  0.001
C  C140  1  0.26869815  0.53166920  0.38383591  1  0.528341  0.000867  0.045401  0.094282  0.000254  3.95616  0.001
C  C141  1  0.10912071  0.31517001  0.77942759  1  -0.024572  0.004007  -0.08573  -0.188128  0.002484  3.951762  0.003
C  C142  1  0.32957134  0.22052710  0.53568098  1  -0.058236  -0.003629  -0.085841  -0.189088  -0.002021  3.9537  -0.003
C  C143  1  0.79378337  0.46427365  0.68500496  1  -0.051062  -0.004091  -0.08639  -0.189996  -0.002253  3.952254  -0.003
C  C144  1  0.89087679  0.68482979  0.22056809  1  -0.024352  0.004006  -0.085813  -0.188379  0.002483  3.951839  0.003
C  C145  1  0.67043204  0.77947577  0.46432652  1  -0.058456  -0.003627  -0.085864  -0.188889  -0.002021  3.953455  -0.003
C  C146  1  0.20621386  0.53572124  0.31498897  1  -0.051416  -0.004089  -0.086393  -0.190092  -0.002252  3.952269  -0.003
C  C147  1  0.11419966  0.12914070  0.67914823  1  0.397894  0.009941  0.08346  0.167207  0.005916  4.066744  0.006
C  C148  1  0.43510494  0.32078387  0.44996351  1  0.377458  0.010187  0.083582  0.168906  0.00605  4.066548  0.007
C  C149  1  0.98475224  0.55009795  0.87096681  1  0.390265  -0.009957  0.084235  0.169563  -0.005339  4.066326  -0.006
C  C150  1  0.88579535  0.87086277  0.32085104  1  0.398033  0.00994  0.083583  0.167382  0.005915  4.066627  0.006
C  C151  1  0.56489800  0.67921593  0.55004307  1  0.377583  0.010187  0.083569  0.168801  0.006051  4.06652  0.007
C  C152  1  0.01525009  0.44989634  0.12902672  1  0.389694  -0.009956  0.084278  0.169679  -0.005339  4.065833  -0.006
C  C153  1  0.23607332  0.15955757  0.75158943  1  -0.074332  0.00571  -0.111514  -0.189286  0.003465  4.009191  0.003
C  C154  1  0.48462548  0.24836094  0.40798667  1  -0.025254  0.00571  -0.112491  -0.191317  0.003503  4.009827  0.003
C  C155  1  0.07600920  0.59220912  0.84057223  1  -0.129751  -0.005749  -0.112586  -0.189894  -0.003133  4.00924  -0.003
C  C156  1  0.76392339  0.84044713  0.24841105  1  -0.074605  0.005709  -0.111459  -0.189025  0.003465  4.009083  0.003
C  C157  1  0.51537530  0.75163886  0.59201973  1  -0.023657  0.00571  -0.112452  -0.191233  0.003503  4.010082  0.003
C  C158  1  0.92398941  0.40778639  0.15942104  1  -0.129336  -0.005749  -0.112638  -0.189937  -0.003133  4.009325  -0.003
C  C159  1  0.32885505  0.10969030  0.73052108  1  -0.124166  0.006224  -0.113197  -0.190715  0.003766  4.018533  0.003
C  C160  1  0.59837660  0.26943169  0.37915927  1  -0.111665  0.006302  -0.110636  -0.18777  0.003819  4.016324  0.003
C  C161  1  0.21873233  0.62099948  0.89036870  1  -0.00258  -0.006119  -0.111477  -0.190028  -0.00339  4.016733  -0.003
C  C162  1  0.67114275  0.89031440  0.26948001  1  -0.124003  0.006223  -0.113183  -0.190746  0.003766  4.01846  0.003
C  C163  1  0.40162294  0.73056566  0.62084434  1  -0.113178  0.006302  -0.110577  -0.187628  0.003819  4.016298  0.003
C  C164  1  0.78126598  0.37899542  0.10962374  1  -0.002738  -0.006118  -0.111471  -0.190032  -0.00339  4.016863  -0.003
C  C165  1  0.26355160  0.04841077  0.64528516  1  0.429861  0.009138  0.08053  0.153931  0.00532  4.075952  0.006
C  C166  1  0.61816272  0.35465272  0.40306793  1  0.360528  0.009272  0.079124  0.152426  0.005367  4.074069  0.006
C  C167  1  0.21496424  0.59695784  0.95157801  1  0.356317  -0.009192  0.08108  0.155105  -0.004771  4.072922  -0.006
C  C168  1  0.73644928  0.95159577  0.35471598  1  0.430137  0.009139  0.080546  0.154054  0.00532  4.075708  0.006
C  C169  1  0.38183574  0.64534463  0.59693560  1  0.360401  0.009272  0.079117  0.152398  0.005367  4.074112  0.006
C  C170  1  0.78503702  0.40303645  0.04841438  1  0.355677  -0.009193  0.081101  0.155177  -0.004771  4.072851  -0.006
C  C171  1  0.66899760  0.01170698  0.39896365  1  0.03867  0.005945  -0.006039  -0.082432  0.003791  3.999456  0.003
C  C172  1  0.27026970  0.60105577  0.61279060  1  0.10795  0.005829  -0.00538  -0.08084  0.003753  3.998766  0.003
C  C173  1  0.65732646  0.38731570  0.98844255  1  0.037053  -0.005843  -0.006556  -0.081748  -0.003359  3.997776  -0.003
C  C174  1  0.33100512  0.98830324  0.60103776  1  0.038837  0.005944  -0.006117  -0.082267  0.003791  3.999298  0.003
C  C175  1  0.72973015  0.39894219  0.38721384  1  0.107743  0.005828  -0.005372  -0.080798  0.003753  3.998771  0.003
C  C176  1  0.34267340  0.61267797  0.01154945  1  0.037261  -0.005842  -0.006558  -0.081672  -0.003359  3.997675  -0.003
C  C177  1  0.52918870  0.01724760  0.35411092  1  -0.014539  6.2e-05  -0.006018  0.086153  -1.1e-05  4.002163  0.0
C  C178  1  0.17542305  0.64592107  0.66321416  1  -0.082399  7.8e-05  -0.006773  0.085262  -2e-06  4.00084  0.0
C  C179  1  0.51199730  0.33691493  0.98289191  1  -0.039442  -7.1e-05  -0.007197  0.08486  1.8e-05  4.000539  0.0
C  C180  1  0.47081741  0.98276506  0.64589241  1  -0.014342  6.2e-05  -0.005916  0.086285  -1.1e-05  4.00177  0.0
C  C181  1  0.82457711  0.35407750  0.33679059  1  -0.082465  7.8e-05  -0.006818  0.085227  -2e-06  4.000665  0.0
C  C182  1  0.48800659  0.66307813  0.01710117  1  -0.039434  -7.2e-05  -0.007209  0.084978  1.8e-05  4.000514  0.0
C  C183  1  0.53317079  0.03890112  0.29329842  1  -0.058955  0.000311  -0.092736  -0.135826  0.000175  3.982858  0.0
C  C184  1  0.24042626  0.70679782  0.74567239  1  0.029184  0.000239  -0.091524  -0.135556  0.000149  3.982341  0.0
C  C185  1  0.49444805  0.25442657  0.96120935  1  -0.074687  -0.000255  -0.09285  -0.137378  -0.000138  3.984337  0.0
C  C186  1  0.46683393  0.96111093  0.70670556  1  -0.059499  0.000311  -0.092759  -0.135978  0.000175  3.982582  0.0
C  C187  1  0.75957590  0.29320260  0.25433179  1  0.029605  0.000238  -0.091522  -0.135539  0.000148  3.982412  0.0
C  C188  1  0.50555538  0.74556771  0.03878636  1  -0.074503  -0.000255  -0.092839  -0.137499  -0.000138  3.984234  0.0
C  C189  1  0.40205764  0.04222456  0.24946138  1  -0.050583  3.8e-05  -0.098983  -0.089746  1.5e-05  4.058253  0.0
C  C190  1  0.15328574  0.75073395  0.79284674  1  -0.050408  -2.3e-05  -0.099159  -0.090597  -1.5e-05  4.06148  0.0
C  C191  1  0.36010045  0.20721240  0.95786153  1  -0.065711  1.7e-05  -0.099216  -0.088682  1.5e-05  4.06147  0.0
C  C192  1  0.59794507  0.95778565  0.75054107  1  -0.049704  3.8e-05  -0.098933  -0.089509  1.5e-05  4.0579  0.0
C  C193  1  0.84671751  0.24926646  0.20715753  1  -0.050393  -2.2e-05  -0.099148  -0.090585  -1.5e-05  4.061556  0.0
C  C194  1  0.63990607  0.79278373  0.04213684  1  -0.065692  1.7e-05  -0.09921  -0.088747  1.5e-05  4.061671  0.0
C  C195  1  0.25933381  0.00199517  0.32585770  1  -0.053792  0.00015  -0.096022  -0.078022  9.7e-05  4.015261  0.0
C  C196  1  0.93391430  0.67425869  0.67624046  1  -0.078315  3.6e-05  -0.094362  -0.078455  2.8e-05  4.017164  0.0
C  C197  1  0.25737175  0.32381092  0.99806018  1  -0.069109  -0.000152  -0.096019  -0.082598  -9.4e-05  4.017987  0.0
C  C198  1  0.74067308  0.99801688  0.67414803  1  -0.053923  0.00015  -0.096022  -0.077925  9.7e-05  4.014982  0.0
C  C199  1  0.06608633  0.32573866  0.32376480  1  -0.078187  3.6e-05  -0.094425  -0.078466  2.9e-05  4.017029  0.0
C  C200  1  0.74263446  0.67618459  0.00193632  1  -0.069546  -0.000152  -0.096071  -0.082643  -9.4e-05  4.017949  0.0
C  C201  1  0.39083656  0.99942843  0.37025553  1  -0.020888  0.000369  -0.091942  -0.136908  0.000236  3.949583  0.0
C  C202  1  0.02088593  0.62979116  0.62926084  1  -0.064578  0.000239  -0.091783  -0.133602  0.000156  3.949056  0.0
C  C203  1  0.39137323  0.37083187  0.00066789  1  0.006968  -0.000329  -0.09011  -0.130754  -0.000197  3.947052  0.0
C  C204  1  0.60917155  0.00058607  0.62975038  1  -0.020565  0.000368  -0.092002  -0.137084  0.000236  3.949454  0.0
C  C205  1  0.97911470  0.37020619  0.37074390  1  -0.064849  0.000239  -0.091699  -0.133584  0.000156  3.949007  0.0
C  C206  1  0.60863158  0.62916303  0.99932559  1  0.006989  -0.000329  -0.090097  -0.130643  -0.000197  3.947233  0.0
N  N207  1  0.85726175  0.06890508  0.53246182  1  -1.127165  0.002482  -0.34545  -0.311023  2.7e-05  3.457858  -0.001
N  N208  1  0.32509313  0.46757525  0.53649961  1  -1.140142  0.002785  -0.345139  -0.309116  0.000193  3.458336  0.0
N  N209  1  0.78837566  0.46349804  0.93117499  1  -1.115827  -0.002574  -0.345732  -0.310385  0.000574  3.456762  0.001
N  N210  1  0.14273960  0.93110023  0.46753723  1  -1.127387  0.002485  -0.345411  -0.310998  2.9e-05  3.457871  -0.001
N  N211  1  0.67490564  0.53242271  0.46350579  1  -1.139382  0.002784  -0.345181  -0.309282  0.000192  3.458404  0.0
N  N212  1  0.21162342  0.53649625  0.06881827  1  -1.116217  -0.002573  -0.345692  -0.310298  0.000575  3.456812  0.001
N  N213  1  0.13054494  0.06037951  0.61427602  1  -1.131029  0.002769  -0.349967  -0.315886  0.000246  3.4816  0.0
N  N214  1  0.51621272  0.38564668  0.44604428  1  -1.121209  0.002584  -0.348759  -0.314227  0.000143  3.478113  0.0
N  N215  1  0.07004987  0.55397824  0.93966025  1  -1.129181  -0.00265  -0.350167  -0.317097  0.000488  3.481897  0.0
N  N216  1  0.86945440  0.93962396  0.38572359  1  -1.131252  0.002772  -0.350069  -0.31602  0.000247  3.481602  0.0
N  N217  1  0.48378822  0.61435128  0.55395972  1  -1.121286  0.002586  -0.348746  -0.314164  0.000144  3.47792  0.0
N  N218  1  0.92995030  0.44601604  0.06033258  1  -1.12873  -0.002652  -0.350176  -0.317106  0.000487  3.481553  0.0
N  N219  1  0.02359190  0.38294511  0.89923355  1  -1.194752  0.070853  -0.308142  -0.214181  0.045151  3.522495  0.062
N  N220  1  0.12397467  0.10079279  0.48358117  1  -1.226195  -0.070754  -0.307656  -0.214399  -0.040492  3.517035  -0.062
N  N221  1  0.64071779  0.51643574  0.61726613  1  -1.221359  -0.070828  -0.306241  -0.212576  -0.0405  3.519443  -0.062
N  N222  1  0.97640530  0.61705407  0.10076130  1  -1.19468  0.070842  -0.30813  -0.214274  0.045146  3.522552  0.062
N  N223  1  0.87602591  0.89921314  0.51642647  1  -1.225819  -0.070743  -0.307666  -0.214358  -0.040487  3.517033  -0.062
N  N224  1  0.35927079  0.48355487  0.38272775  1  -1.221232  -0.070808  -0.30614  -0.21252  -0.040489  3.51947  -0.062
