# generated using pymatgen
data_CuH16C16Br2(N2O)2
_symmetry_space_group_name_H-M   'P 1'
_cell_length_a   7.59232034
_cell_length_b   7.65225791
_cell_length_c   8.12938605
_cell_angle_alpha   67.13220870
_cell_angle_beta   85.43175980
_cell_angle_gamma   76.18365493
_symmetry_Int_Tables_number   1
_chemical_formula_structural   CuH16C16Br2(N2O)2
_chemical_formula_sum   'Cu1 H16 C16 Br2 N4 O2'
_cell_volume   422.54585292
_cell_formula_units_Z   1
loop_
 _symmetry_equiv_pos_site_id
 _symmetry_equiv_pos_as_xyz
  1  'x, y, z'
loop_
 _atom_site_type_symbol
 _atom_site_label
 _atom_site_symmetry_multiplicity
 _atom_site_fract_x
 _atom_site_fract_y
 _atom_site_fract_z
 _atom_site_occupancy
 _atom_site_hle17_ddec_charge
 _atom_site_hle17_ddec_spin_density
 _atom_site_hle17_ddec_sum_bond_order
 _atom_site_hle17_magmom
 _atom_site_hse06_10hf_ddec_charge
 _atom_site_hse06_10hf_ddec_spin_density
 _atom_site_hse06_10hf_ddec_sum_bond_order
 _atom_site_hse06_10hf_magmom
 _atom_site_hse06_ddec_charge
 _atom_site_hse06_ddec_spin_density
 _atom_site_hse06_ddec_sum_bond_order
 _atom_site_hse06_magmom
 _atom_site_pbe_cm5_charge
 _atom_site_pbe_ddec_charge
 _atom_site_pbe_ddec_spin_density
 _atom_site_pbe_ddec_sum_bond_order
 _atom_site_pbe_magmom
Cu  Cu0  1  0.99999910  0.00000039  0.50000074  1  0.711151  -0.556898  1.821452  -0.407  0.690241  -0.674046  2.207876  -0.531  0.781131  -0.75353  2.138838  -0.622  0.587874  0.643143  -0.626522  2.249522  -0.48
H  H1  1  0.22484025  0.28690541  0.37572036  1  0.082193  -0.000499  0.960894  -0.001  0.087498  -0.000627  1.031647  -0.001  0.090842  -0.00048  1.027331  -0.001  0.107957  0.084868  -0.000737  1.035014  -0.001
H  H2  1  0.77515752  0.71309529  0.62428125  1  0.082143  -0.000499  0.960926  -0.001  0.087475  -0.000627  1.031645  -0.001  0.090818  -0.00048  1.02733  -0.001  0.107941  0.084844  -0.000737  1.035018  -0.001
H  H3  1  0.03814664  0.26777535  0.97478936  1  0.128  -0.000481  0.986256  -0.001  0.136029  -0.00045  1.048613  -0.001  0.140149  -0.000362  1.046445  0.0  0.106688  0.13308  -0.00052  1.050254  -0.001
H  H4  1  0.96185145  0.73222389  0.02521276  1  0.128023  -0.000481  0.986203  -0.001  0.136068  -0.000451  1.048537  -0.001  0.140187  -0.000362  1.046369  0.0  0.106681  0.133121  -0.00052  1.050179  -0.001
H  H5  1  0.95269095  0.05263249  0.84056070  1  0.077146  -0.000414  0.976973  -0.001  0.084523  -0.000556  1.04599  -0.001  0.086911  -0.000409  1.04336  -0.001  0.107932  0.082538  -0.000667  1.048276  -0.001
H  H6  1  0.04730978  0.94736676  0.15944123  1  0.077145  -0.000414  0.976971  -0.001  0.084534  -0.000556  1.045986  -0.001  0.086923  -0.000409  1.043356  -0.001  0.107945  0.082545  -0.000667  1.048263  -0.001
H  H7  1  0.31824483  0.51740919  0.48671639  1  0.107688  -0.000145  0.974915  -0.001  0.114499  -0.000292  1.04446  -0.001  0.118897  -0.000219  1.041576  0.0  0.09659  0.111374  -0.000348  1.046531  -0.001
H  H8  1  0.68175294  0.48259151  0.51328521  1  0.107658  -0.000146  0.97498  -0.001  0.11449  -0.000293  1.044502  -0.001  0.118891  -0.000219  1.041614  0.0  0.096599  0.111372  -0.000348  1.046558  -0.001
H  H9  1  0.28524220  0.81545820  0.88881278  1  0.092185  3.5e-05  0.943609  0.0  0.107402  -3.1e-05  1.002973  0.0  0.108238  -1.1e-05  1.003053  0.0  0.114342  0.106721  -4.3e-05  1.003078  0.0
H  H10  1  0.71476221  0.18454251  0.11118343  1  0.092186  3.6e-05  0.943577  0.0  0.107401  -3.1e-05  1.002953  0.0  0.108249  -1.1e-05  1.00304  0.0  0.114354  0.106724  -4.3e-05  1.003055  0.0
H  H11  1  0.51526747  0.76901317  0.82391247  1  0.080882  -0.000244  0.938176  0.0  0.093105  -0.000331  1.007508  0.0  0.095369  -0.00023  1.004936  0.0  0.098717  0.091568  -0.000403  1.009248  0.0
H  H12  1  0.48473530  0.23098900  0.17608210  1  0.08077  -0.000244  0.938222  0.0  0.093035  -0.000331  1.007513  0.0  0.095311  -0.00023  1.00495  0.0  0.098716  0.0915  -0.000403  1.009245  0.0
H  H13  1  0.64276988  0.42927143  0.80710263  1  0.074013  7.1e-05  0.92454  0.0  0.090696  5.4e-05  0.988669  0.0  0.090797  4.6e-05  0.989066  0.0  0.105998  0.090538  6.2e-05  0.988504  0.0
H  H14  1  0.35723452  0.57072928  0.19289481  1  0.073988  7.4e-05  0.924574  0.0  0.090672  5.4e-05  0.988691  0.0  0.090772  4.6e-05  0.989091  0.0  0.105979  0.090515  6.2e-05  0.988524  0.0
H  H15  1  0.49145812  0.27178958  0.85768324  1  0.084644  -0.00087  0.953551  0.0  0.102838  -0.000955  1.011627  0.0  0.104194  -0.000714  1.011156  0.0  0.107236  0.101867  -0.001119  1.012007  0.0
H  H16  1  0.50854526  0.72820967  0.14231481  1  0.084679  -0.000868  0.953545  0.0  0.102865  -0.000956  1.011614  0.0  0.104221  -0.000714  1.011144  0.0  0.10725  0.101893  -0.001119  1.011994  0.0
C  C17  1  0.18723366  0.28855438  0.50712879  1  0.142594  0.006988  3.682622  0.006  0.114028  0.001464  3.933817  0.002  0.124874  0.003343  3.949286  0.003  0.046192  0.107253  4e-05  3.923866  0.001
C  C18  1  0.81276442  0.71144486  0.49287456  1  0.142601  0.006991  3.682593  0.006  0.114027  0.001463  3.933789  0.002  0.12487  0.003345  3.949259  0.003  0.046196  0.10725  4e-05  3.923845  0.001
C  C19  1  0.21150381  0.56247765  0.80171958  1  0.490539  0.000596  3.82263  0.0  0.440688  0.000721  4.114469  0.0  0.471697  0.000787  4.112008  0.0  0.244829  0.419911  0.000588  4.115637  0.0
C  C20  1  0.78849397  0.43752305  0.19828079  1  0.490288  0.00059  3.822529  0.0  0.440472  0.000723  4.114331  0.0  0.471481  0.000787  4.11187  0.0  0.24477  0.419696  0.000587  4.115498  0.0
C  C21  1  0.18523085  0.40943067  0.73945355  1  0.028472  0.007751  3.738601  0.006  0.046337  0.002636  3.97195  0.002  0.048026  0.003737  3.989013  0.003  0.010247  0.045062  0.001706  3.960463  0.001
C  C22  1  0.81476957  0.59057003  0.26054787  1  0.028588  0.007762  3.738599  0.006  0.046435  0.002633  3.971948  0.002  0.048123  0.003738  3.989014  0.003  0.01026  0.04516  0.001706  3.96046  0.001
C  C23  1  0.08351806  0.27507903  0.84188369  1  -0.15004  -0.006648  3.686724  -0.007  -0.168166  -0.003406  3.92751  -0.004  -0.174752  -0.003266  3.945081  -0.004  -0.086732  -0.163938  -0.003471  3.915834  -0.004
C  C24  1  0.91647972  0.72492166  0.15811791  1  -0.150118  -0.006656  3.686782  -0.007  -0.168256  -0.003405  3.927569  -0.004  -0.174841  -0.003267  3.94514  -0.004  -0.086719  -0.164031  -0.003471  3.915891  -0.004
C  C25  1  0.03657553  0.15509301  0.76931699  1  0.118455  0.00618  3.710833  0.005  0.090671  0.001185  3.961954  0.001  0.100404  0.002956  3.979523  0.002  0.036912  0.084515  -0.000113  3.950934  0.0
C  C26  1  0.96342357  0.84490769  0.23068452  1  0.11846  0.006195  3.710938  0.005  0.090669  0.001184  3.96206  0.001  0.100401  0.002957  3.979625  0.002  0.036869  0.084521  -0.000113  3.95103  0.0
C  C27  1  0.24031032  0.41328690  0.57033303  1  -0.132078  -0.008066  3.695042  -0.008  -0.153725  -0.004396  3.942113  -0.004  -0.159029  -0.004054  3.95857  -0.004  -0.084107  -0.150168  -0.004632  3.930873  -0.004
C  C28  1  0.75968909  0.58671235  0.42966899  1  -0.132067  -0.00807  3.695129  -0.008  -0.153729  -0.004394  3.942192  -0.004  -0.159036  -0.004055  3.958648  -0.004  -0.08409  -0.15017  -0.004632  3.930958  -0.004
C  C29  1  0.41054502  0.70267276  0.91121035  1  -0.016679  -0.000252  3.619652  0.0  -0.075238  -0.00034  3.873657  0.0  -0.070942  -0.000213  3.882997  0.0  -0.059736  -0.078072  -0.000446  3.867222  0.0
C  C30  1  0.58945969  0.29732650  0.08878637  1  -0.016516  -0.000254  3.619576  0.0  -0.075097  -0.000342  3.873599  0.0  -0.07087  -0.000213  3.883034  0.0  -0.059745  -0.077942  -0.000446  3.867182  0.0
C  C31  1  0.52936352  0.38243789  0.89293124  1  -0.015758  -0.000285  3.64177  0.0  -0.080647  -0.000447  3.901791  -0.001  -0.076603  -0.000305  3.912594  0.0  -0.056581  -0.083129  -0.000551  3.89416  -0.001
C  C32  1  0.47063988  0.61756137  0.10706435  1  -0.015759  -0.000291  3.641855  0.0  -0.080611  -0.000447  3.901818  -0.001  -0.076584  -0.000305  3.912602  0.0  -0.056573  -0.083097  -0.000551  3.894179  -0.001
Br  Br33  1  0.31398209  0.91279069  0.38879048  1  -0.497563  -0.162518  0.890782  -0.163  -0.503898  -0.109567  1.175312  -0.114  -0.539856  -0.083607  1.156861  -0.093  -0.269298  -0.482262  -0.124836  1.188116  -0.124
Br  Br34  1  0.68601315  0.08721583  0.61120303  1  -0.497557  -0.162519  0.890765  -0.163  -0.503907  -0.109567  1.175325  -0.114  -0.539851  -0.083606  1.156848  -0.093  -0.269309  -0.482272  -0.124832  1.188134  -0.124
N  N35  1  0.08553200  0.16288330  0.60380437  1  -0.29337  -0.064269  3.371347  -0.083  -0.231595  -0.04874  3.649344  -0.065  -0.262806  -0.041766  3.673254  -0.06  -0.352625  -0.214482  -0.051904  3.636205  -0.067
N  N36  1  0.91446608  0.83711594  0.39619898  1  -0.293287  -0.064278  3.371382  -0.083  -0.231536  -0.048741  3.649411  -0.065  -0.262741  -0.041768  3.673316  -0.06  -0.352597  -0.214421  -0.051905  3.636269  -0.067
N  N37  1  0.37706850  0.55002841  0.86035040  1  -0.193358  0.000105  3.408399  0.0  -0.107239  -0.000117  3.646691  0.0  -0.12775  -6.3e-05  3.667578  0.0  -0.271585  -0.093259  -0.000207  3.631991  0.0
N  N38  1  0.62293621  0.44997085  0.13964632  1  -0.193335  0.000109  3.408515  0.0  -0.107239  -0.000116  3.646786  0.0  -0.127731  -6.4e-05  3.667692  0.0  -0.271583  -0.093258  -0.000207  3.632092  0.0
O  O39  1  0.07715231  0.69748903  0.79344020  1  -0.563562  0.001412  2.017597  0.0  -0.532965  0.001221  2.272713  0.0  -0.559248  0.001595  2.264502  0.0  -0.296905  -0.515597  0.000861  2.278384  0.0
O  O40  1  0.92284936  0.30250585  0.20656079  1  -0.563447  0.001413  2.017371  0.0  -0.532851  0.001219  2.272455  0.0  -0.559135  0.001596  2.264246  0.0  -0.296888  -0.515482  0.000861  2.27812  0.0
