# generated using pymatgen
data_ZnH18C25N(O2F)2
_symmetry_space_group_name_H-M   'P 1'
_cell_length_a   10.96003414
_cell_length_b   14.00163774
_cell_length_c   15.29852892
_cell_angle_alpha   92.06440198
_cell_angle_beta   92.79879661
_cell_angle_gamma   89.83843523
_symmetry_Int_Tables_number   1
_chemical_formula_structural   ZnH18C25N(O2F)2
_chemical_formula_sum   'Zn2 H36 C50 N2 O8 F4'
_cell_volume   2343.36455416
_cell_formula_units_Z   2
loop_
 _symmetry_equiv_pos_site_id
 _symmetry_equiv_pos_as_xyz
  1  'x, y, z'
loop_
 _atom_site_type_symbol
 _atom_site_label
 _atom_site_symmetry_multiplicity
 _atom_site_fract_x
 _atom_site_fract_y
 _atom_site_fract_z
 _atom_site_occupancy
 _atom_site_pbe_bader_charge
 _atom_site_pbe_bader_spin_density
 _atom_site_pbe_cm5_charge
 _atom_site_pbe_ddec_charge
 _atom_site_pbe_ddec_spin_density
 _atom_site_pbe_ddec_sum_bond_order
 _atom_site_pbe_magmom
Zn  Zn0  1  0.49691667  0.39806309  0.50638227  1  1.287433  0  0.667085  0.829728  0  2.413683  0
Zn  Zn1  1  0.49460954  0.59527820  0.49570543  1  1.290441  0  0.670334  0.83206  0  2.439732  0
H  H2  1  0.29644991  0.79820054  0.79743121  1  0.025044  0  0.093609  0.086793  0  1.007606  0
H  H3  1  0.70845338  0.18640782  0.20728137  1  0.05273  0  0.093632  0.085533  0  1.009549  0
H  H4  1  0.32289173  0.93170703  0.42844154  1  0.110778  0  0.123515  0.152838  0  0.977338  0
H  H5  1  0.61646612  0.06506352  0.62236371  1  0.107677  0  0.123467  0.152972  0  0.978287  0
H  H6  1  0.66182113  0.74514258  0.55851485  1  0.136506  0  0.135445  0.113147  0  0.97214  0
H  H7  1  0.40557316  0.24480073  0.38941331  1  0.164397  0  0.134312  0.111362  0  0.989958  0
H  H8  1  0.67936723  0.92358685  0.56497432  1  0.138419  0  0.117797  0.128806  0  0.987477  0
H  H9  1  0.39933924  0.06611945  0.37720377  1  0.116921  0  0.118126  0.129243  0  0.985253  0
H  H10  1  0.24587948  0.63280898  0.83622466  1  0.067527  0  0.096481  0.097739  0  1.006856  0
H  H11  1  0.76420155  0.34903725  0.16337589  1  0.069672  0  0.09717  0.097251  0  1.006713  0
H  H12  1  0.12735208  0.74389961  0.53991894  1  0.041152  0  0.092637  0.091551  0  1.013479  0
H  H13  1  0.85313137  0.25453693  0.46919172  1  0.047486  0  0.096254  0.096836  0  1.001061  0
H  H14  1  0.23427584  0.85553132  0.64876094  1  0.005012  0  0.086999  0.080315  0  1.017164  0
H  H15  1  0.75272375  0.13829397  0.36132610  1  0.028871  0  0.08761  0.080992  0  1.017349  0
H  H16  1  0.88459887  0.61531934  0.59037875  1  0.065414  0  0.101285  0.105827  0  1.004167  0
H  H17  1  0.10885852  0.37853186  0.41196150  1  0.085921  0  0.102913  0.110614  0  1.001677  0
H  H18  1  0.59594848  0.61193624  0.25011572  1  0.128025  0  0.112733  0.143896  0  0.984821  0
H  H19  1  0.39025220  0.40691812  0.76803398  1  0.116167  0  0.11296  0.144599  0  0.989929  0
H  H20  1  0.14966673  0.44067263  0.68889675  1  0.0353  0  0.091101  0.130975  0  1.002001  0
H  H21  1  0.16913820  0.47913711  0.80092194  1  0.03456  0  0.088036  0.125185  0  1.018603  0
H  H22  1  0.02499866  0.48976759  0.74362966  1  0.020581  0  0.092306  0.129816  0  0.988782  0
H  H23  1  0.85596000  0.54752255  0.30811424  1  0.039563  0  0.091271  0.131538  0  1.003931  0
H  H24  1  0.97845447  0.49368743  0.25407708  1  0.048298  0  0.092963  0.130873  0  0.988113  0
H  H25  1  0.83425341  0.50589907  0.19716652  1  0.056506  0  0.088212  0.125843  0  1.012281  0
H  H26  1  0.41209785  0.28380018  0.01316986  1  0.05755  0  0.089723  0.128837  0  1.009699  0
H  H27  1  0.54302504  0.33096179  0.96703610  1  0.039879  0  0.088711  0.127132  0  1.014046  0
H  H28  1  0.55767598  0.26995096  0.06635349  1  0.024483  0  0.091254  0.128908  0  0.995504  0
H  H29  1  0.50610406  0.70885628  0.01740184  1  0.026002  0  0.087581  0.127193  0  1.011424  0
H  H30  1  0.65194655  0.72826389  0.97639473  1  0.043639  0  0.090413  0.130561  0  1.002299  0
H  H31  1  0.51811207  0.75680530  0.91314527  1  0.031796  0  0.090242  0.125566  0  1.003941  0
H  H32  1  0.36002053  0.32148055  0.25697232  1  0.030054  0  0.091594  0.130781  0  1.00973  0
H  H33  1  0.37119346  0.26881680  0.15017860  1  0.028254  0  0.087009  0.120868  0  1.014017  0
H  H34  1  0.49566750  0.26211359  0.22932909  1  0.041029  0  0.08617  0.117877  0  1.029179  0
H  H35  1  0.67562002  0.66420219  0.72665877  1  0.04686  0  0.091024  0.134621  0  1.015424  0
H  H36  1  0.55449137  0.73982453  0.75465949  1  0.03207  0  0.08648  0.119339  0  1.011258  0
H  H37  1  0.68227709  0.72675722  0.83017532  1  0.006663  0  0.086597  0.119825  0  1.016817  0
C  C38  1  0.48325928  0.47764120  0.33012351  1  1.570391  0  0.216841  0.602591  0  4.14673  0
C  C39  1  0.51532000  0.51884032  0.67083057  1  1.546891  0  0.217366  0.604041  0  4.138035  0
C  C40  1  0.86915711  0.50059541  0.49336654  1  -0.079862  0  -0.008739  -0.055731  0  3.947001  0
C  C41  1  0.12421845  0.49297341  0.50877388  1  -0.034921  0  -0.01172  -0.065799  0  3.940735  0
C  C42  1  0.93092999  0.43235623  0.44209879  1  -0.007389  0  0.000165  0.059988  0  3.976237  0
C  C43  1  0.06222827  0.56122826  0.56025353  1  0.002375  0  0.003395  0.068445  0  3.965788  0
C  C44  1  0.49077524  0.41146310  0.08361011  1  -0.012696  0  -0.003482  0.080731  0  3.852092  0
C  C45  1  0.54779979  0.60713074  0.91288111  1  -0.02657  0  -0.003597  0.081967  0  3.841241  0
C  C46  1  0.47112942  0.40131677  0.17343506  1  0.05331  0  -0.011547  0.076807  0  3.911377  0
C  C47  1  0.55973107  0.60541726  0.82104980  1  0.026543  0  -0.00927  0.081489  0  3.898692  0
C  C48  1  0.49911802  0.47769677  0.23341322  1  -0.011893  0  -0.014468  -0.050989  0  3.954519  0
C  C49  1  0.51146995  0.52826932  0.76858564  1  0.003814  0  -0.016101  -0.057776  0  3.951666  0
C  C50  1  0.55891568  0.55736112  0.20384135  1  0.015589  0  -0.107962  -0.24647  0  4.074596  0
C  C51  1  0.44156563  0.46017937  0.80803200  1  0.066407  0  -0.108024  -0.248071  0  4.076025  0
C  C52  1  0.57468223  0.56564738  0.11577079  1  0.376198  0  0.091551  0.231217  0  4.071188  0
C  C53  1  0.43491257  0.46261700  0.89761336  1  0.341093  0  0.09098  0.22735  0  4.072884  0
C  C54  1  0.52167130  0.50288148  0.04979585  1  0.012067  0  -0.01376  -0.078196  0  3.934697  0
C  C55  1  0.50541976  0.52427932  0.95576755  1  0.057138  0  -0.012865  -0.072095  0  3.930747  0
C  C56  1  0.40183106  0.89514090  0.45741065  1  0.050091  0  -0.083463  -0.297789  0  3.926203  0
C  C57  1  0.56912320  0.09999516  0.56808838  1  0.058207  0  -0.084356  -0.297535  0  3.923815  0
C  C58  1  0.40356787  0.79590915  0.45676849  1  1.103597  0  0.252842  0.458291  0  4.062544  0
C  C59  1  0.56716512  0.19917544  0.56701240  1  1.113749  0  0.251575  0.457079  0  4.061781  0
C  C60  1  0.26075726  0.48775327  0.50970985  1  1.593042  0  0.215603  0.60085  0  4.165531  0
C  C61  1  0.73259687  0.50459896  0.49202775  1  1.607316  0  0.21639  0.603176  0  4.173456  0
C  C62  1  0.58991750  0.79070619  0.53122155  1  0.522149  0  0.071721  0.143104  0  3.89577  0
C  C63  1  0.44956266  0.20076300  0.43904104  1  0.49216  0  0.071662  0.142193  0  3.893622  0
C  C64  1  0.59795558  0.88949003  0.53478484  1  -0.046186  0  -0.081652  -0.196827  0  3.946587  0
C  C65  1  0.44639150  0.10187270  0.43343682  1  -0.024966  0  -0.082283  -0.196626  0  3.945743  0
C  C66  1  0.50217380  0.94391019  0.49735347  1  -0.078906  0  0.019205  0.134785  0  3.992093  0
C  C67  1  0.50608675  0.04937483  0.49958251  1  -0.011168  0  0.019561  0.133875  0  3.992487  0
C  C68  1  0.21947734  0.65782398  0.77121686  1  -0.054483  0  -0.097762  -0.143223  0  3.993157  0
C  C69  1  0.78414663  0.32768108  0.23051608  1  -0.093595  0  -0.096726  -0.142603  0  3.993286  0
C  C70  1  0.15781035  0.59469123  0.71113690  1  -0.035841  0  -0.007796  0.129111  0  3.927696  0
C  C71  1  0.84185425  0.39346684  0.29016495  1  0.025195  0  -0.006873  0.128926  0  3.931079  0
C  C72  1  0.12595246  0.62669760  0.62663959  1  -0.008557  0  -0.008068  0.018557  0  3.95021  0
C  C73  1  0.86663111  0.36571595  0.37701045  1  -0.07298  0  -0.008044  0.015478  0  3.944847  0
C  C74  1  0.15259566  0.72067446  0.60567150  1  -0.005468  0  -0.09949  -0.127722  0  4.028127  0
C  C75  1  0.83401868  0.27415601  0.40154098  1  0.020788  0  -0.096665  -0.122678  0  4.018236  0
C  C76  1  0.21343287  0.78269279  0.66637524  1  -0.077209  0  -0.112457  -0.109254  0  4.090286  0
C  C77  1  0.77727679  0.20948113  0.34126664  1  -0.085801  0  -0.110512  -0.107756  0  4.088235  0
C  C78  1  0.24798430  0.75075110  0.74944857  1  0.012577  0  -0.104277  -0.091774  0  4.076479  0
C  C79  1  0.75230296  0.23649883  0.25521799  1  -0.031121  0  -0.103709  -0.09431  0  4.083887  0
C  C80  1  0.93483444  0.56379242  0.55073964  1  0.006081  0  -0.086654  -0.1549  0  3.968137  0
C  C81  1  0.05825260  0.43012442  0.45118589  1  -0.033244  0  -0.083585  -0.144924  0  3.963402  0
C  C82  1  0.12439739  0.49589706  0.73761087  1  -0.032941  0  -0.239634  -0.410744  0  3.979144  0
C  C83  1  0.87897382  0.49024599  0.26076984  1  -0.086427  0  -0.239383  -0.411513  0  3.981046  0
C  C84  1  0.49959792  0.31972815  0.02882214  1  -0.057238  0  -0.245499  -0.410686  0  4.003328  0
C  C85  1  0.55840591  0.70476933  0.95832054  1  -0.026795  0  -0.245265  -0.408394  0  4.006245  0
C  C86  1  0.42169066  0.30823354  0.20352807  1  -0.0402  0  -0.243343  -0.39963  0  3.987209  0
C  C87  1  0.62181031  0.68868176  0.78160237  1  -0.011572  0  -0.2458  -0.403986  0  3.997123  0
N  N88  1  0.49296846  0.74402404  0.49233495  1  -1.237119  0  -0.312143  -0.28729  0  3.472442  0
N  N89  1  0.50886182  0.24930750  0.50608039  1  -1.253294  0  -0.311436  -0.285786  0  3.469117  0
O  O90  1  0.49172944  0.39921395  0.36954934  1  -1.158288  0  -0.307807  -0.537666  0  2.326456  0
O  O91  1  0.53656844  0.59300671  0.62808613  1  -1.168119  0  -0.313427  -0.541159  0  2.344618  0
O  O92  1  0.46649480  0.55984814  0.36636082  1  -1.160471  0  -0.324303  -0.555638  0  2.339808  0
O  O93  1  0.49327932  0.43571250  0.63704489  1  -1.168541  0  -0.320776  -0.552912  0  2.340092  0
O  O94  1  0.30908104  0.40548594  0.49870893  1  -1.165163  0  -0.325472  -0.554143  0  2.294974  0
O  O95  1  0.68174113  0.58505442  0.47893766  1  -1.171648  0  -0.32143  -0.556966  0  2.295197  0
O  O96  1  0.31767277  0.56667600  0.51915617  1  -1.151956  0  -0.308383  -0.543201  0  2.387924  0
O  O97  1  0.67927873  0.42673560  0.50670134  1  -1.15621  0  -0.3099  -0.543658  0  2.358574  0
F  F98  1  0.65393929  0.63626775  0.09588205  1  -0.644672  0  -0.096225  -0.141254  0  1.404343  0
F  F99  1  0.34673821  0.40540386  0.92909742  1  -0.643739  0  -0.09803  -0.142617  0  1.390941  0
F  F100  1  0.30945420  0.74764848  0.41753347  1  -0.619185  0  -0.062561  -0.122566  0  1.339302  0
F  F101  1  0.62714781  0.24925485  0.63185876  1  -0.619014  0  -0.067185  -0.12504  0  1.328384  0
