# generated using pymatgen
data_Ni2PH19C18(NO4)2
_symmetry_space_group_name_H-M   'P 1'
_cell_length_a   8.37948531
_cell_length_b   11.43453600
_cell_length_c   12.48898949
_cell_angle_alpha   112.93299978
_cell_angle_beta   96.83970269
_cell_angle_gamma   96.08605693
_symmetry_Int_Tables_number   1
_chemical_formula_structural   Ni2PH19C18(NO4)2
_chemical_formula_sum   'Ni4 P2 H38 C36 N4 O16'
_cell_volume   1078.90534826
_cell_formula_units_Z   2
loop_
 _symmetry_equiv_pos_site_id
 _symmetry_equiv_pos_as_xyz
  1  'x, y, z'
loop_
 _atom_site_type_symbol
 _atom_site_label
 _atom_site_symmetry_multiplicity
 _atom_site_fract_x
 _atom_site_fract_y
 _atom_site_fract_z
 _atom_site_occupancy
 _atom_site_pbe_cm5_charge
 _atom_site_pbe_ddec_charge
 _atom_site_pbe_ddec_spin_density
 _atom_site_pbe_ddec_sum_bond_order
 _atom_site_pbe_magmom
Ni  Ni0  1  0.47878175  0.64468029  0.53757980  1  0.635309  0.914305  -1.91525  2.413273  -1.549
Ni  Ni1  1  0.52392656  0.35439910  0.46194911  1  0.620905  0.883735  0.020914  2.479271  0.016
Ni  Ni2  1  0.24533338  0.44522256  0.32273505  1  0.622212  0.874171  -0.062047  2.443429  -0.051
Ni  Ni3  1  0.75314239  0.55428048  0.67342034  1  0.642916  0.92479  1.946332  2.400647  1.567
P  P4  1  0.14702697  0.29703863  0.49378584  1  0.321733  1.282849  0.002195  5.345536  0.002
P  P5  1  0.85242824  0.70007578  0.50418238  1  0.326423  1.289933  0.000479  5.322101  0.0
H  H6  1  0.56658725  0.50832959  0.34965422  1  0.290968  0.370799  -0.000885  0.947426  0.0
H  H7  1  0.42440331  0.48466459  0.64194836  1  0.289776  0.374663  4e-05  0.951391  0.001
H  H8  1  0.21185681  0.51727714  0.54130072  1  0.297689  0.363288  -0.000352  0.9835  0.0
H  H9  1  0.79106575  0.48036916  0.45363771  1  0.297323  0.363262  0.000755  0.991681  0.0
H  H10  1  0.14669782  0.63524038  0.51487426  1  0.297022  0.401257  -0.00102  0.93935  -0.001
H  H11  1  0.85733607  0.36338684  0.48180896  1  0.295149  0.400463  0.000825  0.944046  0.001
H  H12  1  0.97729727  0.34862764  0.33221039  1  0.28782  0.366965  0.000364  0.988562  0.0
H  H13  1  0.02617052  0.65249189  0.66823015  1  0.2851  0.365976  0.000172  0.990415  0.0
H  H14  1  0.94206765  0.47630373  0.31729320  1  0.291808  0.398296  5.1e-05  0.929494  0.0
H  H15  1  0.05891474  0.52552178  0.68367422  1  0.290007  0.397463  0.000345  0.930367  0.0
H  H16  1  0.10963201  0.69442937  0.16093790  1  0.101717  0.109435  2.6e-05  1.00297  0.0
H  H17  1  0.89685324  0.30706065  0.83912930  1  0.103147  0.110785  0.000182  1.00013  0.0
H  H18  1  0.94558699  0.85834393  0.14212369  1  0.086624  0.081374  -0.00012  1.051038  0.0
H  H19  1  0.05344959  0.14024654  0.85966906  1  0.087396  0.081917  -5e-06  1.05172  0.0
H  H20  1  0.96769500  0.06968020  0.31191946  1  0.098169  0.108956  -2.1e-05  1.043588  0.0
H  H21  1  0.02769617  0.92764054  0.69075458  1  0.09865  0.109075  4e-06  1.040475  0.0
H  H22  1  0.33087019  0.96020004  0.51211171  1  0.10078  0.105718  -6e-06  1.031228  0.0
H  H23  1  0.66991128  0.04016054  0.48937638  1  0.101679  0.107128  -7.5e-05  1.028843  0.0
H  H24  1  0.29146742  0.18080361  0.58347089  1  0.104454  0.150716  0.000121  0.999624  0.0
H  H25  1  0.70404156  0.81820401  0.41963387  1  0.105844  0.15408  6e-06  1.003708  0.0
H  H26  1  0.07953730  0.15477656  0.58457866  1  0.102617  0.145076  -7.8e-05  1.03436  0.0
H  H27  1  0.91535602  0.84494472  0.41644781  1  0.104964  0.148346  0.000612  1.02841  0.001
H  H28  1  0.38922379  0.43697247  0.11562614  1  0.125778  0.102952  -0.001274  0.978796  -0.001
H  H29  1  0.60683466  0.56446746  0.88498735  1  0.125021  0.099299  0.000912  0.973502  0.001
H  H30  1  0.45118974  0.26367539  0.93788833  1  0.11271  0.120173  -0.000475  0.996898  0.0
H  H31  1  0.54829270  0.73731702  0.06392715  1  0.112707  0.12043  0.000583  0.996895  0.0
H  H32  1  0.18248242  0.98917417  0.03950677  1  0.108033  0.111867  -0.000511  1.022012  0.0
H  H33  1  0.81566620  0.01186125  0.96169956  1  0.107389  0.110924  0.000532  1.023803  0.0
H  H34  1  0.13822161  0.17325428  0.21256475  1  0.124025  0.102305  -0.001089  1.016012  -0.002
H  H35  1  0.85730956  0.82804701  0.78778468  1  0.122148  0.098018  0.000755  1.01747  0.002
H  H36  1  0.49167009  0.11558087  0.79316376  1  0.108439  0.112693  -0.000459  1.015535  0.0
H  H37  1  0.50579740  0.88596210  0.20809791  1  0.10883  0.113587  0.000339  1.014785  0.0
H  H38  1  0.55525897  0.92864022  0.63219325  1  0.118499  0.088826  -0.000658  1.045025  -0.001
H  H39  1  0.44233617  0.07329602  0.36874177  1  0.119671  0.090617  0.000696  1.042824  0.001
H  H40  1  0.32454902  0.67265036  0.74764172  1  0.122875  0.09508  -0.000218  1.001256  -0.001
H  H41  1  0.67750493  0.32860497  0.25433989  1  0.122948  0.094042  0.000873  1.004624  0.001
H  H42  1  0.24894716  0.84564899  0.91259509  1  0.110904  0.117782  -0.000514  1.002994  0.0
H  H43  1  0.75205668  0.15518389  0.08933744  1  0.110433  0.117682  0.000428  1.003284  0.0
C  C44  1  0.31923921  0.71648710  0.35156218  1  0.205963  0.579899  -0.002468  4.17554  -0.001
C  C45  1  0.68998884  0.28604171  0.64650310  1  0.211502  0.581558  -0.00208  4.156116  -0.003
C  C46  1  0.23111341  0.81873140  0.33728460  1  -0.024324  -0.036751  -0.003  3.9928  -0.004
C  C47  1  0.77273744  0.18258673  0.66338532  1  -0.022396  -0.035736  0.001571  3.989903  0.002
C  C48  1  0.12287297  0.78965627  0.23234673  1  -0.094272  -0.113785  -0.000658  4.006218  -0.001
C  C49  1  0.88050026  0.21108093  0.76839884  1  -0.093909  -0.114517  -0.001604  4.004446  -0.002
C  C50  1  0.03111821  0.88108004  0.22315264  1  -0.104066  -0.09143  -9.1e-05  4.061323  0.0
C  C51  1  0.96849218  0.11797827  0.77846373  1  -0.103035  -0.089686  9.4e-05  4.056654  0.0
C  C52  1  0.04398037  0.00023345  0.31809019  1  -0.094209  -0.145976  -0.000437  3.941841  0.0
C  C53  1  0.95317358  0.99794922  0.68411689  1  -0.093482  -0.14582  -0.001521  3.938315  -0.001
C  C54  1  0.15307747  0.03174047  0.42359335  1  -0.000857  0.175539  0.000194  3.943732  0.0
C  C55  1  0.84469826  0.96712781  0.57852852  1  -0.000591  0.177986  0.000606  3.942196  0.001
C  C56  1  0.24664207  0.93970359  0.43106466  1  -0.085824  -0.154164  -0.000332  3.906831  0.0
C  C57  1  0.75391476  0.06049771  0.57049235  1  -0.084192  -0.153665  -0.000642  3.903402  0.0
C  C58  1  0.17024646  0.15909914  0.52877889  1  -0.167428  -0.495318  -5.4e-05  3.907518  0.0
C  C59  1  0.82611021  0.83985589  0.47311833  1  -0.167853  -0.499077  0.002806  3.905045  0.003
C  C60  1  0.34695981  0.33554633  0.09404722  1  0.053321  0.090211  -0.000454  3.940691  0.0
C  C61  1  0.65008159  0.66576457  0.90654715  1  0.052384  0.091928  -0.003677  3.952025  -0.005
C  C62  1  0.37988512  0.23753929  0.99501778  1  -0.080421  -0.176445  -0.001096  3.954711  -0.002
C  C63  1  0.61860730  0.76352150  0.00639446  1  -0.079834  -0.175397  0.004167  3.952415  0.005
C  C64  1  0.32453812  0.10786071  0.97145712  1  0.009902  0.093593  0.001176  3.99101  0.001
C  C65  1  0.67427522  0.89315081  0.03006078  1  0.009362  0.094136  -0.006038  3.995093  -0.007
C  C66  1  0.23177271  0.08591790  0.05051546  1  -0.081175  -0.1764  -0.001242  3.951822  -0.002
C  C67  1  0.76597707  0.91518847  0.95055569  1  -0.082574  -0.178981  0.00408  3.957058  0.005
C  C68  1  0.20370969  0.18849255  0.14765145  1  0.052651  0.10361  -0.001216  3.913509  -0.001
C  C69  1  0.79226886  0.81259840  0.85279317  1  0.05114  0.107314  -0.003208  3.923532  -0.004
C  C70  1  0.36350413  0.00004327  0.87086267  1  0.008497  0.093245  0.006072  3.979873  0.006
C  C71  1  0.63612788  0.00102025  0.13085960  1  0.007043  0.090979  0.000339  3.981266  0.001
C  C72  1  0.45102037  0.01976115  0.78833570  1  -0.08017  -0.169321  -0.003261  3.930065  -0.004
C  C73  1  0.54785804  0.98174523  0.21323982  1  -0.07911  -0.167069  0.000543  3.926092  0.001
C  C74  1  0.48811851  0.91534901  0.69701557  1  0.053436  0.107368  0.003653  3.925319  0.005
C  C75  1  0.51096256  0.08638543  0.30451689  1  0.053412  0.103539  0.001011  3.917976  0.001
C  C76  1  0.35980947  0.77239913  0.76088100  1  0.050481  0.103752  0.003907  3.937401  0.005
C  C77  1  0.64144037  0.22895991  0.24107486  1  0.05019  0.103027  0.001286  3.930841  0.001
C  C78  1  0.31757790  0.87152076  0.85415972  1  -0.079368  -0.163831  -0.003445  3.933586  -0.005
C  C79  1  0.68307262  0.12957815  0.14779984  1  -0.079779  -0.16574  0.000853  3.935877  0.001
N  N80  1  0.26242658  0.31182078  0.17065626  1  -0.332135  -0.202814  -0.03987  3.609103  -0.051
N  N81  1  0.73334830  0.68924655  0.82931518  1  -0.330314  -0.224472  0.047388  3.594284  0.065
N  N82  1  0.44366948  0.79273971  0.68267558  1  -0.329598  -0.226933  -0.04141  3.575324  -0.057
N  N83  1  0.55679728  0.20900463  0.31915161  1  -0.329822  -0.210073  0.030013  3.583818  0.039
O  O84  1  0.26909377  0.60170333  0.27460447  1  -0.322391  -0.566869  -0.002035  2.295893  -0.003
O  O85  1  0.74955486  0.40172689  0.71885158  1  -0.317049  -0.552679  0.040935  2.309529  0.06
O  O86  1  0.43336277  0.75224815  0.44122925  1  -0.315759  -0.565362  -0.03502  2.358405  -0.05
O  O87  1  0.57217809  0.25010049  0.55956186  1  -0.307793  -0.547751  -0.034109  2.357971  -0.047
O  O88  1  0.97060326  0.27763065  0.42883057  1  -0.381477  -0.738497  0.004206  2.189551  0.006
O  O89  1  0.02893419  0.71923850  0.56832370  1  -0.379456  -0.738147  -0.007145  2.18222  -0.01
O  O90  1  0.26667657  0.30070561  0.40876208  1  -0.369149  -0.774336  0.019639  2.383379  0.027
O  O91  1  0.73231873  0.69196625  0.58900379  1  -0.371258  -0.775669  -0.004049  2.399207  -0.007
O  O92  1  0.18780181  0.42104456  0.60972577  1  -0.38783  -0.760398  0.001006  2.119012  0.001
O  O93  1  0.81173076  0.57897109  0.38627732  1  -0.387604  -0.760454  0.001379  2.114861  0.001
O  O94  1  0.48121928  0.48032042  0.38637982  1  -0.543672  -0.807669  -0.049873  2.392626  -0.069
O  O95  1  0.51312766  0.51170725  0.60711506  1  -0.557007  -0.833217  0.034942  2.408676  0.048
O  O96  1  0.22936170  0.57101109  0.49401135  1  -0.553429  -0.756187  -0.065997  2.405672  -0.091
O  O97  1  0.77644955  0.42914232  0.50275740  1  -0.56409  -0.780219  0.048789  2.407401  0.065
O  O98  1  0.99697513  0.39946428  0.28352172  1  -0.575996  -0.747426  0.023038  2.163284  0.03
O  O99  1  0.00643175  0.60327676  0.71804614  1  -0.5832  -0.760502  0.038856  2.138854  0.054
