# generated using pymatgen
data_AlH9C15(SO2)3
_symmetry_space_group_name_H-M   'P 1'
_cell_length_a   3.96482981
_cell_length_b   20.10587327
_cell_length_c   20.10585475
_cell_angle_alpha   119.99994944
_cell_angle_beta   90.00026869
_cell_angle_gamma   90.00002732
_symmetry_Int_Tables_number   1
_chemical_formula_structural   AlH9C15(SO2)3
_chemical_formula_sum   'Al2 H18 C30 S6 O12'
_cell_volume   1388.03649361
_cell_formula_units_Z   2
loop_
 _symmetry_equiv_pos_site_id
 _symmetry_equiv_pos_as_xyz
  1  'x, y, z'
loop_
 _atom_site_type_symbol
 _atom_site_label
 _atom_site_symmetry_multiplicity
 _atom_site_fract_x
 _atom_site_fract_y
 _atom_site_fract_z
 _atom_site_occupancy
 _atom_site_pbe_bader_charge
 _atom_site_pbe_bader_spin_density
 _atom_site_pbe_cm5_charge
 _atom_site_pbe_ddec_charge
 _atom_site_pbe_ddec_spin_density
 _atom_site_pbe_ddec_sum_bond_order
 _atom_site_pbe_magmom
Al  Al0  1  0.00195360  0.50000101  0.49999902  1  2.502828  0  0.423909  1.593941  0  2.568759  0
Al  Al1  1  0.00190427  0.16666757  0.83333208  1  2.502842  0  0.423913  1.594035  0  2.568604  0
H  H2  1  0.71406011  0.54320241  0.73188523  1  0.043393  0  0.097393  0.137294  0  0.999569  0
H  H3  1  0.48706248  0.52451062  0.79702895  1  0.030248  0  0.09088  0.1279  0  0.996148  0
H  H4  1  0.26967532  0.54294481  0.73029913  1  0.042773  0  0.096342  0.13658  0  1.01011  0
H  H5  1  0.71408840  0.12346305  0.60143853  1  0.043699  0  0.097356  0.137238  0  0.999675  0
H  H6  1  0.48704637  0.14214724  0.53629399  1  0.030031  0  0.09089  0.127903  0  0.99598  0
H  H7  1  0.26970616  0.12371221  0.60302916  1  0.043039  0  0.096351  0.136571  0  1.010009  0
H  H8  1  0.71406454  0.68868365  0.45679773  1  0.057978  0  0.097371  0.13727  0  0.999564  0
H  H9  1  0.48706646  0.77251944  0.47548887  1  0.028434  0  0.090857  0.12788  0  0.99616  0
H  H10  1  0.26967725  0.68735556  0.45705404  1  0.050557  0  0.096373  0.1366  0  1.010101  0
H  H11  1  0.71408498  0.97797908  0.87653881  1  0.057194  0  0.097355  0.137226  0  0.999622  0
H  H12  1  0.48704340  0.89415037  0.85785404  1  0.028383  0  0.090882  0.127873  0  0.995988  0
H  H13  1  0.26970273  0.97931937  0.87628928  1  0.051432  0  0.09633  0.136547  0  1.010057  0
H  H14  1  0.71406490  0.26811664  0.31131664  1  0.046974  0  0.097378  0.137267  0  0.999575  0
H  H15  1  0.48706292  0.20297110  0.22748063  1  0.032925  0  0.090875  0.127895  0  0.996147  0
H  H16  1  0.26967762  0.26969955  0.31264386  1  0.040687  0  0.096357  0.136612  0  1.010062  0
H  H17  1  0.71408680  0.39856321  0.02202261  1  0.043925  0  0.097332  0.137184  0  0.999684  0
H  H18  1  0.48704660  0.46370669  0.10585126  1  0.032897  0  0.090873  0.127834  0  0.995987  0
H  H19  1  0.26970201  0.39697239  0.02068150  1  0.042702  0  0.096379  0.136614  0  1.010087  0
C  C20  1  0.50255369  0.44097173  0.38201686  1  1.549971  0  0.272538  0.679933  0  4.073183  0
C  C21  1  0.50256085  0.44104690  0.55902737  1  1.555657  0  0.272524  0.679787  0  4.073453  0
C  C22  1  0.50255598  0.61798361  0.55895418  1  1.560762  0  0.27263  0.680096  0  4.073034  0
C  C23  1  0.50252285  0.22562408  0.77430237  1  1.55654  0  0.2725  0.679732  0  4.073052  0
C  C24  1  0.50252519  0.04868250  0.77437644  1  1.559632  0  0.272553  0.679929  0  4.072918  0
C  C25  1  0.50252496  0.22569779  0.95131832  1  1.549613  0  0.272444  0.679813  0  4.072928  0
C  C26  1  0.49374728  0.43036939  0.68069342  1  0.038222  0  -0.013321  0.124927  0  3.982145  0
C  C27  1  0.49374927  0.23628850  0.65262552  1  0.038207  0  -0.013297  0.125012  0  3.98235  0
C  C28  1  0.50261428  0.39881196  0.60156180  1  -0.123635  0  -0.021174  -0.182249  0  3.905686  0
C  C29  1  0.50258039  0.26784984  0.73176220  1  -0.123285  0  -0.021096  -0.182198  0  3.905799  0
C  C30  1  0.50952029  0.29606456  0.63460435  1  -0.127123  0  -0.026894  -0.075184  0  4.076225  0
C  C31  1  0.50951609  0.37059433  0.69871560  1  -0.179087  0  -0.026837  -0.075027  0  4.075922  0
C  C32  1  0.49374628  0.75032651  0.56963002  1  0.046188  0  -0.013301  0.125025  0  3.982297  0
C  C33  1  0.49374625  0.91634103  0.76371120  1  0.045798  0  -0.013237  0.125095  0  3.981954  0
C  C34  1  0.50260702  0.70275447  0.60118992  1  -0.132669  0  -0.021217  -0.182473  0  3.905956  0
C  C35  1  0.50259119  0.96391587  0.73214952  1  -0.132337  0  -0.021234  -0.182452  0  3.905693  0
C  C36  1  0.50950905  0.83854428  0.70393628  1  -0.117183  0  -0.026937  -0.075267  0  4.075883  0
C  C37  1  0.50950815  0.82812384  0.62940439  1  -0.190538  0  -0.026856  -0.074917  0  4.075869  0
C  C38  1  0.49373950  0.31930591  0.24967337  1  0.118289  0  -0.013347  0.124929  0  3.982388  0
C  C39  1  0.49374512  0.34737444  0.08365995  1  0.118558  0  -0.013344  0.124847  0  3.982211  0
C  C40  1  0.50260056  0.39843796  0.29724653  1  -0.180789  0  -0.021224  -0.18238  0  3.905857  0
C  C41  1  0.50258217  0.26823727  0.03608397  1  -0.180878  0  -0.021122  -0.182178  0  3.905503  0
C  C42  1  0.50950714  0.36539407  0.16145614  1  -0.120382  0  -0.026905  -0.075104  0  4.075882  0
C  C43  1  0.50950468  0.30128316  0.17187636  1  -0.194674  0  -0.026841  -0.075067  0  4.07603  0
C  C44  1  0.49012117  0.51463373  0.73818460  1  -0.008673  0  -0.232428  -0.388855  0  3.952238  0
C  C45  1  0.49013170  0.15202591  0.59513954  1  -0.009219  0  -0.232357  -0.388719  0  3.952264  0
C  C46  1  0.49012340  0.72355273  0.48536658  1  -0.027268  0  -0.232411  -0.388869  0  3.95226  0
C  C47  1  0.49012796  0.94311695  0.84797449  1  -0.027448  0  -0.232359  -0.38869  0  3.952128  0
C  C48  1  0.49012044  0.26181627  0.27644770  1  -0.016444  0  -0.232399  -0.388839  0  3.952295  0
C  C49  1  0.49012805  0.40486023  0.05688349  1  -0.015519  0  -0.232329  -0.388594  0  3.952254  0
S  S50  1  0.52581759  0.29913834  0.55058105  1  0.234231  0  0.070581  0.10021  0  2.826836  0
S  S51  1  0.52579269  0.36752329  0.78273819  1  0.234275  0  0.07052  0.100111  0  2.826782  0
S  S52  1  0.52581228  0.75144706  0.70086295  1  0.237094  0  0.070599  0.100244  0  2.826785  0
S  S53  1  0.52579649  0.91521815  0.63247768  1  0.237444  0  0.070589  0.100168  0  2.82682  0
S  S54  1  0.52580405  0.44941795  0.24855437  1  0.235527  0  0.070609  0.100226  0  2.826744  0
S  S55  1  0.52578925  0.21726141  0.08478200  1  0.235775  0  0.070576  0.100181  0  2.826585  0
O  O56  1  0.73595581  0.58404730  0.57456082  1  -1.248427  0  -0.240942  -0.602121  0  2.349871  0
O  O57  1  0.73595382  0.49051507  0.41595281  1  -1.247808  0  -0.240885  -0.602044  0  2.349972  0
O  O58  1  0.73595992  0.42543980  0.50948259  1  -1.243762  0  -0.240897  -0.602042  0  2.350101  0
O  O59  1  0.26834354  0.58420261  0.50963685  1  -1.253858  0  -0.234382  -0.589901  0  2.343969  0
O  O60  1  0.26835179  0.49036380  0.57456386  1  -1.249265  0  -0.234343  -0.589773  0  2.344068  0
O  O61  1  0.26834478  0.42543449  0.41579732  1  -1.255805  0  -0.234359  -0.589854  0  2.343907  0
O  O62  1  0.73591914  0.17614738  0.91737599  1  -1.247825  0  -0.240908  -0.602065  0  2.349745  0
O  O63  1  0.73592061  0.24123026  0.82385153  1  -1.243795  0  -0.240921  -0.601988  0  2.349739  0
O  O64  1  0.73591967  0.08262414  0.75876894  1  -1.247623  0  -0.240851  -0.601946  0  2.3498  0
O  O65  1  0.26829510  0.24123294  0.91753449  1  -1.255446  0  -0.234315  -0.589911  0  2.343729  0
O  O66  1  0.26830138  0.08246511  0.82369468  1  -1.253605  0  -0.234433  -0.589982  0  2.343762  0
O  O67  1  0.26829314  0.17630449  0.75876709  1  -1.250352  0  -0.234356  -0.589843  0  2.343655  0
