# generated using pymatgen
data_AgH6(C5N2)2
_symmetry_space_group_name_H-M   'P 1'
_cell_length_a   5.23050366
_cell_length_b   7.79699239
_cell_length_c   24.34808741
_cell_angle_alpha   97.14111739
_cell_angle_beta   93.12335459
_cell_angle_gamma   103.95651673
_symmetry_Int_Tables_number   1
_chemical_formula_structural   AgH6(C5N2)2
_chemical_formula_sum   'Ag4 H24 C40 N16'
_cell_volume   952.49426640
_cell_formula_units_Z   4
loop_
 _symmetry_equiv_pos_site_id
 _symmetry_equiv_pos_as_xyz
  1  'x, y, z'
loop_
 _atom_site_type_symbol
 _atom_site_label
 _atom_site_symmetry_multiplicity
 _atom_site_fract_x
 _atom_site_fract_y
 _atom_site_fract_z
 _atom_site_occupancy
 _atom_site_hle17_bader_spin_density
 _atom_site_hle17_ddec_charge
 _atom_site_hle17_ddec_spin_density
 _atom_site_hle17_ddec_sum_bond_order
 _atom_site_hle17_magmom
 _atom_site_hse06_10hf_bader_spin_density
 _atom_site_hse06_10hf_ddec_charge
 _atom_site_hse06_10hf_ddec_spin_density
 _atom_site_hse06_10hf_ddec_sum_bond_order
 _atom_site_hse06_10hf_magmom
 _atom_site_hse06_bader_spin_density
 _atom_site_hse06_ddec_charge
 _atom_site_hse06_ddec_spin_density
 _atom_site_hse06_ddec_sum_bond_order
 _atom_site_hse06_magmom
 _atom_site_pbe_bader_spin_density
 _atom_site_pbe_cm5_charge
 _atom_site_pbe_ddec_charge
 _atom_site_pbe_ddec_spin_density
 _atom_site_pbe_ddec_sum_bond_order
 _atom_site_pbe_magmom
Ag  Ag0  1  0.72736987  0.35766001  0.54438538  1  0  0.438285  0  1.821258  0  0  0.323746  0  2.278654  0  0  0.340031  0  2.242943  0  0  0.448692  0.313589  0  2.302212  0
Ag  Ag1  1  0.27262856  0.64234154  0.45561546  1  0  0.438299  0  1.821235  0  0  0.323762  0  2.278628  0  0  0.34005  0  2.242915  0  0  0.448709  0.313607  0  2.302189  0
Ag  Ag2  1  0.20297627  0.32966804  0.95451741  1  0  0.427309  0  1.873339  0  0  0.312625  0  2.345023  0  0  0.327724  0  2.308284  0  0  0.445767  0.303224  0  2.369343  0
Ag  Ag3  1  0.79702216  0.67033350  0.04548220  1  0  0.427296  0  1.87335  0  0  0.312624  0  2.345009  0  0  0.327723  0  2.308271  0  0  0.445759  0.303224  0  2.369329  0
H  H4  1  0.25796014  0.02577733  0.48367298  1  0  0.075506  0  0.948641  0  0  0.081092  0  1.016651  0  0  0.083755  0  1.014615  0  0  0.106769  0.079169  0  1.018169  0
H  H5  1  0.74203725  0.97422154  0.51632692  1  0  0.075438  0  0.948747  0  0  0.081083  0  1.016701  0  0  0.083754  0  1.014658  0  0  0.106759  0.07916  0  1.018222  0
H  H6  1  0.95531723  0.91751976  0.39642342  1  0  0.116794  0  0.966693  0  0  0.1211  0  1.03346  0  0  0.124561  0  1.032169  0  0  0.10633  0.118656  0  1.034458  0
H  H7  1  0.04467826  0.08247914  0.60357688  1  0  0.1168  0  0.966681  0  0  0.121106  0  1.033439  0  0  0.124571  0  1.032144  0  0  0.106351  0.118661  0  1.034437  0
H  H8  1  0.56807554  0.21204791  0.30790548  1  0  0.118128  0  0.951304  0  0  0.12102  0  1.023606  0  0  0.125493  0  1.020493  0  0  0.108401  0.11785  0  1.025888  0
H  H9  1  0.43192464  0.78794826  0.69209477  1  0  0.118098  0  0.95131  0  0  0.120982  0  1.023634  0  0  0.125454  0  1.020523  0  0  0.108388  0.117811  0  1.025916  0
H  H10  1  0.85297853  0.29758956  0.39851961  1  0  0.062711  0  0.957034  0  0  0.066699  0  1.032551  0  0  0.069827  0  1.029358  0  0  0.102883  0.064419  0  1.034883  0
H  H11  1  0.14701696  0.70240933  0.60148028  1  0  0.062711  0  0.95707  0  0  0.066693  0  1.032594  0  0  0.069821  0  1.029401  0  0  0.102883  0.064413  0  1.034926  0
H  H12  1  0.64644805  0.97699690  0.10900263  1  0  0.113175  0  0.979252  0  0  0.116851  0  1.047651  0  0  0.120175  0  1.046269  0  0  0.1045  0.114503  0  1.048745  0
H  H13  1  0.35355487  0.02301130  0.89099770  1  0  0.113151  0  0.9793  0  0  0.116819  0  1.047699  0  0  0.120143  0  1.046316  0  0  0.104491  0.114472  0  1.048792  0
H  H14  1  0.77568149  0.09884252  0.02110333  1  0  0.077576  0  0.938604  0  0  0.085228  0  1.001467  0  0  0.087351  0  1.000795  0  0  0.108856  0.083694  0  1.002014  0
H  H15  1  0.22431694  0.90115902  0.97889669  1  0  0.077577  0  0.938559  0  0  0.085204  0  1.00145  0  0  0.087328  0  1.00078  0  0  0.108843  0.083671  0  1.001999  0
H  H16  1  0.53636258  0.34002603  0.09056745  1  0  0.060698  0  0.959183  0  0  0.063046  0  1.040547  0  0  0.066822  0  1.036072  0  0  0.101774  0.06033  0  1.043685  0
H  H17  1  0.46363915  0.65997414  0.90943256  1  0  0.060706  0  0.959209  0  0  0.063053  0  1.040572  0  0  0.066834  0  1.036083  0  0  0.10177  0.060336  0  1.043713  0
H  H18  1  0.43771791  0.23029636  0.18212306  1  0  0.121135  0  0.94469  0  0  0.124772  0  1.014537  0  0  0.129024  0  1.011712  0  0  0.110755  0.121714  0  1.016684  0
H  H19  1  0.56228625  0.76970514  0.81787744  1  0  0.121072  0  0.944694  0  0  0.124718  0  1.014533  0  0  0.128969  0  1.01171  0  0  0.110734  0.121664  0  1.016676  0
H  H20  1  0.27249368  0.71682211  0.16508670  1  0  0.110219  0  0.974185  0  0  0.114577  0  1.045327  0  0  0.117952  0  1.043888  0  0  0.102235  0.112185  0  1.046421  0
H  H21  1  0.72750217  0.28317273  0.83491181  1  0  0.110237  0  0.974248  0  0  0.114584  0  1.045389  0  0  0.117959  0  1.04395  0  0  0.102249  0.112192  0  1.046483  0
H  H22  1  0.84713443  0.49189518  0.16816744  1  0  0.061253  0  0.944146  0  0  0.068572  0  1.015415  0  0  0.071439  0  1.012734  0  0  0.104243  0.06638  0  1.017457  0
H  H23  1  0.15286280  0.50809836  0.83183349  1  0  0.061231  0  0.944202  0  0  0.068567  0  1.015459  0  0  0.07142  0  1.012792  0  0  0.10424  0.066375  0  1.017503  0
H  H24  1  0.05731231  0.41785171  0.32846469  1  0  0.057538  0  0.953319  0  0  0.065189  0  1.023452  0  0  0.067825  0  1.020894  0  0  0.102306  0.063258  0  1.025365  0
H  H25  1  0.94269583  0.58215512  0.67153689  1  0  0.057515  0  0.95327  0  0  0.065186  0  1.02339  0  0  0.067817  0  1.020839  0  0  0.102271  0.063254  0  1.025302  0
H  H26  1  0.48852417  0.64276868  0.33249486  1  0  0.105565  0  0.971828  0  0  0.10658  0  1.048842  0  0  0.110931  0  1.045707  0  0  0.102078  0.10355  0  1.05093  0
H  H27  1  0.51147963  0.35723683  0.66750456  1  0  0.105566  0  0.97184  0  0  0.106587  0  1.048855  0  0  0.110929  0  1.045729  0  0  0.102071  0.103554  0  1.050945  0
C  C28  1  0.35083346  0.37036275  0.55349856  1  0  -0.070396  0  3.462285  0  0  -0.047205  0  3.800167  0  0  -0.043162  0  3.808115  0  0  -0.012158  -0.050529  0  3.795446  0
C  C29  1  0.64916497  0.62963880  0.44650228  1  0  -0.070398  0  3.462257  0  0  -0.047204  0  3.800139  0  0  -0.043162  0  3.808086  0  0  -0.012171  -0.050528  0  3.795421  0
C  C30  1  0.81935178  0.33438071  0.94444003  1  0  -0.077326  0  3.464548  0  0  -0.057647  0  3.810176  0  0  -0.051862  0  3.815149  0  0  -0.018413  -0.061837  0  3.806971  0
C  C31  1  0.18064561  0.66561817  0.05556029  1  0  -0.077353  0  3.464487  0  0  -0.057675  0  3.810114  0  0  -0.051886  0  3.815084  0  0  -0.018426  -0.061866  0  3.806912  0
C  C32  1  0.32219932  0.06152966  0.44375126  1  0  0.103989  0  3.748321  0  0  0.082059  0  4.002435  0  0  0.086421  0  4.020001  0  0  0.03348  0.079161  0  3.990601  0
C  C33  1  0.67779513  0.93846656  0.55624851  1  0  0.103993  0  3.748389  0  0  0.082012  0  4.00251  0  0  0.086368  0  4.020076  0  0  0.033485  0.079113  0  3.99068  0
C  C34  1  0.15244120  0.00275961  0.39554789  1  0  -0.134091  0  3.714283  0  0  -0.15376  0  3.959308  0  0  -0.158851  0  3.97972  0  0  -0.080799  -0.150374  0  3.945609  0
C  C35  1  0.84755516  0.99723659  0.60445190  1  0  -0.134077  0  3.714255  0  0  -0.153723  0  3.959331  0  0  -0.158815  0  3.979738  0  0  -0.080824  -0.150337  0  3.945632  0
C  C36  1  0.23933473  0.05579263  0.34545687  1  0  0.020186  0  3.747461  0  0  0.036331  0  3.973242  0  0  0.035385  0  3.995884  0  0  0.007673  0.037054  0  3.95783  0
C  C37  1  0.76066544  0.94420353  0.65454256  1  0  0.020243  0  3.747376  0  0  0.036314  0  3.97327  0  0  0.035367  0  3.995913  0  0  0.007706  0.037038  0  3.957855  0
C  C38  1  0.49532043  0.16520664  0.34591715  1  0  -0.124895  0  3.670673  0  0  -0.144784  0  3.913053  0  0  -0.150491  0  3.935039  0  0  -0.077536  -0.140948  0  3.898132  0
C  C39  1  0.50467975  0.83478954  0.65408310  1  0  -0.124886  0  3.67058  0  0  -0.144746  0  3.91297  0  0  -0.150454  0  3.934959  0  0  -0.077546  -0.14091  0  3.898046  0
C  C40  1  0.65208345  0.21345712  0.39626122  1  0  0.126833  0  3.730387  0  0  0.103567  0  3.983929  0  0  0.107386  0  4.003938  0  0  0.041898  0.101173  0  3.970139  0
C  C41  1  0.34791534  0.78654040  0.60373865  1  0  0.126849  0  3.730467  0  0  0.103594  0  3.983987  0  0  0.107413  0  4.003997  0  0  0.041909  0.101201  0  3.970193  0
C  C42  1  0.06022992  0.99755469  0.29386194  1  0  0.402507  0  3.760121  0  0  0.383213  0  4.019452  0  0  0.400172  0  4.031015  0  0  0.261544  0.372026  0  4.011437  0
C  C43  1  0.93977077  0.00244282  0.70613796  1  0  0.402521  0  3.760092  0  0  0.383228  0  4.01946  0  0  0.400188  0  4.031025  0  0  0.261551  0.372041  0  4.011444  0
C  C44  1  0.66875672  0.83344133  0.24906386  1  0  0.410047  0  3.749154  0  0  0.389127  0  4.010795  0  0  0.406574  0  4.021466  0  0  0.264042  0.377635  0  4.003399  0
C  C45  1  0.33124640  0.16655749  0.75093530  1  0  0.410014  0  3.749138  0  0  0.389115  0  4.010736  0  0  0.40656  0  4.021411  0  0  0.263999  0.377624  0  4.003337  0
C  C46  1  0.96168204  0.01813997  0.20355602  1  0  0.409902  0  3.752197  0  0  0.390309  0  4.012966  0  0  0.40811  0  4.022614  0  0  0.264485  0.378499  0  4.006347  0
C  C47  1  0.03831743  0.98186423  0.79644330  1  0  0.409917  0  3.75229  0  0  0.390354  0  4.013048  0  0  0.408164  0  4.022683  0  0  0.26449  0.378545  0  4.00643  0
C  C48  1  0.03383368  0.09231951  0.15190861  1  0  0.027538  0  3.740147  0  0  0.041108  0  3.966241  0  0  0.040246  0  3.988166  0  0  0.009877  0.041814  0  3.951326  0
C  C49  1  0.96616769  0.90768467  0.84809114  1  0  0.0276  0  3.74006  0  0  0.041107  0  3.966234  0  0  0.040243  0  3.988157  0  0  0.0099  0.041813  0  3.951322  0
C  C50  1  0.84583619  0.05586564  0.10606432  1  0  -0.152752  0  3.748406  0  0  -0.170186  0  3.99711  0  0  -0.174908  0  4.01665  0  0  -0.087595  -0.167092  0  3.983959  0
C  C51  1  0.15416761  0.94413987  0.89393591  1  0  -0.15282  0  3.748445  0  0  -0.170223  0  3.997167  0  0  -0.174946  0  4.01671  0  0  -0.08764  -0.16713  0  3.984017  0
C  C52  1  0.91841776  0.12372123  0.05742521  1  0  0.10691  0  3.748347  0  0  0.083485  0  4.003232  0  0  0.087346  0  4.021533  0  0  0.037557  0.080897  0  3.990857  0
C  C53  1  0.08158171  0.87628296  0.94257369  1  0  0.106955  0  3.748321  0  0  0.083562  0  4.003178  0  0  0.08742  0  4.021484  0  0  0.037589  0.080972  0  3.990805  0
C  C54  1  0.34125325  0.25779781  0.09626712  1  0  0.122896  0  3.718811  0  0  0.101316  0  3.967176  0  0  0.104618  0  3.98781  0  0  0.043102  0.099225  0  3.952977  0
C  C55  1  0.65875039  0.74220234  0.90373249  1  0  0.122876  0  3.718826  0  0  0.101303  0  3.967183  0  0  0.104607  0  3.98782  0  0  0.043094  0.099212  0  3.952987  0
C  C56  1  0.28744671  0.19743945  0.14700549  1  0  -0.119241  0  3.665586  0  0  -0.136663  0  3.904252  0  0  -0.142168  0  3.926577  0  0  -0.072393  -0.13296  0  3.88912  0
C  C57  1  0.71255553  0.80256206  0.85299457  1  0  -0.119148  0  3.665534  0  0  -0.136561  0  3.904229  0  0  -0.142068  0  3.926555  0  0  -0.072354  -0.132859  0  3.889092  0
C  C58  1  0.41474461  0.69872316  0.24887986  1  0  0.023652  0  3.73266  0  0  0.038477  0  3.959847  0  0  0.037429  0  3.982025  0  0  0.005907  0.039261  0  3.944679  0
C  C59  1  0.58525660  0.30127566  0.75111886  1  0  0.02363  0  3.73269  0  0  0.03847  0  3.959831  0  0  0.037427  0  3.982005  0  0  0.005897  0.039252  0  3.944661  0
C  C60  1  0.23028550  0.65415360  0.20220012  1  0  -0.130879  0  3.692928  0  0  -0.15207  0  3.936121  0  0  -0.157546  0  3.958752  0  0  -0.08235  -0.148334  0  3.920704  0
C  C61  1  0.76971329  0.34584392  0.79779975  1  0  -0.130878  0  3.69306  0  0  -0.152057  0  3.936244  0  0  -0.157533  0  3.958869  0  0  -0.082338  -0.148321  0  3.920829  0
C  C62  1  0.99354015  0.52733605  0.20416004  1  0  0.109511  0  3.751098  0  0  0.087545  0  4.012255  0  0  0.090957  0  4.031812  0  0  0.035222  0.085471  0  3.998809  0
C  C63  1  0.00645864  0.47266148  0.79584065  1  0  0.109617  0  3.751055  0  0  0.087629  0  4.012213  0  0  0.091049  0  4.031775  0  0  0.035297  0.085553  0  3.998769  0
C  C64  1  0.10947531  0.48676663  0.29269704  1  0  0.120093  0  3.740441  0  0  0.097691  0  4.000356  0  0  0.101888  0  4.018218  0  0  0.039891  0.094975  0  3.988156  0
C  C65  1  0.89052884  0.51323488  0.70730387  1  0  0.120148  0  3.740496  0  0  0.097731  0  4.000414  0  0  0.101933  0  4.018274  0  0  0.039941  0.095018  0  3.988206  0
C  C66  1  0.35135049  0.61235805  0.29529236  1  0  -0.126166  0  3.692517  0  0  -0.1479  0  3.94088  0  0  -0.152687  0  3.961023  0  0  -0.077874  -0.144568  0  3.927194  0
C  C67  1  0.64865557  0.38764342  0.70470693  1  0  -0.12618  0  3.692586  0  0  -0.147937  0  3.940946  0  0  -0.152711  0  3.961084  0  0  -0.077862  -0.144605  0  3.927265  0
N  N68  1  0.12601585  0.36875331  0.55199070  1  0  -0.390292  0  3.302324  0  0  -0.312905  0  3.609546  0  0  -0.331478  0  3.620852  0  0  -0.416943  -0.300538  0  3.601617  0
N  N69  1  0.87398258  0.63124824  0.44801014  1  0  -0.390302  0  3.302344  0  0  -0.312916  0  3.609558  0  0  -0.331491  0  3.620871  0  0  -0.416935  -0.300548  0  3.601632  0
N  N70  1  0.59521774  0.33302905  0.94564287  1  0  -0.383413  0  3.291889  0  0  -0.307371  0  3.602012  0  0  -0.325341  0  3.61206  0  0  -0.41642  -0.295542  0  3.595118  0
N  N71  1  0.40478172  0.66697515  0.05435726  1  0  -0.383384  0  3.291833  0  0  -0.30734  0  3.601953  0  0  -0.325308  0  3.611987  0  0  -0.416405  -0.295512  0  3.595061  0
N  N72  1  0.56936635  0.16434884  0.44456514  1  0  -0.312214  0  3.166635  0  0  -0.258465  0  3.438704  0  0  -0.271114  0  3.453945  0  0  -0.323715  -0.249632  0  3.428039  0
N  N73  1  0.43063053  0.83564870  0.55543512  1  0  -0.312225  0  3.166721  0  0  -0.258486  0  3.438817  0  0  -0.271136  0  3.454061  0  0  -0.323731  -0.249655  0  3.428155  0
N  N74  1  0.82918911  0.87841591  0.29633546  1  0  -0.435529  0  2.970152  0  0  -0.39765  0  3.226294  0  0  -0.415087  0  3.238947  0  0  -0.296469  -0.386333  0  3.217869  0
N  N75  1  0.17081158  0.12158159  0.70366402  1  0  -0.435509  0  2.970146  0  0  -0.397616  0  3.226263  0  0  -0.415054  0  3.238918  0  0  -0.296441  -0.386298  0  3.217834  0
N  N76  1  0.72352164  0.90300025  0.20197686  1  0  -0.433139  0  2.954364  0  0  -0.398786  0  3.217013  0  0  -0.41527  0  3.226517  0  0  -0.295978  -0.388074  0  3.21077  0
N  N77  1  0.27647679  0.09700129  0.79802316  1  0  -0.433155  0  2.954349  0  0  -0.398825  0  3.216985  0  0  -0.415312  0  3.226488  0  0  -0.295981  -0.388115  0  3.210743  0
N  N78  1  0.13886877  0.06812333  0.24818147  1  0  -0.432864  0  2.965543  0  0  -0.400445  0  3.228068  0  0  -0.417498  0  3.239311  0  0  -0.296281  -0.389271  0  3.220582  0
N  N79  1  0.86113296  0.93187685  0.75181895  1  0  -0.432892  0  2.965585  0  0  -0.400468  0  3.228095  0  0  -0.417524  0  3.239338  0  0  -0.296291  -0.389296  0  3.220611  0
N  N80  1  0.16234253  0.22140169  0.05197369  1  0  -0.299923  0  3.185927  0  0  -0.244358  0  3.45793  0  0  -0.257296  0  3.474718  0  0  -0.321362  -0.23532  0  3.44629  0
N  N81  1  0.83765972  0.77859981  0.94802637  1  0  -0.299954  0  3.185879  0  0  -0.244397  0  3.457873  0  0  -0.257336  0  3.474662  0  0  -0.321368  -0.23536  0  3.446235  0
N  N82  1  0.93045337  0.44292515  0.24830469  1  0  -0.306831  0  3.041801  0  0  -0.275131  0  3.313341  0  0  -0.28469  0  3.329183  0  0  -0.323983  -0.268358  0  3.302288  0
N  N83  1  0.06954645  0.55707505  0.75169612  1  0  -0.306911  0  3.041789  0  0  -0.275211  0  3.313341  0  0  -0.28477  0  3.329178  0  0  -0.324062  -0.268438  0  3.302289  0
