# generated using pymatgen
data_CuH9C8SN2ClO3
_symmetry_space_group_name_H-M   'P 1'
_cell_length_a   8.29169468
_cell_length_b   8.27027395
_cell_length_c   9.03642214
_cell_angle_alpha   98.81945452
_cell_angle_beta   105.06540174
_cell_angle_gamma   114.66481525
_symmetry_Int_Tables_number   1
_chemical_formula_structural   CuH9C8SN2ClO3
_chemical_formula_sum   'Cu2 H18 C16 S2 N4 Cl2 O6'
_cell_volume   519.01690852
_cell_formula_units_Z   2
loop_
 _symmetry_equiv_pos_site_id
 _symmetry_equiv_pos_as_xyz
  1  'x, y, z'
loop_
 _atom_site_type_symbol
 _atom_site_label
 _atom_site_symmetry_multiplicity
 _atom_site_fract_x
 _atom_site_fract_y
 _atom_site_fract_z
 _atom_site_occupancy
 _atom_site_hle17_ddec_charge
 _atom_site_hle17_ddec_spin_density
 _atom_site_hle17_ddec_sum_bond_order
 _atom_site_hle17_magmom
 _atom_site_hse06_10hf_bader_charge
 _atom_site_hse06_10hf_bader_spin_density
 _atom_site_hse06_10hf_ddec_charge
 _atom_site_hse06_10hf_ddec_spin_density
 _atom_site_hse06_10hf_ddec_sum_bond_order
 _atom_site_hse06_10hf_magmom
 _atom_site_hse06_ddec_charge
 _atom_site_hse06_ddec_spin_density
 _atom_site_hse06_ddec_sum_bond_order
 _atom_site_hse06_magmom
 _atom_site_pbe_cm5_charge
 _atom_site_pbe_ddec_charge
 _atom_site_pbe_ddec_spin_density
 _atom_site_pbe_ddec_sum_bond_order
 _atom_site_pbe_magmom
Cu  Cu0  1  0.71109494  0.50333621  0.59975216  1  0.805121  -0.709073  1.884527  -0.497  1.072013  -0.613352  0.786804  -0.793976  2.276802  -0.611  0.874823  -0.869775  2.205232  -0.695  0.670985  0.735048  -0.740732  2.325057  -0.558
Cu  Cu1  1  0.28890358  0.49666654  0.40024911  1  0.805151  0.709065  1.884429  0.497  1.072167  0.613353  0.786869  0.793975  2.276709  0.611  0.87487  0.86977  2.205146  0.695  0.671009  0.735106  0.740733  2.324948  0.558
H  H2  1  0.67278227  0.83404902  0.77062271  1  0.088884  -0.001485  0.980681  -0.003  0.145069  -0.002908  0.091879  -0.001307  1.052262  -0.002  0.094178  -0.000908  1.049401  -0.002  0.109863  0.089956  -0.00164  1.054593  -0.002
H  H3  1  0.32721215  0.16594536  0.22937421  1  0.088894  0.001488  0.98068  0.003  0.145063  0.002908  0.091876  0.001307  1.052294  0.002  0.094177  0.000908  1.049432  0.002  0.109854  0.089962  0.00164  1.054591  0.002
H  H4  1  0.90814784  0.08776779  0.48814142  1  0.133468  -0.000398  0.936388  0.0  0.099558  -0.000336  0.149413  -0.000353  0.992496  0.0  0.152799  -0.000225  0.990287  0.0  0.104827  0.147165  -0.000466  0.993926  0.0
H  H5  1  0.09184929  0.91223217  0.51185582  1  0.133487  0.000393  0.936367  0.0  0.099398  0.000336  0.149403  0.000353  0.992502  0.0  0.15279  0.000225  0.990289  0.0  0.104817  0.147157  0.000466  0.993933  0.0
H  H6  1  0.02335049  0.33368908  0.57888780  1  0.13861  -0.000114  0.968858  0.0  0.129062  -3.3e-05  0.147482  -6.9e-05  1.033928  0.0  0.150291  -7.8e-05  1.033217  0.0  0.104789  0.145326  -5.4e-05  1.034812  0.0
H  H7  1  0.97665295  0.66631090  0.42111643  1  0.138622  0.000115  0.968872  0.0  0.129001  3.3e-05  0.147493  6.9e-05  1.03391  0.0  0.150302  7.8e-05  1.033201  0.0  0.104787  0.145338  5.4e-05  1.034794  0.0
H  H8  1  0.78863666  0.27679741  0.93401332  1  0.110504  -0.004042  0.89635  -0.005  0.161194  -0.004749  0.123161  -0.002509  0.951009  -0.003  0.125402  -0.001836  0.947412  -0.002  0.133283  0.121302  -0.003011  0.953916  -0.003
H  H9  1  0.21136743  0.72320395  0.06598794  1  0.110547  0.004043  0.896326  0.005  0.161214  0.00475  0.123185  0.00251  0.950999  0.003  0.125435  0.001836  0.947393  0.002  0.1333  0.121327  0.003011  0.953907  0.003
H  H10  1  0.77226497  0.49492486  0.15868861  1  0.128625  -0.001019  0.961834  -0.001  0.150513  -0.001392  0.134894  -0.00075  1.025772  -0.001  0.138165  -0.000508  1.024659  -0.001  0.111344  0.132431  -0.000957  1.026623  -0.001
H  H11  1  0.22773398  0.50507370  0.84130774  1  0.128621  0.001014  0.961778  0.001  0.150511  0.001392  0.134889  0.00075  1.025726  0.001  0.138157  0.000508  1.024617  0.001  0.111345  0.132429  0.000957  1.026571  0.001
H  H12  1  0.63186175  0.05316772  0.57607997  1  0.090106  -0.000883  0.942719  -0.001  0.139589  -0.000787  0.104366  -0.000519  1.007145  0.0  0.104876  -0.000473  1.006318  0.0  0.110389  0.103738  -0.000546  1.007903  0.0
H  H13  1  0.36813853  0.94683363  0.42391487  1  0.090092  0.000893  0.942676  0.001  0.139715  0.000786  0.104356  0.000519  1.00709  0.0  0.104872  0.000473  1.006264  0.0  0.11037  0.103719  0.000546  1.007866  0.0
H  H14  1  0.84640048  0.12444787  0.73398575  1  0.072142  -0.003966  0.920852  -0.005  0.075256  -0.005569  0.089662  -0.002874  0.980159  -0.003  0.089071  -0.0021  0.980925  -0.003  0.107831  0.090154  -0.003447  0.979414  -0.004
H  H15  1  0.15359326  0.87554512  0.26601081  1  0.072114  0.003975  0.920856  0.005  0.075329  0.005569  0.089634  0.002874  0.980175  0.003  0.089034  0.0021  0.980954  0.003  0.107826  0.090125  0.003447  0.97943  0.004
H  H16  1  0.68640703  0.95070079  0.04995762  1  0.123013  -0.000761  0.95921  -0.001  0.151986  -0.001231  0.128809  -0.000631  1.022501  -0.001  0.132551  -0.000436  1.020405  -0.001  0.110324  0.125927  -0.000792  1.024303  -0.001
H  H17  1  0.31360341  0.04930337  0.95004552  1  0.122953  0.000756  0.959304  0.001  0.151958  0.001231  0.128776  0.000631  1.022568  0.001  0.13252  0.000436  1.02047  0.001  0.110304  0.125895  0.000793  1.024367  0.001
H  H18  1  0.73126732  0.77399940  0.24621891  1  0.105718  -0.000602  0.969584  0.0  0.141587  -0.000356  0.117197  -0.000395  1.028699  0.0  0.120467  -0.000263  1.026184  0.0  0.0981  0.114677  -0.000513  1.030751  0.0
H  H19  1  0.26873663  0.22599917  0.75377860  1  0.105736  0.0006  0.96957  0.0  0.141539  0.000356  0.117224  0.000395  1.028672  0.0  0.120491  0.000263  1.026167  0.0  0.098115  0.114691  0.000513  1.030749  0.0
C  C20  1  0.69934822  0.76693422  0.86180844  1  0.155135  0.007602  3.657287  0.008  0.474266  0.003019  0.1265  0.001162  3.908989  0.002  0.136841  0.002178  3.926541  0.004  0.060681  0.119657  0.000399  3.898101  0.002
C  C21  1  0.30065269  0.23306574  0.13819188  1  0.155084  -0.007603  3.657281  -0.008  0.474421  -0.003022  0.126451  -0.001163  3.908991  -0.002  0.136791  -0.002176  3.926545  -0.004  0.060663  0.119611  -0.000399  3.898099  -0.002
C  C22  1  0.74838758  0.52333372  0.92197822  1  0.179885  -0.001609  3.793214  -0.002  0.451107  -0.002216  0.181959  -0.002304  4.039549  -0.002  0.185828  -0.001078  4.062737  -0.001  0.111745  0.179563  -0.003153  4.024469  -0.003
C  C23  1  0.25161193  0.47666344  0.07801696  1  0.179864  0.001607  3.793108  0.002  0.451123  0.002215  0.18197  0.002303  4.039401  0.002  0.185853  0.001079  4.062565  0.001  0.111745  0.179572  0.003153  4.024319  0.003
C  C24  1  0.88530677  0.20655483  0.52579141  1  -0.345931  -0.000603  3.630905  -0.001  -0.191257  -0.00147  -0.383639  -0.001005  3.87913  -0.001  -0.391123  -0.000676  3.886743  -0.001  -0.166194  -0.378664  -0.001296  3.874187  -0.001
C  C25  1  0.11469413  0.79344513  0.47420891  1  -0.345975  0.000613  3.630877  0.001  -0.191204  0.001473  -0.38369  0.001007  3.879173  0.001  -0.391172  0.000673  3.886782  0.001  -0.166196  -0.378697  0.001296  3.874187  0.001
C  C26  1  0.76916167  0.36357272  0.85796559  1  0.121874  0.017227  3.60192  0.017  0.652427  0.007395  0.080993  0.004479  3.858143  0.005  0.097399  0.005792  3.867651  0.007  0.094874  0.069571  0.003402  3.853011  0.004
C  C27  1  0.23083981  0.63642586  0.14203578  1  0.12185  -0.017226  3.601917  -0.017  0.652457  -0.007396  0.080988  -0.004479  3.858097  -0.005  0.097386  -0.005792  3.867594  -0.007  0.09489  0.069565  -0.003403  3.852964  -0.004
C  C28  1  0.75352306  0.57624625  0.07788885  1  -0.125167  -0.002493  3.654814  -0.003  -0.073687  -0.002137  -0.144707  -0.001751  3.900882  -0.002  -0.15073  -0.00127  3.922371  -0.001  -0.071055  -0.140742  -0.002213  3.886632  -0.002
C  C29  1  0.24647453  0.42374953  0.92210790  1  -0.125118  0.0025  3.654792  0.003  -0.073733  0.002139  -0.144652  0.001752  3.900844  0.002  -0.150678  0.001269  3.922327  0.001  -0.071048  -0.140688  0.002213  3.886597  0.002
C  C30  1  0.77711235  0.16919056  0.63974842  1  0.047382  -0.002815  3.688173  -0.001  0.282174  -0.003386  -0.006491  -0.003327  3.94949  -0.002  3.4e-05  -0.002215  3.962803  -0.001  -0.062961  -0.010072  -0.004139  3.940218  -0.002
C  C31  1  0.22288720  0.83080661  0.36025119  1  0.047458  0.002799  3.687993  0.001  0.28208  0.003388  -0.006418  0.003328  3.949274  0.002  0.000101  0.002212  3.962598  0.001  -0.062927  -0.009993  0.004139  3.940007  0.002
C  C32  1  0.70473463  0.82904226  0.01675435  1  -0.090062  -0.007488  3.657104  -0.008  0.042079  -0.00568  -0.104743  -0.00394  3.904727  -0.005  -0.111075  -0.003182  3.92325  -0.004  -0.070445  -0.100931  -0.00461  3.892988  -0.006
C  C33  1  0.29527194  0.17095910  0.98324639  1  -0.089957  0.007483  3.657085  0.008  0.042489  0.005683  -0.104645  0.003942  3.904682  0.005  -0.110977  0.003181  3.923205  0.004  -0.070413  -0.100832  0.004611  3.892941  0.006
C  C34  1  0.73165674  0.73240911  0.12584436  1  0.003121  0.006705  3.673786  0.006  -0.039622  0.003624  -0.014419  0.002412  3.919337  0.002  -0.01109  0.002581  3.936656  0.002  -0.06396  -0.016818  0.002327  3.90822  0.002
C  C35  1  0.26834733  0.26759225  0.87415579  1  0.003062  -0.006691  3.673782  -0.006  -0.03998  -0.003626  -0.014505  -0.002413  3.919349  -0.002  -0.011178  -0.00258  3.936669  -0.002  -0.063973  -0.016899  -0.002327  3.908251  -0.002
S  S36  1  0.75801676  0.22939311  0.34425402  1  1.33296  -0.001502  5.534741  0.001  3.169565  -0.002352  1.253118  -0.00377  6.056205  -0.001  1.302105  -0.002919  6.034365  -0.001  0.500761  1.219273  -0.004501  6.06964  -0.001
S  S37  1  0.24197807  0.77060964  0.65575304  1  1.332818  0.001505  5.534726  -0.001  3.169709  0.002353  1.253014  0.003771  6.056139  0.001  1.302002  0.002922  6.0343  0.001  0.500741  1.219169  0.004501  6.069585  0.001
N  N38  1  0.76293458  0.32979103  0.71220456  1  -0.261081  -0.09072  3.248545  -0.111  -1.178885  -0.090944  -0.210055  -0.060977  3.5502  -0.08  -0.242539  -0.051877  3.571105  -0.071  -0.342615  -0.191535  -0.065876  3.538979  -0.083
N  N39  1  0.23706746  0.67020615  0.28779563  1  -0.26111  0.090718  3.248623  0.111  -1.178931  0.090938  -0.210084  0.060974  3.550266  0.08  -0.242565  0.05188  3.571172  0.071  -0.34265  -0.191563  0.065874  3.53904  0.083
N  N40  1  0.72163834  0.61858404  0.81633499  1  -0.312074  -0.094443  3.3258  -0.116  -1.22795  -0.099678  -0.265987  -0.066915  3.604552  -0.087  -0.299339  -0.055  3.631  -0.076  -0.334136  -0.246579  -0.073556  3.589305  -0.093
N  N41  1  0.27835745  0.38141312  0.18366264  1  -0.312069  0.094453  3.325731  0.116  -1.228058  0.099689  -0.266031  0.066921  3.604509  0.087  -0.299385  0.055  3.630949  0.076  -0.334143  -0.246618  0.073562  3.589247  0.093
Cl  Cl42  1  0.67273348  0.72318436  0.49561354  1  -0.493448  -0.119437  1.056505  -0.134  -0.610322  -0.109555  -0.502566  -0.07238  1.369927  -0.085  -0.536035  -0.056255  1.345702  -0.068  -0.263595  -0.48157  -0.081883  1.387694  -0.094
Cl  Cl43  1  0.32726900  0.27682396  0.50438834  1  -0.493446  0.119441  1.056536  0.134  -0.610443  0.10955  -0.502572  0.072379  1.369984  0.085  -0.536037  0.056256  1.34576  0.068  -0.263593  -0.481575  0.08188  1.387746  0.094
O  O44  1  0.73254026  0.39717750  0.39631633  1  -0.687577  -0.052639  2.102669  -0.067  -1.316886  -0.055537  -0.643428  -0.036638  2.406028  -0.05  -0.678335  -0.028865  2.391586  -0.041  -0.366812  -0.619679  -0.042233  2.415898  -0.056
O  O45  1  0.26745002  0.60282106  0.60368797  1  -0.687505  0.052641  2.102643  0.067  -1.316877  0.055537  -0.643378  0.036636  2.405984  0.05  -0.678277  0.028863  2.391541  0.041  -0.36678  -0.619626  0.042232  2.415849  0.056
O  O46  1  0.57644274  0.05798411  0.26755532  1  -0.65384  -0.00217  1.907095  -0.003  -1.356712  -0.002931  -0.601756  -0.001783  2.145611  -0.002  -0.62277  -0.00116  2.133676  -0.002  -0.34107  -0.586135  -0.002414  2.152813  -0.003
O  O47  1  0.42355334  0.94201864  0.73245203  1  -0.653795  0.002162  1.907047  0.003  -1.356736  0.002929  -0.601763  0.001782  2.145594  0.002  -0.622771  0.001163  2.133642  0.002  -0.341101  -0.586136  0.002413  2.152792  0.003
O  O48  1  0.88022970  0.27032959  0.24858789  1  -0.667407  -0.015352  1.906275  -0.018  -1.342071  -0.014091  -0.638447  -0.009174  2.169254  -0.012  -0.661788  -0.006247  2.154676  -0.008  -0.346958  -0.621083  -0.012223  2.178338  -0.015
O  O49  1  0.11976213  0.72967732  0.75141464  1  -0.667337  0.015338  1.906174  0.018  -1.34226  0.01409  -0.638388  0.009173  2.169175  0.012  -0.661744  0.006248  2.154633  0.008  -0.346939  -0.621022  0.012222  2.17826  0.015
