# generated using pymatgen
data_AgH10C8SN2O3
_symmetry_space_group_name_H-M   'P 1'
_cell_length_a   7.12116402
_cell_length_b   9.33889477
_cell_length_c   15.81501177
_cell_angle_alpha   90.00011811
_cell_angle_beta   90.00001802
_cell_angle_gamma   104.64353481
_symmetry_Int_Tables_number   1
_chemical_formula_structural   AgH10C8SN2O3
_chemical_formula_sum   'Ag4 H40 C32 S4 N8 O12'
_cell_volume   1017.59451533
_cell_formula_units_Z   4
loop_
 _symmetry_equiv_pos_site_id
 _symmetry_equiv_pos_as_xyz
  1  'x, y, z'
loop_
 _atom_site_type_symbol
 _atom_site_label
 _atom_site_symmetry_multiplicity
 _atom_site_fract_x
 _atom_site_fract_y
 _atom_site_fract_z
 _atom_site_occupancy
 _atom_site_hle17_bader_spin_density
 _atom_site_hle17_ddec_charge
 _atom_site_hle17_ddec_spin_density
 _atom_site_hle17_ddec_sum_bond_order
 _atom_site_hle17_magmom
 _atom_site_hse06_10hf_bader_spin_density
 _atom_site_hse06_10hf_ddec_charge
 _atom_site_hse06_10hf_ddec_spin_density
 _atom_site_hse06_10hf_ddec_sum_bond_order
 _atom_site_hse06_10hf_magmom
 _atom_site_hse06_bader_spin_density
 _atom_site_hse06_ddec_charge
 _atom_site_hse06_ddec_spin_density
 _atom_site_hse06_ddec_sum_bond_order
 _atom_site_hse06_magmom
 _atom_site_pbe_bader_spin_density
 _atom_site_pbe_cm5_charge
 _atom_site_pbe_ddec_charge
 _atom_site_pbe_ddec_spin_density
 _atom_site_pbe_ddec_sum_bond_order
 _atom_site_pbe_magmom
Ag  Ag0  1  0.29564974  0.00009851  0.02377617  1  0  0.468054  0  1.540501  0  0  0.342473  0  2.004088  0  0  0.370642  0  1.953334  0  0  0.424864  0.322848  0  2.039275  0
Ag  Ag1  1  0.70435040  0.49990238  0.52377676  1  0  0.468032  0  1.540536  0  0  0.342443  0  2.004124  0  0  0.370603  0  1.953428  0  0  0.42485  0.322816  0  2.039315  0
Ag  Ag2  1  0.70434979  0.99990207  0.97622124  1  0  0.468044  0  1.540527  0  0  0.342477  0  2.004108  0  0  0.370635  0  1.953411  0  0  0.424852  0.322851  0  2.039304  0
Ag  Ag3  1  0.29564631  0.50009818  0.47622191  1  0  0.468006  0  1.540564  0  0  0.342416  0  2.004144  0  0  0.370585  0  1.953398  0  0  0.424843  0.322792  0  2.039324  0
H  H4  1  0.17006613  0.03225442  0.20778995  1  0  0.084959  0  0.972851  0  0  0.086752  0  1.0466  0  0  0.090894  0  1.041756  0  0  0.111235  0.083892  0  1.049561  0
H  H5  1  0.82993826  0.46774612  0.70779052  1  0  0.084959  0  0.972831  0  0  0.086758  0  1.046584  0  0  0.090894  0  1.041802  0  0  0.111225  0.083901  0  1.049546  0
H  H6  1  0.82993588  0.96774508  0.79220745  1  0  0.084929  0  0.97292  0  0  0.086736  0  1.046651  0  0  0.090871  0  1.041869  0  0  0.111228  0.083878  0  1.049617  0
H  H7  1  0.17005636  0.53224780  0.29220878  1  0  0.084973  0  0.972877  0  0  0.086767  0  1.046629  0  0  0.090909  0  1.041786  0  0  0.111235  0.08391  0  1.049586  0
H  H8  1  0.28024630  0.99624342  0.35420649  1  0  0.096937  0  0.979419  0  0  0.105313  0  1.047318  0  0  0.107803  0  1.047459  0  0  0.103519  0.10341  0  1.047672  0
H  H9  1  0.71975555  0.50375752  0.85420649  1  0  0.097006  0  0.979402  0  0  0.105348  0  1.047336  0  0  0.107837  0  1.047486  0  0  0.103544  0.103442  0  1.047694  0
H  H10  1  0.71975043  0.00375272  0.64579217  1  0  0.096984  0  0.979419  0  0  0.105331  0  1.047359  0  0  0.107817  0  1.047512  0  0  0.103539  0.103428  0  1.047715  0
H  H11  1  0.28024539  0.49624308  0.14579345  1  0  0.097006  0  0.979392  0  0  0.105348  0  1.047329  0  0  0.107838  0  1.047471  0  0  0.103559  0.103446  0  1.047687  0
H  H12  1  0.54456330  0.85973663  0.37348558  1  0  0.100245  0  0.946263  0  0  0.112843  0  1.005266  0  0  0.115416  0  1.003113  0  0  0.107667  0.110813  0  1.007004  0
H  H13  1  0.45543999  0.64026440  0.87348633  1  0  0.100312  0  0.946168  0  0  0.112846  0  1.005253  0  0  0.11542  0  1.003121  0  0  0.10766  0.110812  0  1.006998  0
H  H14  1  0.45543870  0.14026288  0.62651246  1  0  0.100304  0  0.946145  0  0  0.112843  0  1.005229  0  0  0.115432  0  1.003078  0  0  0.107658  0.110811  0  1.006967  0
H  H15  1  0.54456692  0.35974177  0.12651360  1  0  0.100234  0  0.946264  0  0  0.112837  0  1.00526  0  0  0.115411  0  1.003106  0  0  0.107671  0.110807  0  1.007002  0
H  H16  1  0.68317150  0.76957325  0.24830321  1  0  0.118701  0  0.987164  0  0  0.122252  0  1.057885  0  0  0.126632  0  1.055494  0  0  0.106376  0.119166  0  1.059524  0
H  H17  1  0.31683014  0.73042728  0.74830405  1  0  0.118693  0  0.987171  0  0  0.122241  0  1.057891  0  0  0.126615  0  1.055561  0  0  0.106376  0.119154  0  1.059534  0
H  H18  1  0.31683296  0.23042960  0.75169420  1  0  0.118737  0  0.987092  0  0  0.122274  0  1.057822  0  0  0.126648  0  1.055493  0  0  0.10639  0.119188  0  1.05946  0
H  H19  1  0.68317222  0.26957333  0.25169588  1  0  0.118682  0  0.987168  0  0  0.122228  0  1.057894  0  0  0.126608  0  1.055505  0  0  0.106369  0.11914  0  1.05953  0
H  H20  1  0.72772607  0.63203253  0.15084572  1  0  0.096079  0  0.959305  0  0  0.111256  0  1.021983  0  0  0.111868  0  1.023056  0  0  0.099179  0.110992  0  1.020813  0
H  H21  1  0.27227537  0.86796762  0.65084672  1  0  0.09605  0  0.959301  0  0  0.111216  0  1.021986  0  0  0.111826  0  1.023079  0  0  0.099183  0.110963  0  1.020804  0
H  H22  1  0.27227803  0.36797362  0.84915421  1  0  0.096093  0  0.959164  0  0  0.111283  0  1.021837  0  0  0.111891  0  1.022924  0  0  0.09916  0.111014  0  1.020677  0
H  H23  1  0.72772593  0.13202967  0.34915574  1  0  0.096057  0  0.959239  0  0  0.111228  0  1.021911  0  0  0.111849  0  1.02297  0  0  0.099152  0.110956  0  1.020745  0
H  H24  1  0.89121147  0.79592434  0.11068778  1  0  0.111126  0  0.933878  0  0  0.12646  0  0.993052  0  0  0.127794  0  0.992694  0  0  0.10177  0.125204  0  0.993705  0
H  H25  1  0.10878989  0.70407565  0.61068857  1  0  0.111111  0  0.933893  0  0  0.126433  0  0.993076  0  0  0.127766  0  0.992746  0  0  0.101771  0.125173  0  0.99374  0
H  H26  1  0.10879193  0.20407959  0.88931088  1  0  0.111138  0  0.933865  0  0  0.126416  0  0.993114  0  0  0.127746  0  0.992781  0  0  0.101765  0.12516  0  0.993774  0
H  H27  1  0.89121070  0.29592385  0.38931263  1  0  0.111144  0  0.93386  0  0  0.126438  0  0.993075  0  0  0.12777  0  0.992719  0  0  0.101752  0.125179  0  0.993732  0
H  H28  1  0.67988320  0.52429957  0.00524412  1  0  0.05422  0  0.958963  0  0  0.068597  0  1.03141  0  0  0.069041  0  1.032458  0  0  0.080733  0.06822  0  1.030758  0
H  H29  1  0.32011408  0.97570108  0.50524589  1  0  0.054168  0  0.958898  0  0  0.06854  0  1.031356  0  0  0.068977  0  1.032421  0  0  0.080707  0.068164  0  1.030696  0
H  H30  1  0.32011422  0.47570321  0.99475645  1  0  0.054201  0  0.958994  0  0  0.068562  0  1.031452  0  0  0.069004  0  1.032507  0  0  0.08072  0.068186  0  1.030798  0
H  H31  1  0.67988475  0.02430171  0.49475784  1  0  0.054212  0  0.958998  0  0  0.06856  0  1.031479  0  0  0.06901  0  1.032509  0  0  0.080711  0.068183  0  1.030825  0
H  H32  1  0.84015237  0.68561151  0.96375442  1  0  0.069358  0  0.951616  0  0  0.086021  0  1.016277  0  0  0.086447  0  1.017276  0  0  0.08774  0.085507  0  1.015859  0
H  H33  1  0.15984794  0.81438874  0.46375609  1  0  0.069347  0  0.951682  0  0  0.086023  0  1.016325  0  0  0.086454  0  1.017327  0  0  0.087731  0.085505  0  1.015913  0
H  H34  1  0.15984823  0.31438799  0.03624488  1  0  0.069346  0  0.951705  0  0  0.086036  0  1.016317  0  0  0.086467  0  1.017319  0  0  0.087718  0.08552  0  1.015903  0
H  H35  1  0.84015194  0.18561295  0.53624701  1  0  0.069362  0  0.951593  0  0  0.086048  0  1.016222  0  0  0.086474  0  1.017217  0  0  0.087725  0.085529  0  1.015811  0
H  H36  1  0.11128610  0.63640658  0.04983406  1  0  0.05968  0  0.947979  0  0  0.073403  0  1.020914  0  0  0.074508  0  1.020573  0  0  0.080599  0.072439  0  1.021425  0
H  H37  1  0.88871162  0.86359093  0.54983578  1  0  0.059667  0  0.947956  0  0  0.073389  0  1.020896  0  0  0.074499  0  1.02054  0  0  0.080575  0.072427  0  1.021409  0
H  H38  1  0.88871273  0.36359179  0.95016524  1  0  0.059667  0  0.947975  0  0  0.073386  0  1.020913  0  0  0.074485  0  1.020565  0  0  0.080597  0.072422  0  1.021424  0
H  H39  1  0.11128686  0.13640634  0.45016795  1  0  0.059688  0  0.947981  0  0  0.073405  0  1.020916  0  0  0.074488  0  1.020598  0  0  0.080611  0.072448  0  1.021418  0
H  H40  1  0.94993048  0.47753420  0.09436386  1  0  0.070584  0  0.930822  0  0  0.091689  0  0.985394  0  0  0.092408  0  0.986125  0  0  0.089363  0.091075  0  0.984986  0
H  H41  1  0.05006770  0.02246474  0.59436568  1  0  0.070613  0  0.930783  0  0  0.091714  0  0.985354  0  0  0.092431  0  0.986107  0  0  0.089355  0.091101  0  0.984948  0
H  H42  1  0.05006730  0.52246526  0.90563670  1  0  0.070637  0  0.93081  0  0  0.091734  0  0.985376  0  0  0.092449  0  0.986131  0  0  0.089375  0.091119  0  0.984969  0
H  H43  1  0.94992972  0.97753362  0.40563867  1  0  0.070625  0  0.930812  0  0  0.091703  0  0.985394  0  0  0.092425  0  0.986123  0  0  0.089346  0.09109  0  0.984988  0
C  C44  1  0.28152392  0.97311629  0.21940101  1  0  0.150515  0  3.66846  0  0  0.123034  0  3.913924  0  0  0.130962  0  3.929971  0  0  0.047724  0.118045  0  3.902708  0
C  C45  1  0.71847976  0.52688635  0.71940167  1  0  0.150476  0  3.668507  0  0  0.12298  0  3.913987  0  0  0.130905  0  3.930083  0  0  0.047748  0.117988  0  3.902775  0
C  C46  1  0.71847984  0.02688434  0.78059639  1  0  0.150473  0  3.668626  0  0  0.122999  0  3.914061  0  0  0.130925  0  3.930157  0  0  0.047734  0.11801  0  3.902856  0
C  C47  1  0.28151731  0.47311090  0.28059763  1  0  0.150441  0  3.668613  0  0  0.122947  0  3.914061  0  0  0.130874  0  3.930111  0  0  0.047736  0.117958  0  3.902845  0
C  C48  1  0.34451598  0.95291155  0.30074903  1  0  -0.122614  0  3.737387  0  0  -0.139781  0  3.991281  0  0  -0.146608  0  4.012466  0  0  -0.089299  -0.136142  0  3.97784  0
C  C49  1  0.65548716  0.54708919  0.80075033  1  0  -0.122634  0  3.737318  0  0  -0.13976  0  3.991184  0  0  -0.146591  0  4.012402  0  0  -0.089315  -0.136118  0  3.977741  0
C  C50  1  0.65548567  0.04708685  0.69924837  1  0  -0.122605  0  3.737314  0  0  -0.139741  0  3.991162  0  0  -0.146574  0  4.012389  0  0  -0.089286  -0.136104  0  3.977726  0
C  C51  1  0.34451202  0.45291029  0.19925023  1  0  -0.122596  0  3.737341  0  0  -0.139733  0  3.991225  0  0  -0.146558  0  4.012411  0  0  -0.089333  -0.1361  0  3.977795  0
C  C52  1  0.49008742  0.87905263  0.31120552  1  0  0.007395  0  3.705671  0  0  -0.009957  0  3.95505  0  0  -0.005006  0  3.971763  0  0  -0.065808  -0.013642  0  3.943916  0
C  C53  1  0.50991434  0.62094814  0.81120689  1  0  0.007296  0  3.705518  0  0  -0.010014  0  3.954901  0  0  -0.005065  0  3.971647  0  0  -0.065824  -0.013695  0  3.943769  0
C  C54  1  0.50991564  0.12094578  0.68879188  1  0  0.007306  0  3.70547  0  0  -0.010009  0  3.954854  0  0  -0.005071  0  3.971594  0  0  -0.065831  -0.013691  0  3.943721  0
C  C55  1  0.49008696  0.37905357  0.18879367  1  0  0.007342  0  3.705701  0  0  -0.010005  0  3.955054  0  0  -0.005055  0  3.971769  0  0  -0.065819  -0.013692  0  3.94393  0
C  C56  1  0.56833901  0.82629781  0.24049040  1  0  -0.148597  0  3.70167  0  0  -0.165492  0  3.947359  0  0  -0.17416  0  3.969062  0  0  -0.087491  -0.159849  0  3.932551  0
C  C57  1  0.43166120  0.67370267  0.74049119  1  0  -0.148579  0  3.7016  0  0  -0.165438  0  3.947279  0  0  -0.174113  0  3.969044  0  0  -0.087462  -0.159797  0  3.932476  0
C  C58  1  0.43166510  0.17370392  0.75950700  1  0  -0.148602  0  3.701385  0  0  -0.165422  0  3.947104  0  0  -0.174099  0  3.968876  0  0  -0.087469  -0.159775  0  3.932295  0
C  C59  1  0.56833623  0.32629569  0.25950811  1  0  -0.148523  0  3.701601  0  0  -0.165358  0  3.947317  0  0  -0.174025  0  3.96902  0  0  -0.087456  -0.159711  0  3.932505  0
C  C60  1  0.49461805  0.84864647  0.16122332  1  0  0.19053  0  3.765096  0  0  0.189371  0  4.021273  0  0  0.198303  0  4.044022  0  0  0.112796  0.183733  0  4.005401  0
C  C61  1  0.50538235  0.65135481  0.66122409  1  0  0.190575  0  3.765  0  0  0.189346  0  4.021272  0  0  0.198272  0  4.044056  0  0  0.112797  0.183709  0  4.005404  0
C  C62  1  0.50538535  0.15135746  0.83877472  1  0  0.190601  0  3.764819  0  0  0.189288  0  4.021212  0  0  0.198215  0  4.043999  0  0  0.112793  0.183655  0  4.005341  0
C  C63  1  0.49461296  0.34864132  0.33877647  1  0  0.190598  0  3.764889  0  0  0.189267  0  4.021292  0  0  0.1982  0  4.044043  0  0  0.112792  0.183631  0  4.005413  0
C  C64  1  0.76763700  0.70291391  0.09499693  1  0  -0.134771  0  3.604878  0  0  -0.172062  0  3.860052  0  0  -0.171572  0  3.872206  0  0  -0.147193  -0.172228  0  3.851681  0
C  C65  1  0.23236257  0.79708490  0.59499848  1  0  -0.13472  0  3.604829  0  0  -0.171988  0  3.860006  0  0  -0.1715  0  3.872191  0  0  -0.147225  -0.172159  0  3.85163  0
C  C66  1  0.23236711  0.29708782  0.90500174  1  0  -0.134723  0  3.604613  0  0  -0.172033  0  3.859882  0  0  -0.171522  0  3.87203  0  0  -0.147181  -0.1722  0  3.851535  0
C  C67  1  0.76763521  0.20291457  0.40500399  1  0  -0.134747  0  3.604793  0  0  -0.171963  0  3.859871  0  0  -0.171472  0  3.872007  0  0  -0.147164  -0.172118  0  3.851494  0
C  C68  1  0.80974973  0.61383575  0.01986257  1  0  -0.102779  0  3.697457  0  0  -0.140107  0  3.953967  0  0  -0.141513  0  3.968929  0  0  -0.170736  -0.138854  0  3.943503  0
C  C69  1  0.19024652  0.88616163  0.51986295  1  0  -0.102726  0  3.697483  0  0  -0.14006  0  3.953986  0  0  -0.141468  0  3.968928  0  0  -0.17072  -0.138799  0  3.943508  0
C  C70  1  0.19024804  0.38616371  0.98013863  1  0  -0.102821  0  3.697495  0  0  -0.140105  0  3.953908  0  0  -0.141516  0  3.968838  0  0  -0.170722  -0.138845  0  3.943439  0
C  C71  1  0.80975197  0.11383564  0.48014014  1  0  -0.102811  0  3.69753  0  0  -0.140129  0  3.953933  0  0  -0.14153  0  3.968894  0  0  -0.170705  -0.138874  0  3.943472  0
C  C72  1  0.98043668  0.54668761  0.03707277  1  0  -0.099935  0  3.668486  0  0  -0.136714  0  3.922628  0  0  -0.13802  0  3.9375  0  0  -0.167342  -0.135524  0  3.912221  0
C  C73  1  0.01956208  0.95330876  0.53707384  1  0  -0.099971  0  3.668467  0  0  -0.136744  0  3.922587  0  0  -0.138052  0  3.937462  0  0  -0.167285  -0.135563  0  3.912198  0
C  C74  1  0.01956040  0.45330964  0.96292842  1  0  -0.099978  0  3.668436  0  0  -0.136716  0  3.922528  0  0  -0.138034  0  3.937434  0  0  -0.167308  -0.135531  0  3.912126  0
C  C75  1  0.98043499  0.04668849  0.46292925  1  0  -0.100009  0  3.66858  0  0  -0.136725  0  3.922655  0  0  -0.138031  0  3.937556  0  0  -0.167337  -0.135544  0  3.912251  0
S  S76  1  0.56294316  0.77609341  0.06616107  1  0  -0.002052  0  2.722503  0  0  0.023759  0  3.135478  0  0  0.016309  0  3.127179  0  0  0.023325  0.028759  0  3.141205  0
S  S77  1  0.43705952  0.72390642  0.56616255  1  0  -0.002085  0  2.722485  0  0  0.023747  0  3.135475  0  0  0.016294  0  3.127195  0  0  0.023331  0.02875  0  3.141197  0
S  S78  1  0.43706271  0.22390944  0.93383697  1  0  -0.002185  0  2.722442  0  0  0.023697  0  3.135469  0  0  0.016238  0  3.127179  0  0  0.023289  0.028701  0  3.141195  0
S  S79  1  0.56293931  0.27609195  0.43383801  1  0  -0.00212  0  2.722508  0  0  0.023732  0  3.135519  0  0  0.01628  0  3.127218  0  0  0.023307  0.02873  0  3.141236  0
N  N80  1  0.35522772  0.92214686  0.15062393  1  0  -0.337086  0  3.312519  0  0  -0.256726  0  3.585525  0  0  -0.276871  0  3.60157  0  0  -0.344992  -0.242941  0  3.573975  0
N  N81  1  0.64477548  0.57785441  0.65062527  1  0  -0.33704  0  3.312531  0  0  -0.256653  0  3.585557  0  0  -0.276801  0  3.601633  0  0  -0.344987  -0.242873  0  3.574013  0
N  N82  1  0.64477815  0.07785600  0.84937347  1  0  -0.337067  0  3.312553  0  0  -0.256677  0  3.585616  0  0  -0.276826  0  3.601694  0  0  -0.345003  -0.2429  0  3.574076  0
N  N83  1  0.35522265  0.42214175  0.34937530  1  0  -0.337077  0  3.312556  0  0  -0.256646  0  3.585581  0  0  -0.276792  0  3.601631  0  0  -0.344998  -0.242862  0  3.574029  0
N  N84  1  0.10801926  0.85549237  0.86656327  1  0  0.686503  0  4.131565  0  0  0.730309  0  4.404973  0  0  0.745077  0  4.432118  0  0  0.088797  0.710929  0  4.399532  0
N  N85  1  0.89198296  0.64450973  0.36656357  1  0  0.686497  0  4.131645  0  0  0.730311  0  4.405019  0  0  0.759047  0  4.412143  0  0  0.088843  0.710936  0  4.399574  0
N  N86  1  0.89197851  0.14451151  0.13343540  1  0  0.686527  0  4.131381  0  0  0.730441  0  4.404679  0  0  0.759175  0  4.411802  0  0  0.088916  0.711055  0  4.399246  0
N  N87  1  0.10802186  0.35548981  0.63343826  1  0  0.686775  0  4.131177  0  0  0.730279  0  4.404927  0  0  0.745028  0  4.432084  0  0  0.088828  0.710894  0  4.399491  0
O  O88  1  0.03239594  0.94171416  0.91150922  1  0  -0.505183  0  1.839932  0  0  -0.478786  0  2.090407  0  0  -0.493813  0  2.084957  0  0  -0.217903  -0.464903  0  2.097613  0
O  O89  1  0.96760637  0.55828811  0.41151006  1  0  -0.505171  0  1.839946  0  0  -0.478771  0  2.09043  0  0  -0.498407  0  2.079525  0  0  -0.217918  -0.464892  0  2.097636  0
O  O90  1  0.96760605  0.05828976  0.08849071  1  0  -0.505208  0  1.839716  0  0  -0.478845  0  2.090172  0  0  -0.498486  0  2.07928  0  0  -0.217962  -0.46496  0  2.097378  0
O  O91  1  0.03240302  0.44171698  0.58849367  1  0  -0.505309  0  1.839705  0  0  -0.478775  0  2.090225  0  0  -0.493805  0  2.084803  0  0  -0.217949  -0.46489  0  2.097431  0
O  O92  1  0.24935338  0.81293695  0.89777411  1  0  -0.477004  0  1.790701  0  0  -0.465292  0  2.025814  0  0  -0.478418  0  2.024916  0  0  -0.196248  -0.452528  0  2.02987  0
O  O93  1  0.75064715  0.68706415  0.39777381  1  0  -0.476987  0  1.790731  0  0  -0.465276  0  2.025833  0  0  -0.483093  0  2.019294  0  0  -0.19625  -0.45252  0  2.029893  0
O  O94  1  0.75064299  0.18706250  0.10222266  1  0  -0.47703  0  1.790671  0  0  -0.465364  0  2.025762  0  0  -0.483176  0  2.019218  0  0  -0.196338  -0.452604  0  2.029826  0
O  O95  1  0.24935381  0.31293204  0.60222676  1  0  -0.477088  0  1.790513  0  0  -0.465303  0  2.025762  0  0  -0.478426  0  2.024872  0  0  -0.196252  -0.452538  0  2.029816  0
O  O96  1  0.04314301  0.81574741  0.79431353  1  0  -0.434815  0  1.730886  0  0  -0.428582  0  1.92671  0  0  -0.438022  0  1.928853  0  0  -0.178656  -0.418383  0  1.928722  0
O  O97  1  0.95685942  0.68425551  0.29431326  1  0  -0.434864  0  1.730936  0  0  -0.428638  0  1.926767  0  0  -0.442811  0  1.923062  0  0  -0.178694  -0.418439  0  1.928775  0
O  O98  1  0.95685123  0.18425865  0.20568514  1  0  -0.434823  0  1.730933  0  0  -0.428628  0  1.92673  0  0  -0.4428  0  1.923028  0  0  -0.178649  -0.418422  0  1.928739  0
O  O99  1  0.04313978  0.31573955  0.70568667  1  0  -0.434889  0  1.730925  0  0  -0.428557  0  1.926838  0  0  -0.437989  0  1.928987  0  0  -0.178643  -0.418355  0  1.928851  0
