# generated using pymatgen
data_Zn3P4H30C24(NO4)4
_symmetry_space_group_name_H-M   'P 1'
_cell_length_a   6.49834548
_cell_length_b   11.31398722
_cell_length_c   13.71547221
_cell_angle_alpha   109.39946131
_cell_angle_beta   90.02211438
_cell_angle_gamma   106.65804716
_symmetry_Int_Tables_number   1
_chemical_formula_structural   Zn3P4H30C24(NO4)4
_chemical_formula_sum   'Zn3 P4 H30 C24 N4 O16'
_cell_volume   906.11034538
_cell_formula_units_Z   1
loop_
 _symmetry_equiv_pos_site_id
 _symmetry_equiv_pos_as_xyz
  1  'x, y, z'
loop_
 _atom_site_type_symbol
 _atom_site_label
 _atom_site_symmetry_multiplicity
 _atom_site_fract_x
 _atom_site_fract_y
 _atom_site_fract_z
 _atom_site_occupancy
 _atom_site_hle17_bader_spin_density
 _atom_site_hle17_ddec_charge
 _atom_site_hle17_ddec_spin_density
 _atom_site_hle17_ddec_sum_bond_order
 _atom_site_hle17_magmom
 _atom_site_hse06_10hf_bader_spin_density
 _atom_site_hse06_10hf_ddec_charge
 _atom_site_hse06_10hf_ddec_spin_density
 _atom_site_hse06_10hf_ddec_sum_bond_order
 _atom_site_hse06_10hf_magmom
 _atom_site_hse06_bader_spin_density
 _atom_site_hse06_ddec_charge
 _atom_site_hse06_ddec_spin_density
 _atom_site_hse06_ddec_sum_bond_order
 _atom_site_hse06_magmom
 _atom_site_pbe_bader_spin_density
 _atom_site_pbe_cm5_charge
 _atom_site_pbe_ddec_charge
 _atom_site_pbe_ddec_spin_density
 _atom_site_pbe_ddec_sum_bond_order
 _atom_site_pbe_magmom
Zn  Zn0  1  0.70430203  0.78577748  0.72417664  1  0  1.127457  0  1.796249  0  0  0.953525  0  2.247788  0  0  0.997086  0  2.195015  0  0  0.696014  0.923113  0  2.283619  0
Zn  Zn1  1  0.91843965  0.21432148  0.27590464  1  0  1.127689  0  1.794921  0  0  0.953518  0  2.246285  0  0  0.997101  0  2.193544  0  0  0.696189  0.923262  0  2.282023  0
Zn  Zn2  1  0.40447059  0.99988153  0.99998400  1  0  1.227507  0  1.823182  0  0  1.055359  0  2.312077  0  0  1.09765  0  2.247981  0  0  0.718338  1.025505  0  2.356538  0
P  P3  1  0.23526103  0.85654017  0.77356662  1  0  1.407631  0  4.960536  0  0  1.249027  0  5.449508  0  0  1.298968  0  5.413637  0  0  0.320957  1.214353  0  5.473459  0
P  P4  1  0.37873544  0.14343119  0.22637649  1  0  1.407148  0  4.959983  0  0  1.248359  0  5.44917  0  0  1.298116  0  5.413667  0  0  0.321054  1.213786  0  5.473007  0
P  P5  1  0.65473850  0.08385491  0.82693698  1  0  1.422234  0  4.748897  0  0  1.263144  0  5.250494  0  0  1.311471  0  5.214426  0  0  0.364101  1.229317  0  5.275168  0
P  P6  1  0.57117602  0.91594851  0.17296314  1  0  1.422944  0  4.747324  0  0  1.263965  0  5.248732  0  0  1.312122  0  5.212757  0  0  0.365071  1.230301  0  5.273418  0
H  H7  1  0.54214407  0.45091509  0.34923373  1  0  0.129674  0  0.944372  0  0  0.137836  0  1.005018  0  0  0.141571  0  1.003049  0  0  0.11451  0.135096  0  1.006607  0
H  H8  1  0.09129878  0.54915449  0.65087935  1  0  0.130574  0  0.943476  0  0  0.138662  0  1.004185  0  0  0.142419  0  1.002151  0  0  0.11476  0.135964  0  1.005736  0
H  H9  1  0.77064527  0.92369682  0.55379279  1  0  0.072118  0  0.953733  0  0  0.08203  0  1.019393  0  0  0.08392  0  1.018012  0  0  0.114358  0.080513  0  1.020684  0
H  H10  1  0.84723250  0.07637225  0.44618709  1  0  0.072793  0  0.953776  0  0  0.082492  0  1.019586  0  0  0.084301  0  1.018326  0  0  0.11458  0.081081  0  1.02071  0
H  H11  1  0.74636528  0.85179109  0.35716772  1  0  0.112014  0  0.963218  0  0  0.120398  0  1.025535  0  0  0.123331  0  1.024892  0  0  0.107554  0.118223  0  1.026243  0
H  H12  1  0.89401075  0.14820756  0.64283684  1  0  0.111629  0  0.964466  0  0  0.120132  0  1.026525  0  0  0.123055  0  1.025921  0  0  0.107388  0.117961  0  1.027225  0
H  H13  1  0.62295886  0.61106322  0.25530167  1  0  0.10161  0  0.924264  0  0  0.115498  0  0.974778  0  0  0.117888  0  0.973383  0  0  0.112727  0.113648  0  0.976046  0
H  H14  1  0.01136616  0.38893944  0.74478403  1  0  0.10087  0  0.925227  0  0  0.114808  0  0.975747  0  0  0.117208  0  0.974346  0  0  0.112474  0.113049  0  0.976821  0
H  H15  1  0.60312347  0.55890639  0.81227317  1  0  0.087517  0  0.93062  0  0  0.095643  0  0.990116  0  0  0.098702  0  0.987309  0  0  0.117566  0.093407  0  0.992146  0
H  H16  1  0.04376898  0.44116325  0.18784626  1  0  0.087468  0  0.930649  0  0  0.095644  0  0.990106  0  0  0.098673  0  0.987365  0  0  0.1179  0.093377  0  0.992202  0
H  H17  1  0.38787842  0.19769945  0.54735143  1  0  0.082799  0  0.965757  0  0  0.096435  0  1.025886  0  0  0.097922  0  1.025616  0  0  0.104514  0.095384  0  1.026101  0
H  H18  1  0.19024726  0.80250571  0.45269090  1  0  0.082398  0  0.966036  0  0  0.096368  0  1.025916  0  0  0.097739  0  1.025819  0  0  0.10466  0.095394  0  1.02591  0
H  H19  1  0.45590076  0.30935651  0.74117814  1  0  0.105711  0  0.964711  0  0  0.112836  0  1.028856  0  0  0.116031  0  1.027426  0  0  0.105334  0.110695  0  1.029745  0
H  H20  1  0.14619545  0.69072506  0.25885811  1  0  0.105866  0  0.963844  0  0  0.112935  0  1.028009  0  0  0.116247  0  1.026423  0  0  0.105376  0.110745  0  1.028982  0
H  H21  1  0.45230392  0.33086784  0.43377710  1  0  0.13201  0  0.976556  0  0  0.138253  0  1.039603  0  0  0.142329  0  1.03715  0  0  0.112083  0.135357  0  1.041384  0
H  H22  1  0.12159122  0.66932759  0.56631097  1  0  0.131346  0  0.977258  0  0  0.138143  0  1.039557  0  0  0.142081  0  1.037254  0  0  0.112039  0.135314  0  1.04124  0
H  H23  1  0.69506432  0.83968504  0.94189933  1  0  0.438062  0  0.848889  0  0  0.410395  0  0.905491  0  0  0.419907  0  0.891529  0  0  0.29567  0.403663  0  0.91537  0
H  H24  1  0.85467266  0.16013990  0.05808406  1  0  0.438154  0  0.848693  0  0  0.410055  0  0.905899  0  0  0.419611  0  0.891887  0  0  0.295552  0.403296  0  0.915811  0
H  H25  1  0.92248837  0.83318054  0.89839313  1  0  0.435794  0  0.863643  0  0  0.405365  0  0.924723  0  0  0.416047  0  0.909147  0  0  0.292015  0.397836  0  0.935705  0
H  H26  1  0.08872979  0.16673957  0.10158396  1  0  0.436154  0  0.862944  0  0  0.405493  0  0.924319  0  0  0.41616  0  0.908767  0  0  0.292032  0.397965  0  0.935301  0
H  H27  1  0.67331469  0.28891461  0.88066720  1  0  0.425991  0  0.79097  0  0  0.415693  0  0.832933  0  0  0.423384  0  0.825022  0  0  0.352601  0.41027  0  0.838577  0
H  H28  1  0.38443155  0.71102259  0.11932552  1  0  0.426371  0  0.791391  0  0  0.416088  0  0.833056  0  0  0.423754  0  0.825193  0  0  0.352593  0.410533  0  0.83892  0
H  H29  1  0.20594069  0.98427800  0.61680617  1  0  0.11767  0  0.935647  0  0  0.139639  0  0.995446  0  0  0.141463  0  0.994785  0  0  0.093781  0.138282  0  0.995988  0
H  H30  1  0.22204793  0.01556615  0.38303831  1  0  0.117497  0  0.936069  0  0  0.139721  0  0.995532  0  0  0.141589  0  0.994813  0  0  0.093689  0.138271  0  0.996203  0
H  H31  1  0.43258421  0.92387772  0.60492587  1  0  0.109746  0  0.975054  0  0  0.128225  0  1.043048  0  0  0.129603  0  1.043456  0  0  0.093271  0.127159  0  1.042894  0
H  H32  1  0.50896966  0.07599852  0.39497420  1  0  0.10981  0  0.974437  0  0  0.128513  0  1.042223  0  0  0.129887  0  1.04264  0  0  0.09334  0.127423  0  1.042099  0
H  H33  1  0.47424786  0.09578507  0.63870997  1  0  0.101698  0  0.97932  0  0  0.12147  0  1.046369  0  0  0.122701  0  1.046996  0  0  0.087358  0.12048  0  1.046105  0
H  H34  1  0.37900820  0.90409442  0.36109684  1  0  0.101608  0  0.979215  0  0  0.121554  0  1.046317  0  0  0.122769  0  1.04697  0  0  0.087664  0.120646  0  1.045886  0
H  H35  1  0.11240252  0.07856744  0.79960790  1  0  0.385326  0  0.865564  0  0  0.365582  0  0.932139  0  0  0.375139  0  0.920919  0  0  0.299529  0.358393  0  0.940634  0
H  H36  1  0.03416967  0.92147961  0.20030742  1  0  0.386515  0  0.865192  0  0  0.365892  0  0.933132  0  0  0.375438  0  0.921944  0  0  0.299831  0.358709  0  0.941592  0
C  C37  1  0.58872791  0.55626446  0.39231406  1  0  -0.129631  0  3.661845  0  0  -0.150643  0  3.913289  0  0  -0.157243  0  3.934485  0  0  -0.073546  -0.146434  0  3.899625  0
C  C38  1  0.03243357  0.44381172  0.60780264  1  0  -0.130847  0  3.661424  0  0  -0.152336  0  3.913163  0  0  -0.158929  0  3.934301  0  0  -0.074297  -0.148027  0  3.899373  0
C  C39  1  0.71779429  0.82009422  0.50451978  1  0  0.121694  0  3.727755  0  0  0.092004  0  3.981463  0  0  0.097614  0  4.000632  0  0  0.047325  0.088333  0  3.968805  0
C  C40  1  0.89783059  0.17997481  0.49549560  1  0  0.120007  0  3.729809  0  0  0.090671  0  3.98381  0  0  0.09635  0  4.00299  0  0  0.047154  0.086956  0  3.971033  0
C  C41  1  0.56507312  0.51644550  0.56348634  1  0  0.171942  0  3.744848  0  0  0.167284  0  3.986852  0  0  0.173029  0  4.006905  0  0  0.123485  0.163239  0  3.973517  0
C  C42  1  0.04857157  0.48372719  0.43665154  1  0  0.171424  0  3.744552  0  0  0.165433  0  3.988115  0  0  0.171307  0  4.007885  0  0  0.123008  0.161487  0  3.974699  0
C  C43  1  0.70416732  0.78011283  0.39655096  1  0  -0.126585  0  3.729584  0  0  -0.139568  0  3.983904  0  0  -0.14696  0  4.00686  0  0  -0.084783  -0.134735  0  3.968684  0
C  C44  1  0.92379807  0.21988931  0.60347312  1  0  -0.126155  0  3.72877  0  0  -0.139282  0  3.983067  0  0  -0.146675  0  4.005982  0  0  -0.084963  -0.134404  0  3.967849  0
C  C45  1  0.60673962  0.60456349  0.50137690  1  0  0.176314  0  3.744086  0  0  0.17293  0  3.98431  0  0  0.17947  0  4.004593  0  0  0.125632  0.168684  0  3.970803  0
C  C46  1  0.00210340  0.39555286  0.49873896  1  0  0.175191  0  3.744925  0  0  0.17312  0  3.984456  0  0  0.179722  0  4.004552  0  0  0.126163  0.168738  0  3.970996  0
C  C47  1  0.63614052  0.64538199  0.33987996  1  0  0.003838  0  3.728093  0  0  -0.015744  0  3.980435  0  0  -0.012699  0  4.000373  0  0  -0.064138  -0.017637  0  3.967206  0
C  C48  1  0.99047693  0.35463261  0.66019925  1  0  0.005379  0  3.726178  0  0  -0.014179  0  3.978718  0  0  -0.011113  0  3.998605  0  0  -0.063221  -0.016009  0  3.965334  0
C  C49  1  0.56740357  0.50289604  0.72910021  1  0  0.13457  0  3.699839  0  0  0.104915  0  3.948579  0  0  0.109976  0  3.967825  0  0  0.053207  0.101737  0  3.935345  0
C  C50  1  0.06431079  0.49724368  0.27102647  1  0  0.133955  0  3.698024  0  0  0.104069  0  3.947206  0  0  0.10912  0  3.966456  0  0  0.052538  0.100926  0  3.933954  0
C  C51  1  0.45057938  0.30426792  0.58182395  1  0  -0.007237  0  3.744643  0  0  -0.027149  0  3.993864  0  0  -0.02503  0  4.015407  0  0  -0.069542  -0.028369  0  3.979553  0
C  C52  1  0.14635460  0.69591653  0.41825516  1  0  -0.007364  0  3.743316  0  0  -0.027802  0  3.992646  0  0  -0.025631  0  4.014187  0  0  -0.069813  -0.02886  0  3.978066  0
C  C53  1  0.48870754  0.36612978  0.68940796  1  0  -0.124999  0  3.751237  0  0  -0.136412  0  4.003476  0  0  -0.143284  0  4.026683  0  0  -0.083569  -0.131911  0  3.98781  0
C  C54  1  0.12244916  0.63401894  0.31069383  1  0  -0.124275  0  3.747489  0  0  -0.135385  0  3.999671  0  0  -0.142287  0  4.022757  0  0  -0.083156  -0.130822  0  3.983893  0
C  C55  1  0.48831888  0.37918167  0.51761808  1  0  -0.129684  0  3.662357  0  0  -0.151176  0  3.914789  0  0  -0.156895  0  3.934477  0  0  -0.07779  -0.147363  0  3.901877  0
C  C56  1  0.10923918  0.62100754  0.48246971  1  0  -0.128383  0  3.660562  0  0  -0.149591  0  3.9128  0  0  -0.155247  0  3.9325  0  0  -0.077438  -0.14588  0  3.899804  0
C  C57  1  0.37338160  0.02093256  0.76401816  1  0  -0.200682  0  3.718889  0  0  -0.155263  0  3.971553  0  0  -0.16409  0  3.984686  0  0  0.04239  -0.149401  0  3.962639  0
C  C58  1  0.35272306  0.97900736  0.23584266  1  0  -0.198947  0  3.714689  0  0  -0.153816  0  3.967706  0  0  -0.16256  0  3.98088  0  0  0.042035  -0.14817  0  3.959011  0
C  C59  1  0.37296238  0.00554556  0.64869465  1  0  -0.315658  0  3.721767  0  0  -0.403779  0  3.963903  0  0  -0.404558  0  3.972496  0  0  -0.245931  -0.40291  0  3.958028  0
C  C60  1  0.36781284  0.99434338  0.35112921  1  0  -0.316404  0  3.720624  0  0  -0.404926  0  3.962025  0  0  -0.405737  0  3.970598  0  0  -0.24614  -0.403993  0  3.95626  0
N  N61  1  0.60499486  0.57540388  0.66750450  1  0  -0.332827  0  3.26147  0  0  -0.26199  0  3.520549  0  0  -0.278359  0  3.537284  0  0  -0.313379  -0.250818  0  3.509105  0
N  N62  1  0.02935447  0.42473057  0.33262022  1  0  -0.332448  0  3.261032  0  0  -0.261514  0  3.52083  0  0  -0.277866  0  3.53745  0  0  -0.313176  -0.250297  0  3.509241  0
N  N63  1  0.66739872  0.73491649  0.55557995  1  0  -0.335144  0  3.243584  0  0  -0.268505  0  3.506581  0  0  -0.284944  0  3.522336  0  0  -0.310484  -0.257555  0  3.495769  0
N  N64  1  0.93260311  0.26520056  0.44448606  1  0  -0.333874  0  3.245134  0  0  -0.267827  0  3.507575  0  0  -0.284379  0  3.523512  0  0  -0.310601  -0.2568  0  3.496787  0
O  O65  1  0.79718674  0.01177155  0.76043121  1  0  -0.816982  0  1.925811  0  0  -0.734537  0  2.182586  0  0  -0.760587  0  2.162643  0  0  -0.349997  -0.71597  0  2.196008  0
O  O66  1  0.78578669  0.98795246  0.23942058  1  0  -0.817238  0  1.9238  0  0  -0.73434  0  2.180068  0  0  -0.760025  0  2.159851  0  0  -0.350686  -0.716273  0  2.194012  0
O  O67  1  0.02287836  0.80178325  0.70377894  1  0  -0.837457  0  2.039565  0  0  -0.749404  0  2.323076  0  0  -0.777754  0  2.303499  0  0  -0.377206  -0.729161  0  2.335517  0
O  O68  1  0.22094621  0.19808504  0.29609758  1  0  -0.8378  0  2.040634  0  0  -0.749152  0  2.323375  0  0  -0.777749  0  2.304263  0  0  -0.377322  -0.728685  0  2.335467  0
O  O69  1  0.38643312  0.77328914  0.73837806  1  0  -0.857763  0  2.058034  0  0  -0.776311  0  2.348569  0  0  -0.803655  0  2.326802  0  0  -0.381358  -0.756851  0  2.362622  0
O  O70  1  0.61301428  0.22674468  0.26173472  1  0  -0.85867  0  2.05713  0  0  -0.776708  0  2.347264  0  0  -0.804046  0  2.325562  0  0  -0.38185  -0.75735  0  2.361518  0
O  O71  1  0.18780376  0.88023289  0.88892607  1  0  -0.867876  0  2.068698  0  0  -0.765042  0  2.350583  0  0  -0.792718  0  2.322095  0  0  -0.380882  -0.745661  0  2.369858  0
O  O72  1  0.30777120  0.11978658  0.11099770  1  0  -0.86748  0  2.068025  0  0  -0.764716  0  2.350105  0  0  -0.792194  0  2.321544  0  0  -0.380854  -0.745433  0  2.36945  0
O  O73  1  0.76219534  0.79608319  0.88158569  1  0  -0.835008  0  1.865542  0  0  -0.772505  0  2.05354  0  0  -0.793109  0  2.019722  0  0  -0.575206  -0.757939  0  2.076913  0
O  O74  1  0.96541109  0.20373780  0.11840789  1  0  -0.83506  0  1.86471  0  0  -0.772151  0  2.053847  0  0  -0.792781  0  2.019923  0  0  -0.574901  -0.757603  0  2.077311  0
O  O75  1  0.74176328  0.23425967  0.82878650  1  0  -0.695328  0  1.961293  0  0  -0.634798  0  2.175225  0  0  -0.652645  0  2.155058  0  0  -0.380277  -0.622175  0  2.18883  0
O  O76  1  0.50764263  0.76553605  0.17116540  1  0  -0.69617  0  1.961885  0  0  -0.635237  0  2.175236  0  0  -0.653148  0  2.155211  0  0  -0.380107  -0.622719  0  2.189191  0
O  O77  1  0.65281069  0.09126732  0.94045904  1  0  -0.8685  0  2.0644  0  0  -0.773806  0  2.347748  0  0  -0.80039  0  2.320966  0  0  -0.36664  -0.755071  0  2.365853  0
O  O78  1  0.56175776  0.90848354  0.05942826  1  0  -0.868447  0  2.064882  0  0  -0.774296  0  2.348564  0  0  -0.800898  0  2.321843  0  0  -0.367056  -0.755608  0  2.366618  0
O  O79  1  0.27045030  0.11725528  0.81889968  1  0  -0.535684  0  2.041366  0  0  -0.499216  0  2.243659  0  0  -0.511456  0  2.232501  0  0  -0.400387  -0.490106  0  2.251585  0
O  O80  1  0.15351139  0.88276496  0.18094916  1  0  -0.537107  0  2.039791  0  0  -0.50001  0  2.242807  0  0  -0.512337  0  2.231694  0  0  -0.400714  -0.490871  0  2.250761  0
