# generated using pymatgen
data_Ag4H12C21(NO3)4
_symmetry_space_group_name_H-M   'P 1'
_cell_length_a   8.05286286
_cell_length_b   11.70900298
_cell_length_c   14.45230000
_cell_angle_alpha   65.99727660
_cell_angle_beta   76.05852163
_cell_angle_gamma   87.30349951
_symmetry_Int_Tables_number   1
_chemical_formula_structural   Ag4H12C21(NO3)4
_chemical_formula_sum   'Ag8 H24 C42 N8 O24'
_cell_volume   1206.21317735
_cell_formula_units_Z   2
loop_
 _symmetry_equiv_pos_site_id
 _symmetry_equiv_pos_as_xyz
  1  'x, y, z'
loop_
 _atom_site_type_symbol
 _atom_site_label
 _atom_site_symmetry_multiplicity
 _atom_site_fract_x
 _atom_site_fract_y
 _atom_site_fract_z
 _atom_site_occupancy
 _atom_site_hle17_bader_spin_density
 _atom_site_hle17_ddec_charge
 _atom_site_hle17_ddec_spin_density
 _atom_site_hle17_ddec_sum_bond_order
 _atom_site_hle17_magmom
 _atom_site_hse06_10hf_bader_spin_density
 _atom_site_hse06_10hf_ddec_charge
 _atom_site_hse06_10hf_ddec_spin_density
 _atom_site_hse06_10hf_ddec_sum_bond_order
 _atom_site_hse06_10hf_magmom
 _atom_site_hse06_bader_spin_density
 _atom_site_hse06_ddec_charge
 _atom_site_hse06_ddec_spin_density
 _atom_site_hse06_ddec_sum_bond_order
 _atom_site_hse06_magmom
 _atom_site_pbe_bader_charge
 _atom_site_pbe_bader_spin_density
 _atom_site_pbe_cm5_charge
 _atom_site_pbe_ddec_charge
 _atom_site_pbe_ddec_spin_density
 _atom_site_pbe_ddec_sum_bond_order
 _atom_site_pbe_magmom
Ag  Ag0  1  0.59895519  0.94906479  0.57277615  1  0  0.59851  0  1.571578  0  0  0.503107  0  2.046763  0  0  0.534211  0  1.97893  0  0.657826  0  0.423425  0.481658  0  2.093567  0
Ag  Ag1  1  0.40104378  0.05093551  0.42722382  1  0  0.598531  0  1.571572  0  0  0.503133  0  2.046743  0  0  0.534236  0  1.978912  0  0.659125  0  0.423424  0.481686  0  2.093542  0
Ag  Ag2  1  0.00144855  0.13763910  0.39527799  1  0  0.659772  0  1.371675  0  0  0.557675  0  1.814492  0  0  0.590356  0  1.75275  0  0.659602  0  0.427113  0.534564  0  1.857774  0
Ag  Ag3  1  0.99855290  0.86236026  0.60472196  1  0  0.659776  0  1.371638  0  0  0.557683  0  1.814443  0  0  0.590362  0  1.752701  0  0.659638  0  0.427113  0.53457  0  1.857726  0
Ag  Ag4  1  0.62396002  0.21580708  0.51408822  1  0  0.565966  0  1.40431  0  0  0.427777  0  1.852196  0  0  0.462515  0  1.794926  0  0.624851  0  0.43275  0.404461  0  1.891692  0
Ag  Ag5  1  0.37604023  0.78419322  0.48591227  1  0  0.565993  0  1.404304  0  0  0.427789  0  1.852204  0  0  0.462526  0  1.794931  0  0.624838  0  0.432758  0.40447  0  1.891702  0
Ag  Ag6  1  0.05034632  0.37626336  0.38832786  1  0  0.554774  0  1.431776  0  0  0.43395  0  1.883811  0  0  0.465512  0  1.827381  0  0.608518  0  0.445384  0.413217  0  1.92244  0
Ag  Ag7  1  0.94965121  0.62373507  0.61167223  1  0  0.55478  0  1.431767  0  0  0.433944  0  1.883797  0  0  0.465508  0  1.827366  0  0.608524  0  0.445381  0.413207  0  1.922426  0
H  H8  1  0.42576360  0.43987353  0.38770980  1  0  0.107933  0  0.934301  0  0  0.116049  0  0.992548  0  0  0.118535  0  0.991658  0  0.142009  0  0.122851  0.114222  0  0.993382  0
H  H9  1  0.57423634  0.56012303  0.61228989  1  0  0.107939  0  0.934356  0  0  0.11607  0  0.992581  0  0  0.118555  0  0.991692  0  0.141999  0  0.122864  0.114244  0  0.993415  0
H  H10  1  0.36442555  0.24832292  0.70776477  1  0  0.102858  0  0.9525  0  0  0.104799  0  1.023707  0  0  0.108049  0  1.020893  0  0.159699  0  0.118833  0.102541  0  1.02578  0
H  H11  1  0.63557477  0.75167832  0.29223679  1  0  0.102873  0  0.952537  0  0  0.104812  0  1.02374  0  0  0.108062  0  1.020928  0  0.159664  0  0.118814  0.102554  0  1.025815  0
H  H12  1  0.19996614  0.58811120  0.41952783  1  0  0.100449  0  0.950783  0  0  0.105662  0  1.019809  0  0  0.108413  0  1.017148  0  0.143095  0  0.118639  0.103678  0  1.02189  0
H  H13  1  0.80003530  0.41188816  0.58047073  1  0  0.100425  0  0.950888  0  0  0.105692  0  1.019841  0  0  0.108442  0  1.017181  0  0.142971  0  0.118653  0.103709  0  1.02192  0
H  H14  1  0.69382225  0.96010442  0.97771993  1  0  0.124522  0  0.95737  0  0  0.128278  0  1.026577  0  0  0.131892  0  1.023329  0  0.14292  0  0.113587  0.125738  0  1.028883  0
H  H15  1  0.30617920  0.03989494  0.02227932  1  0  0.124505  0  0.957369  0  0  0.128261  0  1.026577  0  0  0.131877  0  1.023329  0  0.142903  0  0.113579  0.125721  0  1.028883  0
H  H16  1  0.96844617  0.86446912  0.01330939  1  0  0.097022  0  0.944969  0  0  0.108279  0  1.002829  0  0  0.110754  0  1.002847  0  0.074453  0  0.107033  0.106513  0  1.002945  0
H  H17  1  0.03155392  0.13552931  0.98669036  1  0  0.096989  0  0.94495  0  0  0.108243  0  1.002818  0  0  0.110717  0  1.002837  0  0.074463  0  0.107028  0.106476  0  1.002934  0
H  H18  1  0.63910106  0.38300944  0.89388871  1  0  0.124197  0  0.944406  0  0  0.130561  0  1.0072  0  0  0.135387  0  1.002566  0  0.151912  0  0.113324  0.12711  0  1.010476  0
H  H19  1  0.36089783  0.61698992  0.10611019  1  0  0.124177  0  0.944437  0  0  0.130569  0  1.007201  0  0  0.135395  0  1.002564  0  0.151943  0  0.113332  0.127118  0  1.010475  0
H  H20  1  0.22429329  0.90216531  0.86379170  1  0  0.110444  0  0.942013  0  0  0.119044  0  1.00279  0  0  0.121807  0  1.001947  0  0.139731  0  0.10999  0.117037  0  1.003459  0
H  H21  1  0.77570816  0.09783406  0.13620894  1  0  0.110438  0  0.941965  0  0  0.119043  0  1.002734  0  0  0.1218  0  1.001897  0  0.139761  0  0.109978  0.117036  0  1.003402  0
H  H22  1  0.05252137  0.46354192  0.77411027  1  0  0.132981  0  0.960132  0  0  0.151314  0  1.026412  0  0  0.153567  0  1.024549  0  0.069987  0  0.096296  0.149494  0  1.027928  0
H  H23  1  0.94747504  0.53645838  0.22589004  1  0  0.132946  0  0.96018  0  0  0.151333  0  1.026393  0  0  0.153589  0  1.024531  0  0.069924  0  0.096291  0.14951  0  1.027914  0
H  H24  1  0.16496879  0.32618001  0.82794495  1  0  0.136468  0  0.954002  0  0  0.154244  0  1.01683  0  0  0.156196  0  1.015503  0  0.104708  0  0.098312  0.152892  0  1.017728  0
H  H25  1  0.83502896  0.67382123  0.17205557  1  0  0.136524  0  0.954079  0  0  0.154298  0  1.0169  0  0  0.15625  0  1.015573  0  0.104676  0  0.098359  0.152947  0  1.017798  0
H  H26  1  0.97402415  0.31583334  0.78855443  1  0  0.12777  0  0.922627  0  0  0.151471  0  0.978799  0  0  0.151695  0  0.980013  0  0.058229  0  0.1001  0.151352  0  0.977883  0
H  H27  1  0.02597496  0.68416884  0.21144352  1  0  0.127777  0  0.922559  0  0  0.151479  0  0.978744  0  0  0.151703  0  0.979959  0  0.058247  0  0.100094  0.15136  0  0.977828  0
H  H28  1  0.91827597  0.40762177  0.93460899  1  0  0.101544  0  0.956051  0  0  0.114967  0  1.012101  0  0  0.117614  0  1.011641  0  0.085986  0  0.108363  0.113053  0  1.01259  0
H  H29  1  0.08172171  0.59237854  0.06539046  1  0  0.101582  0  0.955919  0  0  0.114926  0  1.012074  0  0  0.117568  0  1.011614  0  0.08598  0  0.108382  0.113017  0  1.012557  0
H  H30  1  0.92030489  0.36550653  0.11766760  1  0  0.118098  0  0.965567  0  0  0.125208  0  1.030431  0  0  0.129193  0  1.026658  0  0.14952  0  0.11033  0.122317  0  1.033143  0
H  H31  1  0.07969400  0.63449283  0.88233200  1  0  0.118074  0  0.965597  0  0  0.125181  0  1.030458  0  0  0.129168  0  1.026684  0  0.149494  0  0.110325  0.122291  0  1.033169  0
C  C32  1  0.36065182  0.43004845  0.46617174  1  0  0.067426  0  3.668439  0  0  0.036606  0  3.92824  0  0  0.038805  0  3.945269  0  0.462372  0  0.043305  0.03469  0  3.917502  0
C  C33  1  0.63934443  0.56994998  0.53382991  1  0  0.067456  0  3.66838  0  0  0.036591  0  3.928236  0  0  0.03879  0  3.945268  0  0.462698  0  0.043306  0.034676  0  3.9175  0
C  C34  1  0.19134568  0.39786505  0.66201073  1  0  0.292559  0  3.687551  0  0  0.30237  0  3.926829  0  0  0.308139  0  3.947499  0  0.514727  0  0.135893  0.298172  0  3.913116  0
C  C35  1  0.80865456  0.60213525  0.33798976  1  0  0.292593  0  3.687606  0  0  0.302426  0  3.926866  0  0  0.308189  0  3.947537  0  0.514738  0  0.135974  0.298228  0  3.913154  0
C  C36  1  0.32398433  0.32238838  0.64339303  1  0  0.034777  0  3.611309  0  0  0.000334  0  3.859215  0  0  0.001552  0  3.877495  0  0.505089  0  0.053629  -0.000817  0  3.847172  0
C  C37  1  0.67601470  0.67761286  0.35660870  1  0  0.034806  0  3.611434  0  0  0.000362  0  3.859288  0  0  0.001581  0  3.877566  0  0.505221  0  0.053663  -0.000792  0  3.847248  0
C  C38  1  0.23391954  0.50915568  0.48366839  1  0  0.065466  0  3.710529  0  0  0.035414  0  3.978936  0  0  0.039465  0  3.993407  0  0.487657  0  0.040475  0.032111  0  3.970211  0
C  C39  1  0.76608296  0.49084088  0.51633234  1  0  0.065486  0  3.710395  0  0  0.035401  0  3.978814  0  0  0.039456  0  3.993264  0  0.487443  0  0.040467  0.032098  0  3.970088  0
C  C40  1  0.93469414  0.15153861  0.61468808  1  0  0.669598  0  3.931996  0  0  0.608996  0  4.2315  0  0  0.645379  0  4.223358  0  1.611461  0  0.202573  0.584099  0  4.236068  0
C  C41  1  0.06530753  0.84846357  0.38531229  1  0  0.669491  0  3.932131  0  0  0.608883  0  4.231648  0  0  0.645265  0  4.223512  0  1.611482  0  0.202551  0.583991  0  4.236217  0
C  C42  1  0.94015978  0.06924844  0.72601242  1  0  -0.053102  0  3.639092  0  0  -0.049647  0  3.879862  0  0  -0.048262  0  3.894795  0  0.063905  0  0.008909  -0.050839  0  3.870267  0
C  C43  1  0.05984437  0.93075280  0.27398723  1  0  -0.053034  0  3.639129  0  0  -0.049598  0  3.879909  0  0  -0.04821  0  3.894842  0  0.063888  0  0.008915  -0.050791  0  3.870315  0
C  C44  1  0.80035391  0.04837530  0.81179167  1  0  0.052757  0  3.670327  0  0  0.040743  0  3.926068  0  0  0.036825  0  3.947405  0  0.207002  0  0.080005  0.043062  0  3.912051  0
C  C45  1  0.19964761  0.95162500  0.18820796  1  0  0.052806  0  3.670316  0  0  0.040796  0  3.926059  0  0  0.036876  0  3.947398  0  0.206996  0  0.080047  0.043115  0  3.912044  0
C  C46  1  0.09247275  0.01184778  0.74725512  1  0  -0.07125  0  3.691235  0  0  -0.053544  0  3.928738  0  0  -0.061929  0  3.94917  0  -0.070131  0  -0.009022  -0.048481  0  3.915624  0
C  C47  1  0.90753006  0.98815253  0.25274572  1  0  -0.071164  0  3.691152  0  0  -0.053449  0  3.928612  0  0  -0.061835  0  3.949043  0  -0.070123  0  -0.008979  -0.048389  0  3.915505  0
C  C48  1  0.64989722  0.32861661  0.17640886  1  0  -0.077378  0  3.683118  0  0  -0.059844  0  3.919637  0  0  -0.069588  0  3.941708  0  0.013438  0  -0.013293  -0.053758  0  3.905088  0
C  C49  1  0.35010046  0.67138369  0.82359128  1  0  -0.077401  0  3.683019  0  0  -0.059881  0  3.919529  0  0  -0.069629  0  3.9416  0  0.013486  0  -0.013289  -0.05381  0  3.904988  0
C  C50  1  0.24331411  0.01686145  0.66066477  1  0  0.653536  0  3.882539  0  0  0.59867  0  4.17012  0  0  0.634382  0  4.167172  0  1.53965  0  0.208038  0.574309  0  4.171302  0
C  C51  1  0.75668854  0.98313698  0.33933601  1  0  0.653557  0  3.88238  0  0  0.598727  0  4.16991  0  0  0.63444  0  4.166961  0  1.539633  0  0.208076  0.574367  0  4.171093  0
C  C52  1  0.67001694  0.29847464  0.28473556  1  0  0.65264  0  3.905457  0  0  0.600806  0  4.189112  0  0  0.635935  0  4.185  0  1.570335  0  0.195733  0.577056  0  4.190797  0
C  C53  1  0.32998473  0.70152754  0.71526343  1  0  0.652586  0  3.905528  0  0  0.60077  0  4.189159  0  0  0.635898  0  4.185047  0  1.570383  0  0.195703  0.577019  0  4.190847  0
C  C54  1  0.32408213  0.29643602  0.23797390  1  0  0.677906  0  3.926893  0  0  0.613557  0  4.23445  0  0  0.651617  0  4.224778  0  1.646308  0  0.206592  0.587451  0  4.240061  0
C  C55  1  0.67591683  0.70356428  0.76202676  1  0  0.677782  0  3.927006  0  0  0.613499  0  4.234468  0  0  0.651558  0  4.224798  0  1.646299  0  0.206549  0.587387  0  4.240082  0
C  C56  1  0.80710669  0.97386627  0.91452653  1  0  -0.084138  0  3.705736  0  0  -0.117505  0  3.971094  0  0  -0.115256  0  3.988547  0  0.02469  0  -0.075549  -0.118825  0  3.959307  0
C  C57  1  0.19289348  0.02613309  0.08547289  1  0  -0.084203  0  3.705734  0  0  -0.117564  0  3.971096  0  0  -0.115317  0  3.988553  0  0.024691  0  -0.075574  -0.118884  0  3.959309  0
C  C58  1  0.96039866  0.92132196  0.93355905  1  0  -0.049731  0  3.749668  0  0  -0.06586  0  4.014014  0  0  -0.069726  0  4.034158  0  0.028352  0  -0.08022  -0.063525  0  4.000641  0
C  C59  1  0.03960151  0.07867740  0.06644107  1  0  -0.049628  0  3.749554  0  0  -0.06576  0  4.013914  0  0  -0.069627  0  4.034058  0  0.028334  0  -0.080212  -0.063426  0  4.00054  0
C  C60  1  0.64609594  0.36671079  0.97244638  1  0  -0.082918  0  3.725556  0  0  -0.114934  0  3.989596  0  0  -0.112358  0  4.006778  0  0.023656  0  -0.078203  -0.116121  0  3.977587  0
C  C61  1  0.35390303  0.63328951  0.02755290  1  0  -0.082889  0  3.725547  0  0  -0.114927  0  3.989576  0  0  -0.11235  0  4.006755  0  0.023606  0  -0.078199  -0.116115  0  3.977572  0
C  C62  1  0.49024062  0.32027391  0.15442475  1  0  -0.039894  0  3.6044  0  0  -0.036413  0  3.845629  0  0  -0.034909  0  3.861849  0  0.018681  0  0.014874  -0.037874  0  3.835718  0
C  C63  1  0.50975834  0.67972639  0.84557522  1  0  -0.039788  0  3.604421  0  0  -0.036306  0  3.845602  0  0  -0.034801  0  3.861822  0  0.018614  0  0.014916  -0.037725  0  3.835628  0
C  C64  1  0.10276102  0.94179899  0.85048585  1  0  -0.020354  0  3.662448  0  0  -0.05181  0  3.916115  0  0  -0.048682  0  3.93376  0  -0.021845  0  -0.062264  -0.053897  0  3.904524  0
C  C65  1  0.89724178  0.05820131  0.14951499  1  0  -0.020424  0  3.662411  0  0  -0.051888  0  3.91609  0  0  -0.048758  0  3.933742  0  -0.021817  0  -0.062259  -0.053974  0  3.904498  0
C  C66  1  0.09109265  0.37419572  0.76974209  1  0  -0.386073  0  3.693721  0  0  -0.468725  0  3.92699  0  0  -0.47204  0  3.935454  0  -0.086046  0  -0.237907  -0.466046  0  3.921121  0
C  C67  1  0.90890496  0.62580365  0.23025699  1  0  -0.386123  0  3.693798  0  0  -0.46882  0  3.927015  0  0  -0.47214  0  3.935482  0  -0.08597  0  -0.237964  -0.466141  0  3.92115  0
C  C68  1  0.79962609  0.38075919  0.99522554  1  0  -0.056449  0  3.750655  0  0  -0.072601  0  4.012633  0  0  -0.077477  0  4.033783  0  -0.077134  0  -0.084884  -0.069491  0  3.998189  0
C  C69  1  0.20037167  0.61924205  0.00477359  1  0  -0.056456  0  3.750471  0  0  -0.072559  0  4.012477  0  0  -0.077429  0  4.03362  0  -0.07709  0  -0.08489  -0.069453  0  3.998039  0
C  C70  1  0.49492594  0.33674861  0.05164048  1  0  0.033213  0  3.673451  0  0  0.02079  0  3.932208  0  0  0.015676  0  3.955162  0  0.180158  0  0.07381  0.024053  0  3.91672  0
C  C71  1  0.50507295  0.66325075  0.94835912  1  0  0.033178  0  3.673562  0  0  0.020742  0  3.932335  0  0  0.015627  0  3.955291  0  0.180239  0  0.073804  0.023997  0  3.916844  0
C  C72  1  0.80075644  0.35999561  0.09691617  1  0  -0.031586  0  3.687275  0  0  -0.067371  0  3.948501  0  0  -0.06396  0  3.965765  0  0.000218  0  -0.070163  -0.069129  0  3.936579  0
C  C73  1  0.19924132  0.64000563  0.90308296  1  0  -0.031589  0  3.687279  0  0  -0.067344  0  3.948454  0  0  -0.063936  0  3.965722  0  0.000204  0  -0.07018  -0.069105  0  3.936539  0
N  N74  1  0.40825333  0.33850162  0.54654102  1  0  -0.232905  0  3.267882  0  0  -0.159147  0  3.546244  0  0  -0.173518  0  3.563861  0  -1.179616  0  -0.315425  -0.149197  0  3.534323  0
N  N75  1  0.59174669  0.66149587  0.45345974  1  0  -0.232967  0  3.26807  0  0  -0.159181  0  3.546421  0  0  -0.173553  0  3.564038  0  -1.179701  0  -0.31545  -0.149232  0  3.534502  0
N  N76  1  0.15055107  0.49339735  0.58088245  1  0  -0.310329  0  3.243727  0  0  -0.241173  0  3.51836  0  0  -0.256871  0  3.532583  0  -1.173453  0  -0.32324  -0.230652  0  3.509045  0
N  N77  1  0.84944932  0.50660483  0.41911533  1  0  -0.310394  0  3.243792  0  0  -0.241263  0  3.518479  0  0  -0.25695  0  3.532694  0  -1.17346  0  -0.323314  -0.230743  0  3.509165  0
N  N78  1  0.64020316  0.10835959  0.79567293  1  0  0.519075  0  3.864983  0  0  0.54478  0  4.16284  0  0  0.567319  0  4.16918  0  0.350792  0  0.060324  0.529341  0  4.159057  0
N  N79  1  0.35979829  0.89163978  0.20432702  1  0  0.519151  0  3.864931  0  0  0.544848  0  4.162797  0  0  0.567386  0  4.169137  0  0.350796  0  0.060364  0.529408  0  4.159015  0
N  N80  1  0.33723510  0.32509374  0.02183698  1  0  0.504178  0  3.900556  0  0  0.52887  0  4.202308  0  0  0.550193  0  4.211496  0  0.34341  0  0.057182  0.514579  0  4.196124  0
N  N81  1  0.66276251  0.67490562  0.97816279  1  0  0.504191  0  3.900679  0  0  0.52889  0  4.202426  0  0  0.550214  0  4.211615  0  0.343306  0  0.057178  0.514596  0  4.196246  0
O  O82  1  0.64922788  0.20766572  0.71608742  1  0  -0.381056  0  1.803808  0  0  -0.352961  0  2.024942  0  0  -0.366212  0  2.018575  0  -0.483856  0  -0.126826  -0.344854  0  2.029992  0
O  O83  1  0.35077372  0.79233552  0.28391258  1  0  -0.381118  0  1.803848  0  0  -0.353015  0  2.024987  0  0  -0.366267  0  2.01862  0  -0.483844  0  -0.12687  -0.344909  0  2.030035  0
O  O84  1  0.50492045  0.05946363  0.86157552  1  0  -0.345286  0  1.728148  0  0  -0.328901  0  1.930097  0  0  -0.338613  0  1.924243  0  -0.465514  0  -0.120065  -0.322954  0  1.934597  0
O  O85  1  0.49508100  0.94053574  0.13842443  1  0  -0.345319  0  1.728101  0  0  -0.32893  0  1.930055  0  0  -0.338643  0  1.9242  0  -0.465543  0  -0.120075  -0.322983  0  1.934555  0
O  O86  1  0.26102099  0.18374448  0.28462105  1  0  -0.629436  0  2.141041  0  0  -0.554836  0  2.427828  0  0  -0.590009  0  2.415549  0  -1.124214  0  -0.330447  -0.529715  0  2.435038  0
O  O87  1  0.73897790  0.81625488  0.71537993  1  0  -0.629433  0  2.141018  0  0  -0.554863  0  2.427777  0  0  -0.590033  0  2.415496  0  -1.12421  0  -0.330459  -0.529745  0  2.434993  0
O  O88  1  0.85332438  0.10578907  0.56946737  1  0  -0.693411  0  2.256057  0  0  -0.602612  0  2.550548  0  0  -0.637768  0  2.534377  0  -1.134399  0  -0.344042  -0.577967  0  2.560822  0
O  O89  1  0.14667864  0.89421404  0.43053183  1  0  -0.693447  0  2.256108  0  0  -0.602643  0  2.550587  0  0  -0.637793  0  2.534401  0  -1.134476  0  -0.344098  -0.578  0  2.560861  0
O  O90  1  0.26569072  0.39084553  0.25357616  1  0  -0.594454  0  2.068054  0  0  -0.52347  0  2.337486  0  0  -0.556972  0  2.326212  0  -1.120886  0  -0.315611  -0.499705  0  2.344072  0
O  O91  1  0.73430945  0.60915383  0.74642465  1  0  -0.59442  0  2.068045  0  0  -0.523461  0  2.337457  0  0  -0.556965  0  2.326183  0  -1.120877  0  -0.31561  -0.4997  0  2.344047  0
O  O92  1  0.20810803  0.02192288  0.57695828  1  0  -0.651323  0  2.228155  0  0  -0.567397  0  2.519793  0  0  -0.601544  0  2.505237  0  -1.121035  0  -0.327782  -0.543752  0  2.529161  0
O  O93  1  0.79189221  0.97807742  0.42304221  1  0  -0.651324  0  2.228151  0  0  -0.567414  0  2.519777  0  0  -0.60156  0  2.50522  0  -1.121075  0  -0.327796  -0.54377  0  2.529146  0
O  O94  1  0.01402423  0.25622456  0.57439201  1  0  -0.586121  0  2.063297  0  0  -0.525226  0  2.323004  0  0  -0.556751  0  2.317562  0  -1.139988  0  -0.299704  -0.502792  0  2.325745  0
O  O95  1  0.98597759  0.74377949  0.42560772  1  0  -0.586083  0  2.063439  0  0  -0.525145  0  2.323098  0  0  -0.556673  0  2.317659  0  -1.13995  0  -0.299639  -0.502692  0  2.325788  0
O  O96  1  0.53468693  0.26236383  0.35956519  1  0  -0.639046  0  2.157955  0  0  -0.55782  0  2.428384  0  0  -0.59002  0  2.416265  0  -1.159341  0  -0.331246  -0.535203  0  2.43581  0
O  O97  1  0.46531338  0.73763741  0.64043360  1  0  -0.638961  0  2.158105  0  0  -0.557753  0  2.428539  0  0  -0.589949  0  2.416416  0  -1.159367  0  -0.331198  -0.535137  0  2.435966  0
O  O98  1  0.39086963  0.01094318  0.67760907  1  0  -0.584632  0  2.060247  0  0  -0.51979  0  2.325161  0  0  -0.551518  0  2.31602  0  -1.109567  0  -0.30845  -0.497536  0  2.330538  0
O  O99  1  0.60913310  0.98905619  0.32239140  1  0  -0.584683  0  2.060106  0  0  -0.519858  0  2.32501  0  0  -0.551586  0  2.315868  0  -1.109575  0  -0.308493  -0.497601  0  2.330378  0
O  O100  1  0.19824385  0.32480719  0.08195635  1  0  -0.3472  0  1.818236  0  0  -0.316469  0  2.028922  0  0  -0.329442  0  2.027635  0  -0.460862  0  -0.105702  -0.307961  0  2.030017  0
O  O101  1  0.80175376  0.67519217  0.91804411  1  0  -0.347147  0  1.818181  0  0  -0.316438  0  2.028882  0  0  -0.329411  0  2.027597  0  -0.460826  0  -0.105667  -0.307935  0  2.029992  0
O  O102  1  0.81937943  0.30833811  0.29539476  1  0  -0.660505  0  2.042028  0  0  -0.597816  0  2.305539  0  0  -0.626284  0  2.292269  0  -1.166061  0  -0.331136  -0.577764  0  2.31382  0
O  O103  1  0.18062081  0.69166219  0.70460365  1  0  -0.660556  0  2.041954  0  0  -0.597863  0  2.305445  0  0  -0.626331  0  2.292174  0  -1.166091  0  -0.331172  -0.577809  0  2.313726  0
O  O104  1  0.35060134  0.31589701  0.93744495  1  0  -0.377844  0  1.736922  0  0  -0.358449  0  1.94075  0  0  -0.371272  0  1.937432  0  -0.471613  0  -0.136486  -0.349919  0  1.943203  0
O  O105  1  0.64939762  0.68410329  0.06255433  1  0  -0.37788  0  1.737047  0  0  -0.358472  0  1.940861  0  0  -0.371292  0  1.937542  0  -0.471599  0  -0.136506  -0.349939  0  1.943315  0
