# generated using pymatgen
data_Zr6H35C50N5O32
_symmetry_space_group_name_H-M   'P 1'
_cell_length_a   14.79013850
_cell_length_b   14.79150965
_cell_length_c   14.80266992
_cell_angle_alpha   60.11523404
_cell_angle_beta   60.01077673
_cell_angle_gamma   60.03056642
_symmetry_Int_Tables_number   1
_chemical_formula_structural   Zr6H35C50N5O32
_chemical_formula_sum   'Zr6 H35 C50 N5 O32'
_cell_volume   2292.56906007
_cell_formula_units_Z   1
loop_
 _symmetry_equiv_pos_site_id
 _symmetry_equiv_pos_as_xyz
  1  'x, y, z'
loop_
 _atom_site_type_symbol
 _atom_site_label
 _atom_site_symmetry_multiplicity
 _atom_site_fract_x
 _atom_site_fract_y
 _atom_site_fract_z
 _atom_site_occupancy
 _atom_site_pbe_bader_charge
 _atom_site_pbe_bader_spin_density
 _atom_site_pbe_cm5_charge
 _atom_site_pbe_ddec_charge
 _atom_site_pbe_ddec_spin_density
 _atom_site_pbe_ddec_sum_bond_order
 _atom_site_pbe_magmom
Zr  Zr0  1  0.87820162  0.88130290  0.61907542  1  2.634131  0  1.627669  2.370626  0  2.756441  0
Zr  Zr1  1  0.11794423  0.11767383  0.38192132  1  2.627356  0  1.626936  2.360674  0  2.794038  0
Zr  Zr2  1  0.11692919  0.88070067  0.61946892  1  2.633262  0  1.625771  2.368795  0  2.764067  0
Zr  Zr3  1  0.87850669  0.12004100  0.37995786  1  2.636943  0  1.628532  2.372181  0  2.759035  0
Zr  Zr4  1  0.11682592  0.88166537  0.37978996  1  2.634104  0  1.625257  2.366806  0  2.767229  0
Zr  Zr5  1  0.87910813  0.12072439  0.61782771  1  2.630222  0  1.625049  2.367675  0  2.767025  0
H  H6  1  0.09189825  0.71866030  0.59329635  1  0.60223  0  0.331674  0.422404  0  0.857846  0
H  H7  1  0.09309655  0.09333488  0.21791609  1  0.601015  0  0.332382  0.424482  0  0.854645  0
H  H8  1  0.09265070  0.09397032  0.59365519  1  0.61453  0  0.332968  0.425534  0  0.854086  0
H  H9  1  0.71579473  0.09525915  0.59359527  1  0.606043  0  0.332456  0.423869  0  0.856009  0
H  H10  1  0.85264626  0.58272784  0.64582395  1  0.044751  0  0.099848  0.107018  0  1.018423  0
H  H11  1  0.14091745  0.59188561  0.35417035  1  0.053377  0  0.104521  0.116603  0  1.011076  0
H  H12  1  0.85930427  0.41207169  0.64065310  1  0.085988  0  0.102802  0.106769  0  1.006567  0
H  H13  1  0.58360408  0.85325308  0.91798173  1  0.073868  0  0.100103  0.106624  0  1.018974  0
H  H14  1  0.59106719  0.14161905  0.91395203  1  0.093063  0  0.103137  0.114171  0  1.012858  0
H  H15  1  0.41327870  0.85864546  0.08739276  1  0.101515  0  0.102136  0.105121  0  1.00701  0
H  H16  1  0.14393169  0.85533134  0.08159394  1  0.072778  0  0.100301  0.109044  0  1.012442  0
H  H17  1  0.85129875  0.14266198  0.09177156  1  0.079196  0  0.104728  0.115676  0  1.013113  0
H  H18  1  0.13892623  0.86137453  0.91129079  1  0.107375  0  0.103039  0.106636  0  1.006086  0
H  H19  1  0.58235936  0.42047221  0.64304473  1  0.070059  0  0.100525  0.108873  0  1.012362  0
H  H20  1  0.59153236  0.41352897  0.35203957  1  0.076888  0  0.104958  0.116108  0  1.012686  0
H  H21  1  0.41179612  0.58950378  0.63789196  1  0.058697  0  0.10222  0.105039  0  1.007559  0
H  H22  1  0.14217522  0.41835741  0.08529781  1  0.100166  0  0.099919  0.101963  0  1.013122  0
H  H23  1  0.14127771  0.58706862  0.91784343  1  0.094992  0  0.104737  0.110259  0  0.99854  0
H  H24  1  0.74317177  0.62881814  0.95831648  1  0.051185  0  0.096767  0.107104  0  0.990311  0
H  H25  1  0.83010195  0.54346974  0.87294507  1  0.048034  0  0.097239  0.10741  0  0.988813  0
H  H26  1  0.83037569  0.37279044  0.04320703  1  0.043587  0  0.095087  0.103757  0  0.99203  0
H  H27  1  0.74352677  0.45791912  0.12884677  1  0.046683  0  0.094332  0.102534  0  0.994875  0
H  H28  1  0.58070778  0.14602920  0.35422469  1  0.061524  0  0.09963  0.107811  0  1.013868  0
H  H29  1  0.59140948  0.85337855  0.64043511  1  0.072815  0  0.107147  0.121142  0  1.002876  0
H  H30  1  0.41054328  0.14047038  0.36025846  1  0.086903  0  0.099234  0.101011  0  1.014858  0
H  H31  1  0.16615780  0.35251263  0.32205296  1  0.494167  0  0.302275  0.310831  0  0.995392  0
H  H32  1  0.21582106  0.46163963  0.26740653  1  0.428985  0  0.310454  0.302059  0  0.942552  0
H  H33  1  0.35255601  0.16470477  0.16098838  1  0.487606  0  0.302641  0.315122  0  0.988475  0
H  H34  1  0.46101177  0.21529341  0.05693146  1  0.435684  0  0.309516  0.300829  0  0.943728  0
H  H35  1  0.82129174  0.16972644  0.85021165  1  0.500066  0  0.304389  0.315042  0  0.990972  0
H  H36  1  0.76704452  0.22066521  0.95872983  1  0.415197  0  0.309991  0.301286  0  0.948162  0
H  H37  1  0.35241492  0.66010843  0.31954001  1  0.496121  0  0.303953  0.313462  0  0.991755  0
H  H38  1  0.46149875  0.55596881  0.26489021  1  0.414869  0  0.310214  0.301455  0  0.947063  0
H  H39  1  0.35121755  0.82144311  0.66664184  1  0.487613  0  0.305616  0.314645  0  0.990261  0
H  H40  1  0.45989844  0.76756722  0.71676591  1  0.439855  0  0.313572  0.305942  0  0.938823  0
C  C41  1  0.99477214  0.69929354  0.49780470  1  1.553245  0  0.238725  0.645541  0  4.081387  0
C  C42  1  0.30680482  0.99790988  0.19737489  1  1.484658  0  0.230689  0.647259  0  4.085113  0
C  C43  1  0.99826760  0.30736679  0.49644407  1  1.494402  0  0.231401  0.648854  0  4.08474  0
C  C44  1  0.69777582  0.99754291  0.80644161  1  1.544897  0  0.238549  0.644012  0  4.082769  0
C  C45  1  0.99584140  0.70061300  0.80584940  1  1.552255  0  0.236775  0.646686  0  4.108873  0
C  C46  1  0.69706443  0.99855220  0.49611155  1  1.558242  0  0.239203  0.644956  0  4.081542  0
C  C47  1  0.99734116  0.30562345  0.19959085  1  1.552061  0  0.235872  0.646105  0  4.105264  0
C  C48  1  0.30636506  0.99604494  0.49844774  1  1.490315  0  0.231383  0.649641  0  4.085828  0
C  C49  1  0.30593114  0.69796752  0.49524097  1  1.500094  0  0.231094  0.649438  0  4.081068  0
C  C50  1  0.99487898  0.00006233  0.80664578  1  1.50953  0  0.231193  0.649299  0  4.08249  0
C  C51  1  0.69792705  0.30806540  0.49653079  1  1.534798  0  0.239065  0.644614  0  4.081733  0
C  C52  1  0.99581255  0.99746328  0.19818297  1  1.551303  0  0.238131  0.643919  0  4.082782  0
C  C53  1  0.00224917  0.40589502  0.49513171  1  0.038144  0  -0.030272  -0.169579  0  3.91374  0
C  C54  1  0.99657782  0.59703246  0.49864636  1  -0.003974  0  -0.015466  -0.009699  0  4.00529  0
C  C55  1  0.08508839  0.45563601  0.41247776  1  0.407659  0  0.114004  0.313786  0  4.063671  0
C  C56  1  0.91630860  0.54671796  0.58158170  1  0.001528  0  -0.107564  -0.147427  0  4.030959  0
C  C57  1  0.07919424  0.55177233  0.41664318  1  -0.018184  0  -0.09631  -0.217074  0  3.92704  0
C  C58  1  0.92037076  0.45283824  0.57838761  1  -0.002187  0  -0.086064  -0.071142  0  4.026535  0
C  C59  1  0.40616842  0.00161106  0.09699442  1  0.024409  0  -0.031028  -0.169378  0  3.912015  0
C  C60  1  0.59696707  0.99743742  0.90757817  1  -0.011323  0  -0.015233  -0.008471  0  4.003107  0
C  C61  1  0.45564329  0.08455494  0.04777895  1  0.433809  0  0.114101  0.314765  0  4.062395  0
C  C62  1  0.54754880  0.91641542  0.95522853  1  -0.02107  0  -0.106985  -0.145496  0  4.029983  0
C  C63  1  0.55152523  0.07943075  0.95311727  1  0.015716  0  -0.09817  -0.220059  0  3.931659  0
C  C64  1  0.45381220  0.91984137  0.04833650  1  -0.091576  0  -0.08598  -0.071703  0  4.029614  0
C  C65  1  0.99312432  0.00401644  0.90539073  1  -0.006872  0  -0.03039  -0.170249  0  3.909583  0
C  C66  1  0.99640414  0.99887030  0.09628087  1  -0.06303  0  -0.014706  -0.007334  0  4.005228  0
C  C67  1  0.91026249  0.08693963  0.95516630  1  0.417683  0  0.114071  0.31579  0  4.06548  0
C  C68  1  0.07947902  0.91857007  0.04591683  1  0.003251  0  -0.10743  -0.146769  0  4.030332  0
C  C69  1  0.91424414  0.08122407  0.05126585  1  0.037677  0  -0.098615  -0.223353  0  3.931064  0
C  C70  1  0.07635802  0.92234824  0.95220458  1  -0.056242  0  -0.085591  -0.069531  0  4.024662  0
C  C71  1  0.40547607  0.59767435  0.49279831  1  0.017594  0  -0.031075  -0.17036  0  3.909876  0
C  C72  1  0.59654488  0.40862597  0.49639425  1  -0.050116  0  -0.014884  -0.008139  0  4.003946  0
C  C73  1  0.45552634  0.54781691  0.40993781  1  0.439559  0  0.114152  0.315738  0  4.061152  0
C  C74  1  0.54646763  0.45686656  0.57887916  1  0.039601  0  -0.107451  -0.145498  0  4.030103  0
C  C75  1  0.55152778  0.45327569  0.41427722  1  0.010882  0  -0.097544  -0.221741  0  3.927357  0
C  C76  1  0.45262682  0.54981946  0.57564858  1  -0.039364  0  -0.085964  -0.071236  0  4.02949  0
C  C77  1  0.99594751  0.60003821  0.90558676  1  0.007896  0  -0.011309  -0.081008  0  3.969442  0
C  C78  1  0.99663814  0.40567082  0.09926770  1  -0.078018  0  -0.012388  -0.082054  0  3.969509  0
C  C79  1  0.91691251  0.54923319  0.95495715  1  -0.010358  0  -0.000616  0.069494  0  3.876702  0
C  C80  1  0.07793279  0.45576566  0.04889587  1  -0.05749  0  -0.085569  -0.097341  0  3.992391  0
C  C81  1  0.91718126  0.45490610  0.04901126  1  -0.018331  0  -0.001143  0.068596  0  3.873059  0
C  C82  1  0.07759212  0.54994422  0.95511841  1  0.001398  0  -0.083703  -0.098491  0  3.984297  0
C  C83  1  0.81559430  0.55449199  0.94780781  1  0.012324  0  -0.152052  -0.202071  0  3.88566  0
C  C84  1  0.81581253  0.44763546  0.05438204  1  -0.042265  0  -0.152341  -0.198969  0  3.889922  0
C  C85  1  0.40512488  0.99436393  0.50217310  1  0.042861  0  -0.031443  -0.171677  0  3.914609  0
C  C86  1  0.59560844  0.99843687  0.49719838  1  -0.059918  0  -0.01513  -0.009028  0  4.007481  0
C  C87  1  0.45506883  0.91150683  0.58470143  1  0.453981  0  0.11564  0.316894  0  4.064882  0
C  C88  1  0.54524385  0.08134326  0.41709518  1  -0.005914  0  -0.108113  -0.146705  0  4.033463  0
C  C89  1  0.55102144  0.91594589  0.57905368  1  0.027338  0  -0.095685  -0.219058  0  3.924272  0
C  C90  1  0.45168482  0.07787947  0.42084802  1  -0.050886  0  -0.087667  -0.072138  0  4.033789  0
N  N91  1  0.17028957  0.41379801  0.33124694  1  -1.256957  0  -0.591508  -0.614342  0  3.354853  0
N  N92  1  0.41347973  0.16944625  0.08623195  1  -1.256989  0  -0.591568  -0.617558  0  3.347855  0
N  N93  1  0.82903593  0.17171581  0.91350852  1  -1.237794  0  -0.591392  -0.618004  0  3.365127  0
N  N94  1  0.41386451  0.58569895  0.32867848  1  -1.245837  0  -0.591441  -0.616507  0  3.357852  0
N  N95  1  0.41374713  0.83008157  0.66908646  1  -1.268646  0  -0.589082  -0.613813  0  3.356469  0
O  O96  1  0.91801246  0.73853058  0.57486942  1  -1.185661  0  -0.354249  -0.616859  0  2.275177  0
O  O97  1  0.26496709  0.07323819  0.24101761  1  -1.189206  0  -0.361591  -0.630042  0  2.324736  0
O  O98  1  0.07412405  0.26518237  0.41973161  1  -1.177928  0  -0.361447  -0.629396  0  2.322257  0
O  O99  1  0.73665090  0.92117301  0.76648703  1  -1.178872  0  -0.354382  -0.616016  0  2.277618  0
O  O100  1  0.07296132  0.74004547  0.76596542  1  -1.188263  0  -0.360812  -0.624603  0  2.284686  0
O  O101  1  0.73596955  0.07581793  0.41971203  1  -1.181539  0  -0.355567  -0.617705  0  2.275288  0
O  O102  1  0.92037551  0.26634090  0.23849913  1  -1.175214  0  -0.352195  -0.611147  0  2.270032  0
O  O103  1  0.26431465  0.91929656  0.57381254  1  -1.18782  0  -0.360157  -0.627977  0  2.321479  0
O  O104  1  0.26391870  0.74088070  0.41854527  1  -1.190741  0  -0.360235  -0.628617  0  2.316959  0
O  O105  1  0.91807453  0.07586664  0.76473423  1  -1.190755  0  -0.360757  -0.629365  0  2.321406  0
O  O106  1  0.73684922  0.26837463  0.57380005  1  -1.180068  0  -0.356268  -0.619425  0  2.272798  0
O  O107  1  0.07270041  0.92058547  0.23748316  1  -1.181208  0  -0.355391  -0.618164  0  2.27608  0
O  O108  1  0.07183243  0.92320617  0.76692810  1  -1.18606  0  -0.357051  -0.625738  0  2.270749  0
O  O109  1  0.73784913  0.26772262  0.42016198  1  -1.182672  0  -0.357065  -0.622899  0  2.28925  0
O  O110  1  0.91928911  0.07418486  0.23822769  1  -1.18653  0  -0.357672  -0.624127  0  2.288517  0
O  O111  1  0.26560485  0.73680538  0.57290866  1  -1.184172  0  -0.35706  -0.626675  0  2.272591  0
O  O112  1  0.91908642  0.73945338  0.76650816  1  -1.173666  0  -0.349296  -0.609783  0  2.268974  0
O  O113  1  0.26636082  0.07326024  0.42200176  1  -1.192751  0  -0.361572  -0.632114  0  2.27769  0
O  O114  1  0.07472124  0.26555058  0.23862389  1  -1.184668  0  -0.359128  -0.626496  0  2.279664  0
O  O115  1  0.73700629  0.92226249  0.57267232  1  -1.186013  0  -0.35791  -0.622521  0  2.288248  0
O  O116  1  0.73694634  0.07493309  0.76597913  1  -1.184761  0  -0.358018  -0.626131  0  2.285896  0
O  O117  1  0.07103869  0.73969307  0.42081083  1  -1.186494  0  -0.35874  -0.625403  0  2.290369  0
O  O118  1  0.26637588  0.92198936  0.23569067  1  -1.185885  0  -0.356309  -0.626313  0  2.268774  0
O  O119  1  0.92116693  0.26797733  0.57307511  1  -1.187857  0  -0.358035  -0.626588  0  2.273143  0
O  O120  1  0.79608708  0.06840321  0.56670807  1  -1.233065  0  -0.6947  -1.066973  0  2.361858  0
O  O121  1  0.06572885  0.06718300  0.56707603  1  -1.240892  0  -0.698159  -1.068057  0  2.373741  0
O  O122  1  0.06580976  0.06704763  0.29805777  1  -1.228176  0  -0.696921  -1.069148  0  2.368594  0
O  O123  1  0.06489907  0.79885709  0.56689264  1  -1.228997  0  -0.695025  -1.06669  0  2.366721  0
O  O124  1  0.14687363  0.94986042  0.45058513  1  -1.193922  0  -0.795612  -1.143839  0  2.141896  0
O  O125  1  0.94818522  0.95118351  0.45007407  1  -1.200224  0  -0.79143  -1.145938  0  2.1293  0
O  O126  1  0.94891956  0.14902760  0.44983338  1  -1.196558  0  -0.79444  -1.14651  0  2.138163  0
O  O127  1  0.94838439  0.95143439  0.64787476  1  -1.198572  0  -0.791706  -1.14552  0  2.130938  0
