# generated using pymatgen
data_MgH8(CO)8
_symmetry_space_group_name_H-M   'P 1'
_cell_length_a   6.92773623
_cell_length_b   8.17602696
_cell_length_c   9.32814257
_cell_angle_alpha   63.99339699
_cell_angle_beta   82.67457998
_cell_angle_gamma   73.08980775
_symmetry_Int_Tables_number   1
_chemical_formula_structural   MgH8(CO)8
_chemical_formula_sum   'Mg2 H16 C16 O16'
_cell_volume   454.32690721
_cell_formula_units_Z   2
loop_
 _symmetry_equiv_pos_site_id
 _symmetry_equiv_pos_as_xyz
  1  'x, y, z'
loop_
 _atom_site_type_symbol
 _atom_site_label
 _atom_site_symmetry_multiplicity
 _atom_site_fract_x
 _atom_site_fract_y
 _atom_site_fract_z
 _atom_site_occupancy
 _atom_site_hle17_bader_spin_density
 _atom_site_hle17_ddec_charge
 _atom_site_hle17_ddec_spin_density
 _atom_site_hle17_ddec_sum_bond_order
 _atom_site_hle17_magmom
 _atom_site_hse06_10hf_bader_spin_density
 _atom_site_hse06_10hf_ddec_charge
 _atom_site_hse06_10hf_ddec_spin_density
 _atom_site_hse06_10hf_ddec_sum_bond_order
 _atom_site_hse06_10hf_magmom
 _atom_site_hse06_bader_spin_density
 _atom_site_hse06_ddec_charge
 _atom_site_hse06_ddec_spin_density
 _atom_site_hse06_ddec_sum_bond_order
 _atom_site_hse06_magmom
 _atom_site_pbe_bader_spin_density
 _atom_site_pbe_cm5_charge
 _atom_site_pbe_ddec_charge
 _atom_site_pbe_ddec_spin_density
 _atom_site_pbe_ddec_sum_bond_order
 _atom_site_pbe_magmom
Mg  Mg0  1  0.25005868  0.31019441  0.37956715  1  0  1.543465  0  1.082752  0  0  1.435604  0  1.340726  0  0  1.458914  0  1.303381  0  0  0.81831  1.419313  0  1.366406  0
Mg  Mg1  1  0.74994162  0.68980331  0.62043312  1  0  1.543543  0  1.082614  0  0  1.435712  0  1.340591  0  0  1.459004  0  1.303264  0  0  0.818348  1.419432  0  1.366253  0
H  H2  1  0.79807262  0.33225814  0.92399988  1  0  0.132321  0  0.950955  0  0  0.142204  0  1.011396  0  0  0.146131  0  1.008584  0  0  0.117284  0.139274  0  1.013546  0
H  H3  1  0.70201484  0.74376680  0.92399699  1  0  0.133127  0  0.949967  0  0  0.143156  0  1.009913  0  0  0.147053  0  1.007169  0  0  0.117367  0.139979  0  1.012507  0
H  H4  1  0.20192640  0.66773579  0.07600832  1  0  0.132367  0  0.950871  0  0  0.142206  0  1.011393  0  0  0.146144  0  1.008553  0  0  0.117277  0.139272  0  1.013544  0
H  H5  1  0.29798303  0.25624109  0.07599179  1  0  0.133111  0  0.95001  0  0  0.143143  0  1.00997  0  0  0.147039  0  1.00722  0  0  0.117361  0.139968  0  1.012563  0
H  H6  1  0.13532023  0.99602344  0.66236422  1  0  0.398959  0  0.886606  0  0  0.363956  0  0.968537  0  0  0.377111  0  0.954557  0  0  0.307663  0.354965  0  0.977601  0
H  H7  1  0.36452481  0.34178096  0.66230837  1  0  0.399366  0  0.886248  0  0  0.364063  0  0.968435  0  0  0.377212  0  0.954436  0  0  0.307811  0.354818  0  0.978172  0
H  H8  1  0.86468854  0.00397261  0.33764342  1  0  0.399052  0  0.886444  0  0  0.363987  0  0.968489  0  0  0.377141  0  0.954511  0  0  0.307641  0.354995  0  0.977553  0
H  H9  1  0.63547370  0.65823075  0.33767946  1  0  0.399343  0  0.886256  0  0  0.364051  0  0.968428  0  0  0.377192  0  0.954436  0  0  0.307813  0.354805  0  0.978164  0
H  H10  1  0.90727571  0.49412175  0.21298325  1  0  0.430419  0  0.865861  0  0  0.397521  0  0.931523  0  0  0.407813  0  0.916422  0  0  0.302787  0.390273  0  0.942152  0
H  H11  1  0.59281875  0.29301375  0.21285515  1  0  0.430626  0  0.86553  0  0  0.397872  0  0.93083  0  0  0.408156  0  0.915772  0  0  0.303067  0.390473  0  0.941728  0
H  H12  1  0.09272399  0.50587863  0.78701157  1  0  0.43042  0  0.86587  0  0  0.397522  0  0.93153  0  0  0.407816  0  0.916426  0  0  0.302764  0.390275  0  0.942159  0
H  H13  1  0.40718730  0.70697586  0.78715318  1  0  0.430641  0  0.865508  0  0  0.397867  0  0.930832  0  0  0.408148  0  0.915783  0  0  0.303075  0.390471  0  0.941726  0
H  H14  1  0.96845677  0.28892634  0.22521493  1  0  0.427365  0  0.868631  0  0  0.395626  0  0.932012  0  0  0.406124  0  0.916589  0  0  0.303275  0.388548  0  0.942261  0
H  H15  1  0.53170439  0.48580630  0.22533660  1  0  0.427443  0  0.86879  0  0  0.395752  0  0.932072  0  0  0.406252  0  0.91663  0  0  0.303284  0.388325  0  0.943042  0
H  H16  1  0.03155138  0.71106912  0.77479047  1  0  0.427367  0  0.868622  0  0  0.395637  0  0.93199  0  0  0.406133  0  0.91657  0  0  0.303278  0.388559  0  0.942238  0
H  H17  1  0.46829860  0.51418859  0.77466228  1  0  0.427564  0  0.868636  0  0  0.395873  0  0.931916  0  0  0.406375  0  0.916468  0  0  0.303324  0.388444  0  0.942889  0
C  C18  1  0.94885856  0.26304705  0.66560910  1  0  0.723511  0  3.828184  0  0  0.665474  0  4.132136  0  0  0.700968  0  4.119441  0  0  0.233375  0.64168  0  4.140157  0
C  C19  1  0.55114346  0.07145478  0.66562952  1  0  0.72466  0  3.82643  0  0  0.665699  0  4.131664  0  0  0.701003  0  4.119132  0  0  0.233227  0.643139  0  4.137981  0
C  C20  1  0.05114523  0.73694557  0.33439904  1  0  0.723551  0  3.828625  0  0  0.665506  0  4.132558  0  0  0.700995  0  4.119868  0  0  0.233399  0.641711  0  4.140583  0
C  C21  1  0.44884860  0.92855257  0.33435973  1  0  0.724594  0  3.826334  0  0  0.665544  0  4.131718  0  0  0.700849  0  4.119187  0  0  0.23318  0.642983  0  4.138033  0
C  C22  1  0.97139855  0.12707859  0.83778612  1  0  -0.179954  0  3.761549  0  0  -0.167356  0  4.013105  0  0  -0.176001  0  4.034608  0  0  -0.029474  -0.162109  0  3.998974  0
C  C23  1  0.52854733  0.03513108  0.83779850  1  0  -0.177895  0  3.759896  0  0  -0.165091  0  4.011377  0  0  -0.173587  0  4.032813  0  0  -0.029625  -0.160794  0  3.997774  0
C  C24  1  0.02860213  0.87291776  0.16222392  1  0  -0.179989  0  3.761764  0  0  -0.167376  0  4.013305  0  0  -0.176012  0  4.034807  0  0  -0.029482  -0.16213  0  3.999175  0
C  C25  1  0.47144782  0.96487423  0.16219700  1  0  -0.177816  0  3.75986  0  0  -0.164982  0  4.011356  0  0  -0.173491  0  4.032813  0  0  -0.029579  -0.160685  0  3.997754  0
C  C26  1  0.88649797  0.18703452  0.95647230  1  0  -0.15582  0  3.698834  0  0  -0.188667  0  3.95953  0  0  -0.190884  0  3.978578  0  0  -0.093843  -0.186348  0  3.94617  0
C  C27  1  0.61363845  0.85647839  0.95651013  1  0  -0.156862  0  3.698975  0  0  -0.189296  0  3.959122  0  0  -0.191623  0  3.978253  0  0  -0.093329  -0.187492  0  3.94691  0
C  C28  1  0.11350396  0.81296022  0.04353513  1  0  -0.155951  0  3.698779  0  0  -0.188792  0  3.959483  0  0  -0.191013  0  3.97853  0  0  -0.093872  -0.18647  0  3.946129  0
C  C29  1  0.38635525  0.14352814  0.04348415  1  0  -0.156871  0  3.698981  0  0  -0.189353  0  3.959199  0  0  -0.191664  0  3.978312  0  0  -0.093331  -0.187547  0  3.946983  0
C  C30  1  0.08527612  0.93742668  0.88330414  1  0  0.300403  0  3.788185  0  0  0.27982  0  4.05647  0  0  0.289177  0  4.074883  0  0  0.077221  0.273013  0  4.044182  0
C  C31  1  0.41468250  0.17925894  0.88328551  1  0  0.299239  0  3.790288  0  0  0.278182  0  4.058263  0  0  0.287647  0  4.076636  0  0  0.076653  0.271659  0  4.046131  0
C  C32  1  0.91472539  0.06256788  0.11670487  1  0  0.300337  0  3.788471  0  0  0.27975  0  4.05674  0  0  0.2891  0  4.075159  0  0  0.077176  0.272944  0  4.044451  0
C  C33  1  0.58530978  0.82075313  0.11670329  1  0  0.299122  0  3.790505  0  0  0.278093  0  4.058431  0  0  0.287543  0  4.076817  0  0  0.076612  0.271569  0  4.046303  0
O  O34  1  0.05103091  0.19965994  0.56561567  1  0  -0.709509  0  2.046807  0  0  -0.647451  0  2.285135  0  0  -0.670956  0  2.270685  0  0  -0.339463  -0.631142  0  2.293081  0
O  O35  1  0.44894637  0.23481918  0.56560172  1  0  -0.711059  0  2.046065  0  0  -0.648924  0  2.284706  0  0  -0.672409  0  2.270303  0  0  -0.339898  -0.632196  0  2.29313  0
O  O36  1  0.94897538  0.80033548  0.43439116  1  0  -0.709558  0  2.046911  0  0  -0.647478  0  2.285239  0  0  -0.670973  0  2.270788  0  0  -0.339468  -0.63117  0  2.293184  0
O  O37  1  0.55105649  0.76519213  0.43438656  1  0  -0.710981  0  2.046027  0  0  -0.648824  0  2.284664  0  0  -0.672307  0  2.270268  0  0  -0.339835  -0.63209  0  2.293077  0
O  O38  1  0.83844287  0.42832547  0.62351505  1  0  -0.686553  0  2.006013  0  0  -0.630018  0  2.251501  0  0  -0.651633  0  2.237713  0  0  -0.343661  -0.615402  0  2.260707  0
O  O39  1  0.66142798  0.94818217  0.62367200  1  0  -0.68753  0  2.008128  0  0  -0.630588  0  2.254253  0  0  -0.652035  0  2.240416  0  0  -0.34305  -0.616177  0  2.262217  0
O  O40  1  0.16155887  0.57167596  0.37649139  1  0  -0.686503  0  2.006325  0  0  -0.62994  0  2.251774  0  0  -0.65158  0  2.238021  0  0  -0.343619  -0.615324  0  2.260986  0
O  O41  1  0.33855429  0.05181550  0.37632528  1  0  -0.68749  0  2.008003  0  0  -0.630499  0  2.254187  0  0  -0.651954  0  2.240347  0  0  -0.343058  -0.616106  0  2.26219  0
O  O42  1  0.16650229  0.87335439  0.76920338  1  0  -0.557062  0  2.160505  0  0  -0.482454  0  2.364679  0  0  -0.504401  0  2.35495  0  0  -0.332997  -0.467068  0  2.370548  0
O  O43  1  0.33337201  0.35747457  0.76912921  1  0  -0.557058  0  2.161174  0  0  -0.481684  0  2.365143  0  0  -0.503896  0  2.355669  0  0  -0.332912  -0.466094  0  2.371691  0
O  O44  1  0.83350233  0.12664461  0.23080550  1  0  -0.55708  0  2.160476  0  0  -0.482436  0  2.364677  0  0  -0.504377  0  2.354941  0  0  -0.332932  -0.467053  0  2.370552  0
O  O45  1  0.66662090  0.64253916  0.23086077  1  0  -0.556967  0  2.161274  0  0  -0.481643  0  2.365263  0  0  -0.503794  0  2.355727  0  0  -0.332908  -0.466055  0  2.371812  0
O  O46  1  0.02605987  0.39128665  0.21387843  1  0  -0.895965  0  1.874943  0  0  -0.846972  0  2.066462  0  0  -0.86339  0  2.03331  0  0  -0.611555  -0.835442  0  2.088859  0
O  O47  1  0.47404839  0.39493255  0.21381566  1  0  -0.895671  0  1.874625  0  0  -0.846436  0  2.065392  0  0  -0.862773  0  2.032128  0  0  -0.611548  -0.835186  0  2.089116  0
O  O48  1  0.97394436  0.60871048  0.78612387  1  0  -0.895963  0  1.874891  0  0  -0.847001  0  2.066415  0  0  -0.863404  0  2.033256  0  0  -0.611528  -0.835474  0  2.088807  0
O  O49  1  0.52595851  0.60505250  0.78618455  1  0  -0.895804  0  1.87445  0  0  -0.846559  0  2.065248  0  0  -0.862886  0  2.031984  0  0  -0.611601  -0.835331  0  2.089009  0
