# generated using pymatgen
data_Cu2H21C22(NO2)5
_symmetry_space_group_name_H-M   'P 1'
_cell_length_a   16.29803032
_cell_length_b   16.29800880
_cell_length_c   18.44731100
_cell_angle_alpha   100.56418363
_cell_angle_beta   100.56398496
_cell_angle_gamma   91.16694195
_symmetry_Int_Tables_number   1
_chemical_formula_structural   Cu2H21C22(NO2)5
_chemical_formula_sum   'Cu8 H84 C88 N20 O40'
_cell_volume   4727.98250701
_cell_formula_units_Z   4
loop_
 _symmetry_equiv_pos_site_id
 _symmetry_equiv_pos_as_xyz
  1  'x, y, z'
loop_
 _atom_site_type_symbol
 _atom_site_label
 _atom_site_symmetry_multiplicity
 _atom_site_fract_x
 _atom_site_fract_y
 _atom_site_fract_z
 _atom_site_occupancy
 _atom_site_pbe_bader_charge
 _atom_site_pbe_bader_spin_density
 _atom_site_pbe_cm5_charge
 _atom_site_pbe_ddec_charge
 _atom_site_pbe_ddec_spin_density
 _atom_site_pbe_ddec_sum_bond_order
 _atom_site_pbe_magmom
Cu  Cu0  1  0.42736426  0.87299525  0.55804981  1  1.104789  0.598065  0.708299  0.854543  0.753214  2.274426  0.597
Cu  Cu1  1  0.41632788  0.02530349  0.46103483  1  1.092772  0.584028  0.710688  0.904891  0.736522  2.176212  0.582
Cu  Cu2  1  0.12700410  0.57263285  0.94194742  1  1.104682  0.598067  0.708339  0.854592  0.753219  2.274426  0.597
Cu  Cu3  1  0.97469645  0.58367186  0.03896750  1  1.092774  0.584025  0.710712  0.904936  0.736521  2.176133  0.582
Cu  Cu4  1  0.57263494  0.12700401  0.44194918  1  1.104666  0.598061  0.708329  0.854552  0.753211  2.274368  0.597
Cu  Cu5  1  0.58367257  0.97469771  0.53896685  1  1.092868  0.584028  0.710711  0.904939  0.736525  2.176135  0.582
Cu  Cu6  1  0.87299697  0.42736651  0.05805244  1  1.104637  0.598062  0.708362  0.854611  0.753214  2.274399  0.597
Cu  Cu7  1  0.02530399  0.41632746  0.96103387  1  1.092786  0.584024  0.710708  0.904876  0.736517  2.176235  0.582
H  H8  1  0.52963175  0.12859626  0.55914696  1  0.647363  0.000463  0.278017  0.370416  0.001889  0.986309  0.002
H  H9  1  0.36706082  0.06770794  0.76833400  1  0.06782  6e-05  0.110328  0.087862  -7e-06  0.976557  0.0
H  H10  1  0.47767059  0.05932347  0.77576306  1  0.101248  0.000299  0.114433  0.099807  0.000243  0.986251  0.0
H  H11  1  0.36562588  0.15143549  0.66639157  1  0.067885  0.002122  0.104397  0.133305  0.001009  0.964466  0.001
H  H12  1  0.47604126  0.14477160  0.67555304  1  0.093707  -0.000123  0.105625  0.139319  -0.000152  0.996676  0.0
H  H13  1  0.65194938  0.26280509  0.94253401  1  0.106279  0.000183  0.111905  0.095863  0.00015  0.980922  0.0
H  H14  1  0.61126102  0.35807510  0.98212555  1  0.088807  -4.2e-05  0.114339  0.095922  -5.4e-05  0.984192  0.0
H  H15  1  0.62041353  0.41492751  0.86543515  1  0.082833  0.00153  0.107253  0.127525  0.000747  0.965657  0.001
H  H16  1  0.66299138  0.32129758  0.82739815  1  0.07549  0.000267  0.103791  0.123218  5.5e-05  0.975021  0.0
H  H17  1  0.27660459  0.34883198  0.81562746  1  0.0597  -6.8e-05  0.114276  0.097362  -9.7e-05  0.964844  0.0
H  H18  1  0.34169735  0.42153136  0.88896566  1  0.101589  1.1e-05  0.11415  0.098944  -1e-05  0.993839  0.0
H  H19  1  0.30216384  0.34802470  0.98498753  1  0.044849  -0.000292  0.108027  0.127625  -0.000373  0.954577  0.0
H  H20  1  0.24342843  0.26897491  0.91431211  1  0.039976  -0.000131  0.104216  0.127338  -0.000175  0.973717  0.0
H  H21  1  0.29790026  0.92710941  0.65216160  1  0.130614  0.002092  0.125514  0.107398  0.000932  0.989988  0.001
H  H22  1  0.22749570  0.86536107  0.74040464  1  0.07901  0.001251  0.115125  0.120721  0.000658  0.990373  0.001
H  H23  1  0.36658640  0.64469914  0.69206248  1  0.063038  0.001065  0.115293  0.121169  0.000556  0.989556  0.0
H  H24  1  0.43375621  0.71836235  0.60873827  1  0.137934  0.002279  0.128529  0.106706  0.001067  0.995826  0.002
H  H25  1  0.25836560  0.93948110  0.46417601  1  0.158784  0.002057  0.126212  0.107182  0.000846  1.000771  0.002
H  H26  1  0.15129278  0.84053616  0.37246547  1  0.087214  0.001064  0.115891  0.12268  0.000563  0.98369  0.0
H  H27  1  0.29282781  0.87073612  0.20097267  1  0.142406  0.001099  0.113177  0.130665  0.000576  1.016937  0.001
H  H28  1  0.39194899  0.96803706  0.29929218  1  0.142652  0.00234  0.127407  0.105695  0.001179  0.990984  0.002
H  H29  1  0.87140482  0.47036948  0.94085275  1  0.647359  0.000464  0.278028  0.370435  0.001889  0.986278  0.002
H  H30  1  0.93229257  0.63293752  0.73166637  1  0.067551  6e-05  0.110331  0.087881  -7e-06  0.97652  0.0
H  H31  1  0.94067698  0.52232827  0.72423776  1  0.101242  0.000299  0.114427  0.099821  0.000243  0.986232  0.0
H  H32  1  0.84856407  0.63437459  0.83360857  1  0.067874  0.002123  0.104403  0.133305  0.001009  0.964418  0.001
H  H33  1  0.85522736  0.52395882  0.82444678  1  0.093694  -0.000123  0.105626  0.139321  -0.000152  0.996665  0.0
H  H34  1  0.73719541  0.34805087  0.55746655  1  0.106295  0.000183  0.111887  0.095828  0.00015  0.980962  0.0
H  H35  1  0.64192509  0.38873934  0.51787462  1  0.088795  -4.2e-05  0.114348  0.09591  -5.4e-05  0.984203  0.0
H  H36  1  0.58507300  0.37958643  0.63456453  1  0.082832  0.001529  0.107274  0.12758  0.000747  0.965673  0.001
H  H37  1  0.67870269  0.33701035  0.67260267  1  0.075448  0.000267  0.103804  0.123228  5.5e-05  0.975003  0.0
H  H38  1  0.65117145  0.72339739  0.68437450  1  0.05975  -6.8e-05  0.114304  0.097404  -9.7e-05  0.964806  0.0
H  H39  1  0.57847019  0.65830519  0.61103556  1  0.10164  1.1e-05  0.114092  0.098866  -1e-05  0.993946  0.0
H  H40  1  0.65197688  0.69783589  0.51501426  1  0.04488  -0.000292  0.108015  0.127578  -0.000373  0.954586  0.0
H  H41  1  0.73102566  0.75657364  0.58568825  1  0.039965  -0.000131  0.104214  0.127289  -0.000175  0.973705  0.0
H  H42  1  0.07289198  0.70209912  0.84783821  1  0.130625  0.002091  0.125526  0.107414  0.000932  0.989998  0.001
H  H43  1  0.13463916  0.77250375  0.75959500  1  0.079015  0.001251  0.11514  0.120741  0.000658  0.990317  0.001
H  H44  1  0.35530126  0.63341363  0.80793679  1  0.063024  0.001065  0.115277  0.121142  0.000556  0.989544  0.0
H  H45  1  0.28163780  0.56624385  0.89126043  1  0.137957  0.002279  0.1285  0.106672  0.001067  0.995817  0.002
H  H46  1  0.06052109  0.74163625  0.03582528  1  0.15881  0.002057  0.126198  0.107161  0.000846  1.000659  0.002
H  H47  1  0.15946531  0.84870783  0.12753822  1  0.087645  0.001064  0.115871  0.122642  0.000563  0.983655  0.0
H  H48  1  0.12926307  0.70716981  0.29902892  1  0.14238  0.001099  0.113161  0.130638  0.000576  1.016794  0.001
H  H49  1  0.03196283  0.60804921  0.20070582  1  0.14293  0.00234  0.127427  0.105696  0.001179  0.990995  0.002
H  H50  1  0.47036808  0.87140366  0.44085278  1  0.647357  0.000463  0.278025  0.370448  0.001889  0.98627  0.002
H  H51  1  0.63293900  0.93229198  0.23166628  1  0.06782  6e-05  0.110332  0.087873  -7e-06  0.976551  0.0
H  H52  1  0.52232923  0.94067645  0.22423776  1  0.10126  0.000299  0.114437  0.099831  0.000243  0.98623  0.0
H  H53  1  0.63437394  0.84856318  0.33360851  1  0.067878  0.002123  0.104387  0.13331  0.001009  0.964416  0.001
H  H54  1  0.52395856  0.85522832  0.32444670  1  0.09369  -0.000123  0.105617  0.139307  -0.000152  0.996686  0.0
H  H55  1  0.34805169  0.73719489  0.05746595  1  0.106281  0.000183  0.1119  0.095862  0.00015  0.980916  0.0
H  H56  1  0.38873943  0.64192485  0.01787376  1  0.088791  -4.2e-05  0.114333  0.095907  -5.4e-05  0.984195  0.0
H  H57  1  0.37958692  0.58507307  0.13456426  1  0.082845  0.00153  0.10727  0.127533  0.000747  0.965714  0.001
H  H58  1  0.33700907  0.67870237  0.17260170  1  0.075492  0.000267  0.103795  0.123233  5.5e-05  0.975022  0.0
H  H59  1  0.72339649  0.65116925  0.18437270  1  0.059694  -6.8e-05  0.114266  0.097329  -9.7e-05  0.964888  0.0
H  H60  1  0.65830310  0.57846922  0.11103375  1  0.101597  1.1e-05  0.114161  0.098967  -1e-05  0.993836  0.0
H  H61  1  0.69783661  0.65197525  0.01501286  1  0.044863  -0.000292  0.108009  0.127591  -0.000373  0.954576  0.0
H  H62  1  0.75657264  0.73102507  0.08568785  1  0.039983  -0.000131  0.10422  0.127311  -0.000175  0.973717  0.0
H  H63  1  0.70209957  0.07289176  0.34783780  1  0.130632  0.002091  0.125523  0.107403  0.000932  0.990003  0.001
H  H64  1  0.77250412  0.13463885  0.25959564  1  0.07902  0.001251  0.115134  0.120743  0.000658  0.990346  0.001
H  H65  1  0.63341342  0.35530078  0.30793834  1  0.063027  0.001065  0.115286  0.121162  0.000556  0.989584  0.0
H  H66  1  0.56624362  0.28163819  0.39126157  1  0.137934  0.00228  0.128522  0.106672  0.001067  0.995823  0.002
H  H67  1  0.74163423  0.06052007  0.53582340  1  0.158785  0.002057  0.126214  0.107176  0.000846  1.000756  0.002
H  H68  1  0.84870704  0.15946438  0.62753438  1  0.087416  0.001064  0.115894  0.122695  0.000563  0.983675  0.0
H  H69  1  0.70717076  0.12926436  0.79902750  1  0.14241  0.001099  0.113179  0.130658  0.000576  1.016788  0.001
H  H70  1  0.60805145  0.03196290  0.70070767  1  0.142654  0.00234  0.127407  0.105699  0.001179  0.990983  0.002
H  H71  1  0.12859501  0.52963044  0.05914699  1  0.647359  0.000463  0.278022  0.370443  0.001889  0.986267  0.002
H  H72  1  0.06770724  0.36706177  0.26833435  1  0.067841  6e-05  0.110325  0.087834  -7e-06  0.976602  0.0
H  H73  1  0.05932283  0.47767103  0.27576242  1  0.101229  0.000299  0.11442  0.099813  0.000243  0.986265  0.0
H  H74  1  0.15143700  0.36562601  0.16639257  1  0.067867  0.002122  0.104361  0.133291  0.001009  0.96447  0.001
H  H75  1  0.14477309  0.47604050  0.17555405  1  0.093698  -0.000123  0.105617  0.139321  -0.000152  0.996695  0.0
H  H76  1  0.26280442  0.65194968  0.44253330  1  0.106264  0.000183  0.111921  0.095884  0.00015  0.980928  0.0
H  H77  1  0.35807473  0.61126120  0.48212522  1  0.088823  -4.2e-05  0.114358  0.095953  -5.4e-05  0.984182  0.0
H  H78  1  0.41492682  0.62041349  0.36543575  1  0.082838  0.001529  0.107286  0.127555  0.000747  0.965706  0.001
H  H79  1  0.32129713  0.66298895  0.32739642  1  0.075422  0.000267  0.103807  0.123209  5.5e-05  0.974986  0.0
H  H80  1  0.34882900  0.27660381  0.31562609  1  0.05966  -6.8e-05  0.114269  0.09733  -9.7e-05  0.964862  0.0
H  H81  1  0.42152900  0.34169532  0.38896472  1  0.10164  1.1e-05  0.114141  0.098956  -1e-05  0.993917  0.0
H  H82  1  0.34802232  0.30216400  0.48498591  1  0.044871  -0.000292  0.108014  0.127568  -0.000373  0.954601  0.0
H  H83  1  0.26897354  0.24342687  0.41431149  1  0.03995  -0.000131  0.104193  0.127284  -0.000175  0.973722  0.0
H  H84  1  0.92710785  0.29790142  0.15216218  1  0.130631  0.002091  0.125519  0.10743  0.000932  0.989997  0.001
H  H85  1  0.86536067  0.22749680  0.24040484  1  0.079031  0.001251  0.115141  0.12075  0.000658  0.990356  0.001
H  H86  1  0.64469918  0.36658570  0.19206242  1  0.063035  0.001065  0.115305  0.121178  0.000556  0.989542  0.0
H  H87  1  0.71836265  0.43375611  0.10873888  1  0.137949  0.002279  0.128498  0.106671  0.001067  0.995822  0.002
H  H88  1  0.93947873  0.25836429  0.96417510  1  0.158817  0.002057  0.126217  0.107176  0.000846  1.000647  0.002
H  H89  1  0.84053389  0.15129330  0.87246216  1  0.087714  0.001064  0.115878  0.122643  0.000563  0.983666  0.0
H  H90  1  0.87073613  0.29283070  0.70097245  1  0.142383  0.001099  0.113152  0.13061  0.000576  1.016884  0.001
H  H91  1  0.96803761  0.39195074  0.79929349  1  0.142924  0.00234  0.12744  0.10574  0.001179  0.99099  0.002
C  C92  1  0.37014081  0.22479062  0.82129013  1  1.819245  0.000227  0.340321  0.548826  0.000193  4.177416  0.0
C  C93  1  0.46631840  0.33700728  0.90277669  1  1.788325  0.000196  0.338161  0.542154  0.000169  4.184078  0.0
C  C94  1  0.52136555  0.20425540  0.84856355  1  1.789637  0.000173  0.342377  0.553459  0.000114  4.173659  0.0
C  C95  1  0.42506631  0.09755666  0.76091148  1  0.29586  0.00013  -0.055869  -0.01306  5.5e-05  3.895614  0.0
C  C96  1  0.41796354  0.11242032  0.68050829  1  -0.054578  0.00905  -0.166191  -0.314371  0.006445  3.869614  0.007
C  C97  1  0.40496205  0.03073565  0.62424000  1  1.549475  -0.001757  0.193054  0.620468  -0.002827  4.177688  -0.004
C  C98  1  0.61635712  0.31620106  0.92974224  1  0.280508  0.000549  -0.06091  -0.015657  0.000479  3.907458  0.0
C  C99  1  0.65797151  0.36307305  0.88038169  1  -0.051695  0.009283  -0.159802  -0.314524  0.006488  3.90541  0.007
C  C100  1  0.74528681  0.39944111  0.91899758  1  1.553035  0.000502  0.209061  0.637782  0.000142  4.125508  -0.001
C  C101  1  0.31569922  0.35708710  0.87177444  1  0.338674  0.00236  -0.059107  -0.019357  0.001539  3.913284  0.002
C  C102  1  0.26435336  0.33533351  0.92771698  1  0.000414  0.013113  -0.160326  -0.308141  0.009193  3.895534  0.01
C  C103  1  0.18850336  0.38856349  0.92831616  1  1.578601  -0.001322  0.211117  0.654425  -0.001991  4.129608  -0.003
C  C104  1  0.31159608  0.86503552  0.66369001  1  0.483091  -0.001211  0.05365  0.093648  -0.001623  3.934154  -0.001
C  C105  1  0.27197563  0.82947117  0.71195678  1  0.00558  0.004604  -0.080155  -0.174652  0.003053  3.946739  0.004
C  C106  1  0.29106825  0.74900165  0.72442632  1  -0.029204  -0.003541  0.012561  0.101292  -0.004065  3.994163  -0.002
C  C107  1  0.35004797  0.70791011  0.68622818  1  -0.000829  0.004595  -0.074428  -0.168057  0.003007  3.93229  0.004
C  C108  1  0.38708593  0.74748302  0.63887623  1  0.502222  -0.002042  0.057331  0.112027  -0.002469  3.910306  -0.001
C  C109  1  0.26193378  0.92233133  0.40489405  1  0.439078  -0.001226  0.055855  0.100068  -0.001803  3.925365  -0.001
C  C110  1  0.20352715  0.86732549  0.35355219  1  0.003305  0.004644  -0.076256  -0.161519  0.003131  3.925352  0.004
C  C111  1  0.21204428  0.84763290  0.27802633  1  -0.017287  -0.002582  0.014372  0.10162  -0.002976  3.981876  -0.002
C  C112  1  0.28038196  0.88540166  0.25778999  1  -0.003078  0.005213  -0.075363  -0.165296  0.003478  3.915695  0.004
C  C113  1  0.33675022  0.93925476  0.31230765  1  0.451911  0.00022  0.056369  0.106851  -0.000281  3.909813  0.0
C  C114  1  0.77521065  0.62985874  0.67871078  1  1.819256  0.000227  0.340369  0.548868  0.000193  4.177374  0.0
C  C115  1  0.66299302  0.53368244  0.59722484  1  1.788217  0.000196  0.338134  0.542212  0.000169  4.184148  0.0
C  C116  1  0.79574369  0.47863512  0.65143640  1  1.78962  0.000173  0.342378  0.55343  0.000114  4.173627  0.0
C  C117  1  0.90244349  0.57493319  0.73908844  1  0.295961  0.00013  -0.055829  -0.01312  5.5e-05  3.895468  0.0
C  C118  1  0.88757930  0.58203630  0.81949217  1  -0.054443  0.009049  -0.166195  -0.314337  0.006445  3.869488  0.007
C  C119  1  0.96926250  0.59503905  0.87576088  1  1.549329  -0.001757  0.193015  0.620443  -0.002827  4.177815  -0.004
C  C120  1  0.68379944  0.38364360  0.57025797  1  0.28026  0.000549  -0.060907  -0.015594  0.000479  3.907397  0.0
C  C121  1  0.63692629  0.34202885  0.61961829  1  -0.051746  0.009282  -0.159815  -0.31459  0.006487  3.905429  0.007
C  C122  1  0.60056114  0.25471384  0.58100176  1  1.553098  0.000501  0.209014  0.637769  0.000142  4.125635  -0.001
C  C123  1  0.64291452  0.68430171  0.62822593  1  0.338623  0.00236  -0.059115  -0.019418  0.00154  3.913454  0.002
C  C124  1  0.66466627  0.73564702  0.57228304  1  0.000387  0.013111  -0.160264  -0.307852  0.009192  3.895415  0.01
C  C125  1  0.61143571  0.81149549  0.57168315  1  1.578698  -0.001322  0.211041  0.65423  -0.001991  4.129648  -0.003
C  C126  1  0.13496440  0.68840391  0.83631010  1  0.483113  -0.00121  0.053644  0.093632  -0.001623  3.934159  -0.001
C  C127  1  0.17052739  0.72802320  0.78804292  1  0.005524  0.004604  -0.080124  -0.174625  0.003052  3.946622  0.004
C  C128  1  0.25099900  0.70893072  0.77557253  1  -0.067192  -0.003552  0.012506  0.101251  -0.004065  3.994141  -0.002
C  C129  1  0.29208928  0.64995316  0.81377122  1  -0.000884  0.004595  -0.074384  -0.167978  0.003007  3.932381  0.004
C  C130  1  0.25251744  0.61291485  0.86112274  1  0.50222  -0.002042  0.057274  0.111946  -0.002469  3.910409  -0.001
C  C131  1  0.07766939  0.73806772  0.09510854  1  0.440028  -0.001226  0.055853  0.100103  -0.001802  3.925256  -0.001
C  C132  1  0.13267427  0.79647243  0.14644993  1  0.00183  0.004645  -0.076243  -0.161509  0.00313  3.925325  0.004
C  C133  1  0.15236642  0.78795594  0.22197687  1  -0.047286  -0.002589  0.014381  0.101662  -0.002977  3.981778  -0.002
C  C134  1  0.11459645  0.71961865  0.24221032  1  -0.003144  0.005212  -0.075314  -0.165181  0.003478  3.915599  0.004
C  C135  1  0.06074653  0.66325013  0.18769367  1  0.451846  0.00022  0.056316  0.106774  -0.000281  3.909895  0.0
C  C136  1  0.62985901  0.77520930  0.17871016  1  1.819235  0.000227  0.340355  0.548853  0.000193  4.177352  0.0
C  C137  1  0.53368204  0.66299205  0.09722360  1  1.788319  0.000196  0.338129  0.542077  0.000169  4.184168  0.0
C  C138  1  0.47863427  0.79574452  0.15143619  1  1.789637  0.000173  0.342391  0.553469  0.000114  4.173649  0.0
C  C139  1  0.57493414  0.90244267  0.23908881  1  0.295671  0.00013  -0.055864  -0.013101  5.5e-05  3.895566  0.0
C  C140  1  0.58203565  0.88757894  0.31949178  1  -0.05459  0.00905  -0.166196  -0.314362  0.006445  3.869544  0.007
C  C141  1  0.59503777  0.96926364  0.37575964  1  1.549475  -0.001757  0.193023  0.620434  -0.002827  4.17776  -0.004
C  C142  1  0.38364333  0.68379952  0.07025771  1  0.280513  0.000549  -0.0609  -0.015627  0.000479  3.907459  0.0
C  C143  1  0.34202769  0.63692683  0.11961795  1  -0.051675  0.009283  -0.159804  -0.314557  0.006488  3.905474  0.007
C  C144  1  0.25471239  0.60055940  0.08100107  1  1.553038  0.000501  0.209052  0.637826  0.000142  4.12546  -0.001
C  C145  1  0.68430122  0.64291285  0.12822541  1  0.338671  0.00236  -0.059181  -0.019497  0.00154  3.913378  0.002
C  C146  1  0.73564708  0.66466581  0.07228331  1  0.00041  0.013111  -0.16027  -0.307925  0.009192  3.895461  0.01
C  C147  1  0.81149583  0.61143514  0.07168489  1  1.578605  -0.001322  0.211002  0.654144  -0.001991  4.129778  -0.003
C  C148  1  0.68840312  0.13496437  0.33631017  1  0.48293  -0.001211  0.05362  0.093608  -0.001622  3.934119  -0.001
C  C149  1  0.72802293  0.17052744  0.28804308  1  0.005526  0.004604  -0.080132  -0.174634  0.003052  3.946679  0.004
C  C150  1  0.70893095  0.25099886  0.27557342  1  -0.029184  -0.003541  0.012507  0.101225  -0.004065  3.99413  -0.002
C  C151  1  0.64995247  0.29208984  0.31377221  1  -0.000826  0.004596  -0.074398  -0.168035  0.003007  3.932368  0.004
C  C152  1  0.61291451  0.25251631  0.36112352  1  0.502224  -0.002042  0.057348  0.112078  -0.002469  3.910371  -0.001
C  C153  1  0.73806604  0.07766921  0.59510634  1  0.439084  -0.001226  0.055879  0.100176  -0.001803  3.92536  -0.001
C  C154  1  0.79647205  0.13267502  0.64644701  1  0.002918  0.004644  -0.076245  -0.161583  0.003131  3.925365  0.004
C  C155  1  0.78795555  0.15236827  0.72197470  1  -0.017059  -0.002582  0.014373  0.101643  -0.002977  3.981926  -0.002
C  C156  1  0.71961786  0.11459764  0.74220911  1  -0.003069  0.005212  -0.075348  -0.165245  0.003478  3.915586  0.004
C  C157  1  0.66324960  0.06074516  0.68769263  1  0.451883  0.00022  0.056337  0.106818  -0.000281  3.909874  0.0
C  C158  1  0.22478916  0.37014118  0.32129058  1  1.819686  0.000227  0.340298  0.548755  0.000193  4.177335  0.0
C  C159  1  0.33700555  0.46631804  0.40277479  1  1.788171  0.000196  0.338125  0.542139  0.000169  4.184077  0.0
C  C160  1  0.20425613  0.52136480  0.34856388  1  1.789619  0.000173  0.342346  0.553346  0.000114  4.173695  0.0
C  C161  1  0.09755571  0.42506670  0.26091174  1  0.295841  0.00013  -0.055813  -0.013021  5.5e-05  3.895577  0.0
C  C162  1  0.11242177  0.41796368  0.18050887  1  -0.054448  0.009051  -0.166166  -0.314398  0.006446  3.869588  0.007
C  C163  1  0.03073732  0.40496149  0.12423951  1  1.549207  -0.001757  0.19299  0.620446  -0.002827  4.177772  -0.004
C  C164  1  0.31619976  0.61635692  0.42974177  1  0.280247  0.000549  -0.060912  -0.01571  0.000479  3.907496  0.0
C  C165  1  0.36307291  0.65797104  0.38038080  1  -0.051712  0.009281  -0.159827  -0.314527  0.006487  3.905449  0.007
C  C166  1  0.39943869  0.74528608  0.41899744  1  1.553075  0.000501  0.208972  0.637745  0.000142  4.125676  -0.001
C  C167  1  0.35708593  0.31569886  0.37177456  1  0.338704  0.00236  -0.059132  -0.019449  0.00154  3.913437  0.002
C  C168  1  0.33533293  0.26435349  0.42771724  1  0.000396  0.013112  -0.160275  -0.307901  0.009192  3.895421  0.01
C  C169  1  0.38856474  0.18850446  0.42831616  1  1.578716  -0.001322  0.211049  0.654265  -0.001991  4.12976  -0.003
C  C170  1  0.86503542  0.31159663  0.16368975  1  0.482916  -0.001211  0.053564  0.093484  -0.001622  3.934214  -0.001
C  C171  1  0.82947244  0.27197735  0.21195692  1  0.005513  0.004604  -0.080154  -0.174653  0.003052  3.946746  0.004
C  C172  1  0.74900145  0.29106861  0.22442722  1  -0.067166  -0.003552  0.012541  0.10131  -0.004065  3.99404  -0.002
C  C173  1  0.70790930  0.35004732  0.18622787  1  -0.000899  0.004596  -0.074389  -0.167992  0.003007  3.932311  0.004
C  C174  1  0.74748300  0.38708510  0.13887711  1  0.502229  -0.002041  0.057273  0.111935  -0.002468  3.910492  -0.001
C  C175  1  0.92233044  0.26193345  0.90489087  1  0.44032  -0.001227  0.055814  0.100084  -0.001803  3.925272  -0.001
C  C176  1  0.86732493  0.20352871  0.85355045  1  0.001499  0.004646  -0.0762  -0.161444  0.00313  3.925323  0.004
C  C177  1  0.84763153  0.21204450  0.77802320  1  -0.0476  -0.002589  0.014386  0.101609  -0.002977  3.981886  -0.002
C  C178  1  0.88540276  0.28038374  0.75778972  1  -0.002823  0.005212  -0.075323  -0.165135  0.003478  3.915614  0.004
C  C179  1  0.93925330  0.33675166  0.81230746  1  0.451594  0.00022  0.05634  0.106733  -0.000281  3.909958  0.0
N  N180  1  0.43954110  0.17737613  0.81446807  1  -1.182569  0.000242  -0.253915  -0.241691  9.2e-05  3.615884  0.0
N  N181  1  0.53117920  0.28381728  0.89298807  1  -1.176977  0.000357  -0.253573  -0.242079  0.000164  3.613302  0.0
N  N182  1  0.38685148  0.30394445  0.86605360  1  -1.18576  0.001526  -0.250745  -0.240217  0.000914  3.620543  0.001
N  N183  1  0.36831722  0.82483621  0.62800957  1  -1.19234  0.078189  -0.332288  -0.200315  0.05131  3.580835  0.068
N  N184  1  0.32756319  0.95728630  0.38448732  1  -1.207582  0.080386  -0.344695  -0.228222  0.052636  3.618881  0.069
N  N185  1  0.82262277  0.56045892  0.68553182  1  -1.182386  0.000242  -0.253936  -0.24154  9.2e-05  3.615812  0.0
N  N186  1  0.71618327  0.46882152  0.60701277  1  -1.176725  0.000357  -0.25356  -0.242059  0.000164  3.613271  0.0
N  N187  1  0.69605687  0.61314995  0.63394772  1  -1.185735  0.001526  -0.250764  -0.240367  0.000914  3.620729  0.001
N  N188  1  0.17516535  0.63168261  0.87199065  1  -1.192309  0.07819  -0.332239  -0.200254  0.051311  3.580844  0.068
N  N189  1  0.04271345  0.67243666  0.11551372  1  -1.207804  0.080384  -0.344687  -0.228245  0.052635  3.618759  0.069
N  N190  1  0.56045934  0.82262320  0.18553167  1  -1.182369  0.000242  -0.253973  -0.241709  9.2e-05  3.615893  0.0
N  N191  1  0.46882062  0.71618264  0.10701221  1  -1.176983  0.000357  -0.253576  -0.242077  0.000164  3.613355  0.0
N  N192  1  0.61314834  0.69605609  0.13394679  1  -1.185742  0.001526  -0.250704  -0.240139  0.000914  3.620438  0.001
N  N193  1  0.63168198  0.17516555  0.37199038  1  -1.192166  0.07819  -0.332291  -0.200312  0.051311  3.580806  0.068
N  N194  1  0.67243663  0.04271362  0.61551243  1  -1.2076  0.080386  -0.34473  -0.22832  0.052636  3.618972  0.069
N  N195  1  0.17737518  0.43954153  0.31446825  1  -1.182584  0.000242  -0.253871  -0.241483  9.2e-05  3.615771  0.0
N  N196  1  0.28381593  0.53117899  0.39298751  1  -1.176711  0.000357  -0.253579  -0.242006  0.000164  3.613301  0.0
N  N197  1  0.30394233  0.38685118  0.36605266  1  -1.186105  0.001526  -0.250758  -0.240239  0.000914  3.620605  0.001
N  N198  1  0.82483511  0.36831859  0.12800886  1  -1.192136  0.078189  -0.332177  -0.200168  0.051309  3.580789  0.068
N  N199  1  0.95728699  0.32756329  0.88448722  1  -1.207619  0.080382  -0.344737  -0.228268  0.052634  3.61893  0.069
O  O200  1  0.29909806  0.19846453  0.78945159  1  -1.138517  0.000448  -0.290674  -0.484352  0.000233  2.072051  0.0
O  O201  1  0.47889109  0.40768841  0.94098435  1  -1.12821  0.00016  -0.288048  -0.473662  5.8e-05  2.093438  0.0
O  O202  1  0.58099542  0.16056122  0.84041461  1  -1.149112  0.000314  -0.290352  -0.496905  0.00014  2.120698  0.0
O  O203  1  0.46126321  0.97707059  0.63581148  1  -1.128032  0.111286  -0.336494  -0.586009  0.069289  2.317083  0.1
O  O204  1  0.34312857  0.01731955  0.57087067  1  -1.174788  0.000555  -0.33873  -0.611696  -0.001143  2.182799  0.002
O  O205  1  0.77326213  0.37735219  0.98201747  1  -1.140708  0.090007  -0.334072  -0.575778  0.056413  2.361657  0.082
O  O206  1  0.78332852  0.44711663  0.88794811  1  -1.174049  0.010385  -0.320526  -0.541494  0.005861  2.147772  0.009
O  O207  1  0.18987308  0.45549340  0.90367471  1  -1.18887  0.004263  -0.334873  -0.59575  0.001885  2.270255  0.005
O  O208  1  0.12897964  0.35917790  0.95492227  1  -1.104627  0.118991  -0.333757  -0.551351  0.07462  2.287986  0.107
O  O209  1  0.52540363  0.07740435  0.51685798  1  -1.132811  0.26211  -0.590028  -0.854688  0.168742  2.461176  0.234
O  O210  1  0.80153752  0.70090342  0.71054928  1  -1.13854  0.000448  -0.290689  -0.484373  0.000233  2.071997  0.0
O  O211  1  0.59231213  0.52111042  0.55901686  1  -1.128129  0.00016  -0.288009  -0.473652  5.8e-05  2.093432  0.0
O  O212  1  0.83943811  0.41900356  0.65958550  1  -1.149093  0.000314  -0.290379  -0.496969  0.00014  2.120655  0.0
O  O213  1  0.02292849  0.53873690  0.86418846  1  -1.127861  0.111292  -0.336465  -0.586  0.069293  2.317072  0.1
O  O214  1  0.98267849  0.65687307  0.92912817  1  -1.174808  0.000554  -0.338744  -0.611716  -0.001144  2.182882  0.002
O  O215  1  0.62265006  0.22673913  0.51798245  1  -1.140799  0.089998  -0.334018  -0.575725  0.056407  2.36164  0.082
O  O216  1  0.55288406  0.21667057  0.61205128  1  -1.174034  0.010386  -0.32052  -0.54151  0.005862  2.147825  0.009
O  O217  1  0.54450419  0.81012629  0.59632180  1  -1.188974  0.004262  -0.3348  -0.595657  0.001885  2.270261  0.005
O  O218  1  0.64082098  0.87102100  0.54507732  1  -1.104687  0.118992  -0.333763  -0.551347  0.074621  2.287956  0.107
O  O219  1  0.92259528  0.47459680  0.98314184  1  -1.13275  0.262112  -0.590037  -0.854706  0.168743  2.461176  0.234
O  O220  1  0.70090238  0.80153542  0.21054880  1  -1.138527  0.000448  -0.290702  -0.484383  0.000233  2.072017  0.0
O  O221  1  0.52110874  0.59231213  0.05901549  1  -1.1282  0.00016  -0.288008  -0.473601  5.8e-05  2.093459  0.0
O  O222  1  0.41900440  0.83943807  0.15958557  1  -1.149106  0.000314  -0.29034  -0.4969  0.00014  2.120706  0.0
O  O223  1  0.53873723  0.02292874  0.36418773  1  -1.127896  0.111286  -0.336464  -0.585964  0.069289  2.317104  0.1
O  O224  1  0.65687250  0.98267919  0.42912854  1  -1.17478  0.000555  -0.338714  -0.611695  -0.001143  2.182791  0.002
O  O225  1  0.22673769  0.62264835  0.01798292  1  -1.140751  0.089998  -0.334077  -0.575794  0.056407  2.361724  0.082
O  O226  1  0.21667129  0.55288142  0.11205078  1  -1.174035  0.010387  -0.320533  -0.541524  0.005863  2.147655  0.009
O  O227  1  0.81012673  0.54450589  0.09632601  1  -1.188928  0.004261  -0.334754  -0.59557  0.001884  2.270426  0.005
O  O228  1  0.87102143  0.64082084  0.04507748  1  -1.104571  0.118998  -0.333752  -0.551318  0.074624  2.287917  0.107
O  O229  1  0.47459619  0.92259557  0.48314122  1  -1.132756  0.262115  -0.590022  -0.854714  0.168744  2.46113  0.234
O  O230  1  0.19846168  0.29909709  0.28945154  1  -1.138556  0.000448  -0.290661  -0.484338  0.000233  2.072049  0.0
O  O231  1  0.40768832  0.47889016  0.44098309  1  -1.128117  0.00016  -0.288003  -0.473642  5.8e-05  2.093384  0.0
O  O232  1  0.16056109  0.58099695  0.34041423  1  -1.149114  0.000314  -0.290367  -0.496943  0.00014  2.120634  0.0
O  O233  1  0.97707195  0.46126243  0.13581183  1  -1.127872  0.111284  -0.336458  -0.585972  0.069288  2.317117  0.1
O  O234  1  0.01732384  0.34312761  0.07087156  1  -1.174653  0.000555  -0.338737  -0.61173  -0.001144  2.182816  0.002
O  O235  1  0.37734914  0.77326138  0.48201675  1  -1.140765  0.089999  -0.334  -0.57573  0.056408  2.361707  0.082
O  O236  1  0.44711576  0.78332997  0.38794911  1  -1.174042  0.010387  -0.320504  -0.541494  0.005862  2.147816  0.009
O  O237  1  0.45549439  0.18987481  0.40367739  1  -1.188987  0.004261  -0.334787  -0.595626  0.001884  2.270455  0.005
O  O238  1  0.35917822  0.12897889  0.45492232  1  -1.104594  0.118996  -0.333754  -0.551352  0.074623  2.287898  0.107
O  O239  1  0.07740455  0.52540374  0.01685801  1  -1.132824  0.262109  -0.590023  -0.854731  0.168742  2.461181  0.234
