# generated using pymatgen
data_Cd2PH16C7NCl2O7
_symmetry_space_group_name_H-M   'P 1'
_cell_length_a   8.75079024
_cell_length_b   12.60667412
_cell_length_c   13.57400000
_cell_angle_alpha   90.00000000
_cell_angle_beta   90.00000000
_cell_angle_gamma   90.00000000
_symmetry_Int_Tables_number   1
_chemical_formula_structural   Cd2PH16C7NCl2O7
_chemical_formula_sum   'Cd8 P4 H64 C28 N4 Cl8 O28'
_cell_volume   1497.46143090
_cell_formula_units_Z   4
loop_
 _symmetry_equiv_pos_site_id
 _symmetry_equiv_pos_as_xyz
  1  'x, y, z'
loop_
 _atom_site_type_symbol
 _atom_site_label
 _atom_site_symmetry_multiplicity
 _atom_site_fract_x
 _atom_site_fract_y
 _atom_site_fract_z
 _atom_site_occupancy
 _atom_site_pbe_bader_charge
 _atom_site_pbe_bader_spin_density
 _atom_site_pbe_cm5_charge
 _atom_site_pbe_ddec_charge
 _atom_site_pbe_ddec_spin_density
 _atom_site_pbe_ddec_sum_bond_order
 _atom_site_pbe_magmom
Cd  Cd0  1  0.77388782  0.85747596  0.66800943  1  1.279153  0  0.687299  0.997497  0  2.254193  0
Cd  Cd1  1  0.72611042  0.14252371  0.16801017  1  1.279119  0  0.6873  0.997511  0  2.254161  0
Cd  Cd2  1  0.22611101  0.35747652  0.83199057  1  1.279087  0  0.687304  0.997492  0  2.254246  0
Cd  Cd3  1  0.27388955  0.64252474  0.33198983  1  1.279164  0  0.687312  0.997546  0  2.254166  0
Cd  Cd4  1  0.77463518  0.94416338  0.41150877  1  1.293774  0  0.69258  1.031808  0  2.247113  0
Cd  Cd5  1  0.72536420  0.05583709  0.91150877  1  1.293756  0  0.692578  1.031805  0  2.247124  0
Cd  Cd6  1  0.22536593  0.44416314  0.08849123  1  1.293771  0  0.692567  1.031789  0  2.247136  0
Cd  Cd7  1  0.27463577  0.55583653  0.58849050  1  1.293766  0  0.692558  1.031781  0  2.247137  0
P  P8  1  0.96754462  0.71426928  0.48794460  1  3.374367  0  0.323889  1.276926  0  5.411564  0
P  P9  1  0.53245591  0.28573119  0.98794460  1  3.374471  0  0.323914  1.276937  0  5.411544  0
P  P10  1  0.03245650  0.21426984  0.01205761  1  3.374286  0  0.32392  1.276954  0  5.41154  0
P  P11  1  0.46754520  0.78573063  0.51205540  1  3.374415  0  0.32392  1.276998  0  5.411491  0
H  H12  1  0.70871085  0.65150808  0.44330043  1  0.13051  0  0.123147  0.155492  0  0.989281  0
H  H13  1  0.79128968  0.34849239  0.94329969  1  0.130499  0  0.123157  0.155499  0  0.989263  0
H  H14  1  0.29129026  0.15150784  0.05670031  1  0.130491  0  0.123149  0.155488  0  0.989281  0
H  H15  1  0.20871144  0.84849183  0.55670031  1  0.130509  0  0.123157  0.155509  0  0.989281  0
H  H16  1  0.85206476  0.61539308  0.35602107  1  0.114675  0  0.113863  0.139517  0  1.008855  0
H  H17  1  0.64793577  0.38460739  0.85602033  1  0.114663  0  0.113869  0.13953  0  1.008859  0
H  H18  1  0.14793750  0.11539285  0.14398040  1  0.11465  0  0.113857  0.139513  0  1.00888  0
H  H19  1  0.35206535  0.88460683  0.64397967  1  0.114659  0  0.113879  0.139564  0  1.008888  0
H  H20  1  0.64019018  0.51506765  0.56828201  1  0.0984  0  0.104416  0.100356  0  1.010242  0
H  H21  1  0.85981263  0.48493361  0.06827980  1  0.098359  0  0.104399  0.100342  0  1.010305  0
H  H22  1  0.35981093  0.01506583  0.93172020  1  0.098387  0  0.104398  0.100333  0  1.010266  0
H  H23  1  0.14018734  0.98493146  0.43172020  1  0.098343  0  0.104398  0.100332  0  1.010242  0
H  H24  1  0.80274236  0.57894175  0.62091277  1  0.108702  0  0.116291  0.116875  0  0.991153  0
H  H25  1  0.69726274  0.42105951  0.12091130  1  0.108661  0  0.116268  0.116925  0  0.99112  0
H  H26  1  0.19726218  0.07894152  0.87908870  1  0.108702  0  0.116277  0.116908  0  0.991139  0
H  H27  1  0.30273837  0.92105815  0.37908944  1  0.108636  0  0.116273  0.116886  0  0.99115  0
H  H28  1  0.74954945  0.40224011  0.70052822  1  0.093963  0  0.101517  0.102523  0  0.987052  0
H  H29  1  0.75045337  0.59775956  0.20052822  1  0.093977  0  0.101506  0.102528  0  0.98706  0
H  H30  1  0.25045052  0.90224114  0.79947178  1  0.093969  0  0.101517  0.102547  0  0.987034  0
H  H31  1  0.24954775  0.09775774  0.29947326  1  0.093987  0  0.101522  0.102545  0  0.987038  0
H  H32  1  0.62565092  0.31609685  0.56515913  1  0.047651  0  0.086659  0.08363  0  1.010792  0
H  H33  1  0.87435075  0.68390361  0.06515913  1  0.04762  0  0.086632  0.083607  0  1.010781  0
H  H34  1  0.37434791  0.81609629  0.93484014  1  0.047659  0  0.086662  0.083645  0  1.010779  0
H  H35  1  0.12564922  0.18390338  0.43484014  1  0.047626  0  0.086638  0.083605  0  1.010796  0
H  H36  1  0.78388349  0.23606543  0.59824444  1  0.065734  0  0.083978  0.096869  0  1.024537  0
H  H37  1  0.71611704  0.76393583  0.09824517  1  0.065741  0  0.083983  0.096881  0  1.024508  0
H  H38  1  0.21611534  0.73606487  0.90175483  1  0.065739  0  0.083974  0.096866  0  1.024544  0
H  H39  1  0.28388293  0.26393401  0.40175409  1  0.065762  0  0.083995  0.096893  0  1.024534  0
H  H40  1  0.93405964  0.30375577  0.45797038  1  0.027833  0  0.091217  0.088021  0  1.001035  0
H  H41  1  0.56594089  0.69624470  0.95797186  1  0.027834  0  0.091213  0.088011  0  1.001049  0
H  H42  1  0.06593919  0.80375521  0.04202888  1  0.027819  0  0.091196  0.087994  0  1.001049  0
H  H43  1  0.43405908  0.19624446  0.54202814  1  0.027844  0  0.091204  0.088009  0  1.001007  0
H  H44  1  0.75490896  0.25898742  0.41404523  1  0.051521  0  0.098627  0.109473  0  0.985937  0
H  H45  1  0.74509042  0.74101384  0.91404523  1  0.051515  0  0.098595  0.109447  0  0.9859  0
H  H46  1  0.24508987  0.75898686  0.08595403  1  0.051528  0  0.098606  0.109446  0  0.985918  0
H  H47  1  0.25490841  0.24101361  0.58595477  1  0.051509  0  0.098616  0.10947  0  0.985996  0
H  H48  1  0.83772891  0.43603094  0.34242743  1  0.098233  0  0.10301  0.098613  0  1.011821  0
H  H49  1  0.66227162  0.56397032  0.84242670  1  0.098222  0  0.103003  0.098583  0  1.011833  0
H  H50  1  0.16227106  0.93602959  0.15757330  1  0.098222  0  0.103006  0.098587  0  1.011816  0
H  H51  1  0.33772836  0.06397008  0.65757330  1  0.098202  0  0.103  0.098584  0  1.01182  0
H  H52  1  0.65656470  0.44246404  0.40387358  1  0.112935  0  0.09677  0.098291  0  1.015262  0
H  H53  1  0.84343583  0.55753722  0.90387285  1  0.112927  0  0.096774  0.098288  0  1.015226  0
H  H54  1  0.34343527  0.94246269  0.09612715  1  0.112932  0  0.096751  0.098254  0  1.015316  0
H  H55  1  0.15656415  0.05753619  0.59612715  1  0.112921  0  0.096775  0.098288  0  1.015221  0
H  H56  1  0.95360302  0.49736512  0.49542287  1  0.504063  0  0.312923  0.250254  0  0.954549  0
H  H57  1  0.54639865  0.50263535  0.99542287  1  0.504079  0  0.312912  0.250218  0  0.954568  0
H  H58  1  0.04639810  0.99736535  0.00457787  1  0.504073  0  0.312923  0.250186  0  0.954624  0
H  H59  1  0.45360246  0.00263591  0.50457640  1  0.504068  0  0.312931  0.250232  0  0.954565  0
H  H60  1  0.56589403  0.75228327  0.77847797  1  0.574831  0  0.297622  0.377327  0  0.925129  0
H  H61  1  0.93410649  0.24771720  0.27847797  1  0.574823  0  0.297611  0.377302  0  0.925157  0
H  H62  1  0.43410022  0.25228145  0.72152203  1  0.574824  0  0.297615  0.377285  0  0.925153  0
H  H63  1  0.06589233  0.74771664  0.22152203  1  0.574843  0  0.297621  0.377328  0  0.925133  0
H  H64  1  0.55968660  0.69564422  0.67506041  1  0.642184  0  0.285277  0.389001  0  0.955637  0
H  H65  1  0.94031393  0.30435545  0.17506041  1  0.642189  0  0.285276  0.389003  0  0.955641  0
H  H66  1  0.44030995  0.19564399  0.82494033  1  0.642194  0  0.285288  0.389001  0  0.955638  0
H  H67  1  0.05968604  0.80435569  0.32493959  1  0.642189  0  0.285277  0.38902  0  0.955613  0
H  H68  1  0.63455641  0.87841884  0.22735818  1  0.619229  0  0.279604  0.376675  0  0.950916  0
H  H69  1  0.86544412  0.12158163  0.72735818  1  0.619234  0  0.279631  0.376714  0  0.95086  0
H  H70  1  0.36544357  0.37841781  0.27264034  1  0.619242  0  0.279649  0.376727  0  0.950852  0
H  H71  1  0.13455585  0.62158266  0.77264108  1  0.619247  0  0.279629  0.376728  0  0.95084  0
H  H72  1  0.56793499  0.80812432  0.31671799  1  0.660581  0  0.291929  0.404743  0  0.923577  0
H  H73  1  0.93206554  0.19187535  0.81671799  1  0.660587  0  0.291917  0.404722  0  0.923607  0
H  H74  1  0.43206841  0.30812330  0.18328127  1  0.660554  0  0.291902  0.404725  0  0.923602  0
H  H75  1  0.06793329  0.69187558  0.68328054  1  0.660564  0  0.291908  0.404725  0  0.923606  0
C  C76  1  0.82609911  0.62251946  0.43485413  1  -0.29267  0  -0.072003  -0.364264  0  3.751548  0
C  C77  1  0.67390257  0.37748100  0.93485340  1  -0.292663  0  -0.071994  -0.364257  0  3.751503  0
C  C78  1  0.17390315  0.12251923  0.06514734  1  -0.292471  0  -0.071996  -0.364263  0  3.751541  0
C  C79  1  0.32609855  0.87748044  0.56514660  1  -0.292661  0  -0.071997  -0.364315  0  3.751563  0
C  C80  1  0.76404871  0.50953407  0.57934286  1  0.200636  0  -0.066622  -0.086088  0  3.743333  0
C  C81  1  0.73595410  0.49046639  0.07934139  1  0.200717  0  -0.066562  -0.0861  0  3.743325  0
C  C82  1  0.23595240  0.00953384  0.92065788  1  0.200658  0  -0.066569  -0.08606  0  3.743232  0
C  C83  1  0.26404587  0.99046504  0.42065788  1  0.200758  0  -0.066552  -0.086003  0  3.743184  0
C  C84  1  0.80775448  0.40548046  0.62909459  1  -0.02097  0  -0.091963  -0.140342  0  3.867952  0
C  C85  1  0.69224834  0.59451921  0.12909386  1  -0.021266  0  -0.091963  -0.140433  0  3.867929  0
C  C86  1  0.19224549  0.90548069  0.87090614  1  -0.020974  0  -0.091989  -0.140422  0  3.867928  0
C  C87  1  0.30775278  0.09451977  0.37090541  1  -0.02102  0  -0.091991  -0.140455  0  3.867878  0
C  C88  1  0.75151041  0.31229490  0.56546265  1  -0.049169  0  -0.166226  -0.161215  0  3.901958  0
C  C89  1  0.74849240  0.68770557  0.06546265  1  -0.048908  0  -0.166233  -0.161192  0  3.901922  0
C  C90  1  0.24848956  0.81229434  0.93453661  1  -0.049188  0  -0.166238  -0.161237  0  3.901931  0
C  C91  1  0.25150871  0.18770454  0.43453735  1  -0.049185  0  -0.16624  -0.161207  0  3.901991  0
C  C92  1  0.81031882  0.31980045  0.45966185  1  -0.005643  0  -0.166278  -0.165597  0  3.919708  0
C  C93  1  0.68968057  0.68019923  0.95966185  1  -0.00564  0  -0.166255  -0.165612  0  3.919708  0
C  C94  1  0.18968001  0.81980068  0.04033815  1  -0.005638  0  -0.166256  -0.165589  0  3.919683  0
C  C95  1  0.31031826  0.18019979  0.54033815  1  -0.005628  0  -0.166244  -0.165624  0  3.919732  0
C  C96  1  0.77943818  0.42798520  0.41349639  1  0.164592  0  -0.069079  -0.065266  0  3.756062  0
C  C97  1  0.72056235  0.57201606  0.91349565  1  0.164601  0  -0.069042  -0.065166  0  3.755961  0
C  C98  1  0.22056294  0.92798385  0.08650435  1  0.164601  0  -0.069011  -0.065124  0  3.755996  0
C  C99  1  0.27943648  0.07201503  0.58650435  1  0.164622  0  -0.069064  -0.065187  0  3.755959  0
C  C100  1  0.97998235  0.40079247  0.65011493  1  1.566273  0  0.218356  0.621968  0  4.112389  0
C  C101  1  0.52002046  0.59920641  0.15011345  1  1.566442  0  0.218397  0.622101  0  4.112013  0
C  C102  1  0.02001876  0.90079428  0.84988434  1  1.566066  0  0.218345  0.621995  0  4.112365  0
C  C103  1  0.47997951  0.09920459  0.34988581  1  1.566343  0  0.218474  0.622184  0  4.111942  0
N  N104  1  0.83818259  0.51478447  0.47947105  1  -1.023218  0  -0.350897  0.03565  0  3.571443  0
N  N105  1  0.66182023  0.48521600  0.97947031  1  -1.023237  0  -0.350931  0.035629  0  3.57145  0
N  N106  1  0.16181853  0.01478344  0.02052969  1  -1.023221  0  -0.350926  0.035664  0  3.571443  0
N  N107  1  0.33818089  0.98521623  0.52053043  1  -1.023217  0  -0.350955  0.035586  0  3.571492  0
Cl  Cl108  1  0.56813840  0.95653460  0.77858774  1  -0.640266  0  -0.276891  -0.535053  0  1.265676  0
Cl  Cl109  1  0.93186098  0.04346587  0.27858774  1  -0.640256  0  -0.276894  -0.535055  0  1.265668  0
Cl  Cl110  1  0.43186043  0.45653357  0.72141152  1  -0.64026  0  -0.276889  -0.535044  0  1.265656  0
Cl  Cl111  1  0.06814013  0.54346610  0.22141152  1  -0.64026  0  -0.276891  -0.535053  0  1.265662  0
Cl  Cl112  1  0.87267547  0.02858645  0.57841904  1  -0.63862  0  -0.268748  -0.515142  0  1.245913  0
Cl  Cl113  1  0.62732392  0.97141402  0.07841904  1  -0.638566  0  -0.268751  -0.515145  0  1.24592  0
Cl  Cl114  1  0.12732450  0.52858589  0.92158023  1  -0.638562  0  -0.268751  -0.515144  0  1.245926  0
Cl  Cl115  1  0.37267491  0.47141458  0.42157949  1  -0.638612  0  -0.268759  -0.515164  0  1.245938  0
O  O116  1  0.12208383  0.65592320  0.47560704  1  -1.444688  0  -0.396437  -0.786556  0  2.35823  0
O  O117  1  0.37791787  0.34407806  0.97560631  1  -1.444705  0  -0.396462  -0.786574  0  2.358205  0
O  O118  1  0.87791843  0.15592138  0.02439443  1  -1.444705  0  -0.396466  -0.786553  0  2.35816  0
O  O119  1  0.62208439  0.84407671  0.52439222  1  -1.444663  0  -0.396456  -0.786587  0  2.358224  0
O  O120  1  0.93169528  0.73280946  0.59696552  1  -1.448887  0  -0.378332  -0.742618  0  2.295299  0
O  O121  1  0.56830639  0.26719022  0.09696479  1  -1.448946  0  -0.378315  -0.742612  0  2.295289  0
O  O122  1  0.06830583  0.23280922  0.90303448  1  -1.448905  0  -0.378356  -0.742672  0  2.295246  0
O  O123  1  0.43169473  0.76719124  0.40303374  1  -1.448941  0  -0.378344  -0.742654  0  2.295284  0
O  O124  1  0.95955562  0.81479698  0.42399440  1  -1.447708  0  -0.381473  -0.757533  0  2.321317  0
O  O125  1  0.54044490  0.18520349  0.92399293  1  -1.447705  0  -0.381476  -0.757509  0  2.321289  0
O  O126  1  0.04044663  0.31479675  0.07600707  1  -1.447742  0  -0.381442  -0.75749  0  2.321405  0
O  O127  1  0.45955507  0.68520293  0.57600560  1  -1.447709  0  -0.381476  -0.75752  0  2.321272  0
O  O128  1  0.06995597  0.43960365  0.58443495  1  -1.192898  0  -0.334857  -0.596387  0  2.332488  0
O  O129  1  0.43004688  0.56039602  0.08443495  1  -1.193041  0  -0.334822  -0.596365  0  2.332583  0
O  O130  1  0.93004400  0.93960468  0.91556431  1  -1.192833  0  -0.334846  -0.596374  0  2.332485  0
O  O131  1  0.56995424  0.06039499  0.41556652  1  -1.19297  0  -0.334879  -0.596418  0  2.332425  0
O  O132  1  0.02079241  0.35850058  0.72990718  1  -1.177263  0  -0.326564  -0.554685  0  2.324316  0
O  O133  1  0.47921044  0.64149830  0.22990791  1  -1.177247  0  -0.326636  -0.554811  0  2.323934  0
O  O134  1  0.97920871  0.85850319  0.77009209  1  -1.177103  0  -0.326554  -0.554691  0  2.324263  0
O  O135  1  0.52078839  0.14149727  0.27009209  1  -1.177236  0  -0.326659  -0.554839  0  2.324053  0
O  O136  1  0.63015337  0.71381713  0.73175556  1  -1.194289  0  -0.577399  -0.73191  0  2.07905  0
O  O137  1  0.86984601  0.28618254  0.23175704  1  -1.194298  0  -0.577397  -0.731903  0  2.079065  0
O  O138  1  0.36984088  0.21381611  0.76824517  1  -1.194302  0  -0.577408  -0.73186  0  2.079151  0
O  O139  1  0.13015396  0.78618277  0.26824296  1  -1.194321  0  -0.577403  -0.731934  0  2.079053  0
O  O140  1  0.66126371  0.84257036  0.28909975  1  -1.253559  0  -0.585194  -0.748842  0  2.08593  0
O  O141  1  0.83873796  0.15743010  0.78910049  1  -1.253564  0  -0.585203  -0.748848  0  2.085913  0
O  O142  1  0.33873741  0.34257092  0.21090025  1  -1.253542  0  -0.585205  -0.748868  0  2.085902  0
O  O143  1  0.16126315  0.65742954  0.71089878  1  -1.253551  0  -0.585192  -0.748872  0  2.085874  0
