# generated using pymatgen
data_CdH16C16(N4Cl)2
_symmetry_space_group_name_H-M   'P 1'
_cell_length_a   7.53410119
_cell_length_b   8.09911152
_cell_length_c   16.99438568
_cell_angle_alpha   90.00007673
_cell_angle_beta   90.00004472
_cell_angle_gamma   112.90600096
_symmetry_Int_Tables_number   1
_chemical_formula_structural   CdH16C16(N4Cl)2
_chemical_formula_sum   'Cd2 H32 C32 N16 Cl4'
_cell_volume   955.21719072
_cell_formula_units_Z   2
loop_
 _symmetry_equiv_pos_site_id
 _symmetry_equiv_pos_as_xyz
  1  'x, y, z'
loop_
 _atom_site_type_symbol
 _atom_site_label
 _atom_site_symmetry_multiplicity
 _atom_site_fract_x
 _atom_site_fract_y
 _atom_site_fract_z
 _atom_site_occupancy
 _atom_site_hle17_bader_spin_density
 _atom_site_hle17_ddec_charge
 _atom_site_hle17_ddec_spin_density
 _atom_site_hle17_ddec_sum_bond_order
 _atom_site_hle17_magmom
 _atom_site_hse06_10hf_bader_spin_density
 _atom_site_hse06_10hf_ddec_charge
 _atom_site_hse06_10hf_ddec_spin_density
 _atom_site_hse06_10hf_ddec_sum_bond_order
 _atom_site_hse06_10hf_magmom
 _atom_site_hse06_bader_spin_density
 _atom_site_hse06_ddec_charge
 _atom_site_hse06_ddec_spin_density
 _atom_site_hse06_ddec_sum_bond_order
 _atom_site_hse06_magmom
 _atom_site_pbe_bader_spin_density
 _atom_site_pbe_cm5_charge
 _atom_site_pbe_ddec_charge
 _atom_site_pbe_ddec_spin_density
 _atom_site_pbe_ddec_sum_bond_order
 _atom_site_pbe_magmom
Cd  Cd0  1  0.99999965  0.99999898  0.50000033  1  0  0.937657  0  1.97583  0  0  0.74815  0  2.436497  0  0  0.7957  0  2.397486  0  0  0.670605  0.714829  0  2.462809  0
Cd  Cd1  1  0.00000099  0.50000028  0.00000016  1  0  0.937685  0  1.975819  0  0  0.748193  0  2.436487  0  0  0.795744  0  2.397476  0  0  0.670618  0.714871  0  2.462786  0
H  H2  1  0.50160522  0.84483854  0.45178898  1  0  0.107972  0  0.968933  0  0  0.111347  0  1.044694  0  0  0.114477  0  1.040369  0  0  0.124714  0.109007  0  1.047743  0
H  H3  1  0.49839243  0.65516121  0.95178934  1  0  0.107949  0  0.968904  0  0  0.111334  0  1.044666  0  0  0.114464  0  1.04034  0  0  0.124717  0.108994  0  1.047715  0
H  H4  1  0.49839301  0.15515608  0.54821236  1  0  0.108014  0  0.968898  0  0  0.111424  0  1.044625  0  0  0.114559  0  1.04029  0  0  0.124762  0.109083  0  1.047678  0
H  H5  1  0.50160713  0.34484281  0.04821141  1  0  0.108026  0  0.968892  0  0  0.111428  0  1.044617  0  0  0.114567  0  1.040275  0  0  0.124764  0.10909  0  1.047671  0
H  H6  1  0.19138681  0.60008732  0.41385808  1  0  0.101115  0  0.943201  0  0  0.114341  0  1.010584  0  0  0.115681  0  1.009525  0  0  0.111395  0.113302  0  1.011414  0
H  H7  1  0.80860958  0.89990959  0.91385753  1  0  0.101152  0  0.943147  0  0  0.114357  0  1.010551  0  0  0.115697  0  1.009492  0  0  0.111389  0.113319  0  1.01138  0
H  H8  1  0.80861332  0.39990863  0.58614149  1  0  0.101141  0  0.943198  0  0  0.114329  0  1.010589  0  0  0.115666  0  1.009531  0  0  0.111371  0.113292  0  1.011418  0
H  H9  1  0.19138696  0.10009041  0.08614204  1  0  0.101149  0  0.94322  0  0  0.114351  0  1.010598  0  0  0.115689  0  1.009538  0  0  0.111383  0.113312  0  1.011431  0
H  H10  1  0.18446260  0.38116427  0.40228478  1  0  0.108864  0  0.938199  0  0  0.117035  0  1.012395  0  0  0.118239  0  1.011884  0  0  0.115019  0.116173  0  1.012745  0
H  H11  1  0.81553612  0.11883606  0.90228522  1  0  0.108852  0  0.9382  0  0  0.11703  0  1.0124  0  0  0.118235  0  1.011887  0  0  0.115017  0.116172  0  1.012741  0
H  H12  1  0.81553734  0.61883438  0.59771539  1  0  0.10889  0  0.9382  0  0  0.117041  0  1.012383  0  0  0.118242  0  1.011872  0  0  0.115034  0.116182  0  1.012733  0
H  H13  1  0.18446363  0.88116527  0.09771553  1  0  0.108894  0  0.938199  0  0  0.117056  0  1.01238  0  0  0.118257  0  1.011869  0  0  0.115033  0.116201  0  1.012719  0
H  H14  1  0.50384273  0.59259716  0.24966509  1  0  0.112249  0  0.947551  0  0  0.121608  0  1.006363  0  0  0.125046  0  1.005402  0  0  0.107583  0.119151  0  1.007184  0
H  H15  1  0.49615687  0.90740177  0.74966443  1  0  0.112255  0  0.947532  0  0  0.121602  0  1.006359  0  0  0.125042  0  1.005394  0  0  0.107583  0.119125  0  1.007201  0
H  H16  1  0.49615740  0.40739880  0.75033508  1  0  0.112224  0  0.947578  0  0  0.121581  0  1.006391  0  0  0.12502  0  1.005429  0  0  0.107594  0.119117  0  1.007219  0
H  H17  1  0.50384269  0.09260225  0.25033456  1  0  0.112241  0  0.947572  0  0  0.121598  0  1.00638  0  0  0.125036  0  1.005419  0  0  0.107597  0.119123  0  1.007224  0
H  H18  1  0.40781475  0.59519846  0.10988538  1  0  0.078351  0  0.951657  0  0  0.081378  0  1.026915  0  0  0.083868  0  1.023937  0  0  0.106809  0.079465  0  1.029178  0
H  H19  1  0.59218570  0.90479989  0.60988475  1  0  0.078259  0  0.951698  0  0  0.081329  0  1.026925  0  0  0.083819  0  1.023947  0  0  0.106791  0.079416  0  1.029187  0
H  H20  1  0.59218595  0.40479883  0.89011479  1  0  0.078286  0  0.9517  0  0  0.081353  0  1.026918  0  0  0.083845  0  1.023939  0  0  0.106787  0.079439  0  1.029176  0
H  H21  1  0.40781595  0.09520277  0.39011482  1  0  0.078313  0  0.95162  0  0  0.081353  0  1.026887  0  0  0.083843  0  1.02391  0  0  0.106791  0.07944  0  1.029156  0
H  H22  1  0.83883068  0.47538517  0.17118272  1  0  0.071438  0  0.955162  0  0  0.078349  0  1.020975  0  0  0.080801  0  1.018722  0  0  0.105914  0.076552  0  1.022588  0
H  H23  1  0.16117217  0.02461957  0.67118405  1  0  0.071403  0  0.955188  0  0  0.078343  0  1.020975  0  0  0.080794  0  1.018723  0  0  0.105895  0.076544  0  1.022586  0
H  H24  1  0.16117210  0.52461077  0.82881627  1  0  0.071471  0  0.955193  0  0  0.078391  0  1.020995  0  0  0.080843  0  1.018742  0  0  0.10591  0.076594  0  1.022609  0
H  H25  1  0.83882910  0.97538847  0.32881670  1  0  0.071454  0  0.955203  0  0  0.078377  0  1.021005  0  0  0.080829  0  1.018753  0  0  0.105902  0.076576  0  1.022618  0
H  H26  1  0.90774063  0.45456389  0.31365742  1  0  0.109639  0  0.964685  0  0  0.118522  0  1.027123  0  0  0.12148  0  1.026469  0  0  0.104208  0.116352  0  1.027817  0
H  H27  1  0.09225683  0.04544012  0.81365933  1  0  0.109684  0  0.964649  0  0  0.118572  0  1.027075  0  0  0.121531  0  1.02642  0  0  0.104231  0.1164  0  1.027769  0
H  H28  1  0.09225949  0.54543207  0.68634157  1  0  0.10963  0  0.964665  0  0  0.118557  0  1.027057  0  0  0.121515  0  1.026402  0  0  0.104204  0.116382  0  1.027758  0
H  H29  1  0.90773989  0.95456660  0.18634142  1  0  0.109662  0  0.964631  0  0  0.118578  0  1.027029  0  0  0.121536  0  1.026375  0  0  0.104232  0.116406  0  1.027727  0
H  H30  1  0.85173390  0.54979116  0.43138279  1  0  0.091249  0  0.957214  0  0  0.097785  0  1.026466  0  0  0.100141  0  1.023424  0  0  0.121877  0.095934  0  1.028832  0
H  H31  1  0.14826501  0.95020850  0.93138322  1  0  0.091243  0  0.957223  0  0  0.097776  0  1.026475  0  0  0.100132  0  1.023432  0  0  0.121868  0.095905  0  1.028864  0
H  H32  1  0.14826737  0.45020748  0.56861561  1  0  0.091253  0  0.957184  0  0  0.09778  0  1.026447  0  0  0.100136  0  1.023403  0  0  0.121878  0.095895  0  1.028846  0
H  H33  1  0.85173209  0.04979284  0.06861576  1  0  0.091279  0  0.95719  0  0  0.097812  0  1.026446  0  0  0.100168  0  1.0234  0  0  0.12189  0.095947  0  1.028823  0
C  C34  1  0.55882464  0.74492236  0.43670986  1  0  0.170901  0  3.641749  0  0  0.093174  0  3.904921  0  0  0.107861  0  3.916021  0  0  0.157621  0.083933  0  3.897053  0
C  C35  1  0.44117220  0.75507867  0.93671026  1  0  0.170958  0  3.641724  0  0  0.093183  0  3.904907  0  0  0.107872  0  3.916005  0  0  0.157636  0.083944  0  3.897042  0
C  C36  1  0.44117549  0.25507359  0.56329148  1  0  0.170813  0  3.641724  0  0  0.093012  0  3.904909  0  0  0.107697  0  3.916016  0  0  0.157509  0.083772  0  3.897041  0
C  C37  1  0.55882471  0.24492536  0.06329108  1  0  0.170756  0  3.641758  0  0  0.093  0  3.904923  0  0  0.107685  0  3.916032  0  0  0.157542  0.083749  0  3.897066  0
C  C38  1  0.25378514  0.51933087  0.38027992  1  0  -0.076723  0  3.647793  0  0  -0.152006  0  3.886974  0  0  -0.149103  0  3.896163  0  0  -0.043994  -0.153632  0  3.880525  0
C  C39  1  0.74621095  0.98066860  0.88027999  1  0  -0.076752  0  3.647712  0  0  -0.152034  0  3.886908  0  0  -0.149143  0  3.896119  0  0  -0.043993  -0.153665  0  3.880459  0
C  C40  1  0.74621556  0.48066642  0.61971966  1  0  -0.076787  0  3.647839  0  0  -0.151953  0  3.886861  0  0  -0.149045  0  3.896051  0  0  -0.044  -0.153587  0  3.88042  0
C  C41  1  0.25378540  0.01933410  0.11972018  1  0  -0.076833  0  3.647881  0  0  -0.152018  0  3.886953  0  0  -0.149112  0  3.896145  0  0  -0.043999  -0.153657  0  3.880512  0
C  C42  1  0.21340946  0.52463552  0.29377546  1  0  0.144512  0  3.711225  0  0  0.158356  0  3.95256  0  0  0.163021  0  3.974856  0  0  0.01227  0.155503  0  3.937194  0
C  C43  1  0.78658822  0.97536494  0.79377672  1  0  0.144562  0  3.710986  0  0  0.158378  0  3.95238  0  0  0.163046  0  3.97467  0  0  0.012323  0.155526  0  3.937005  0
C  C44  1  0.78659142  0.47535909  0.70622352  1  0  0.144546  0  3.711116  0  0  0.158318  0  3.952485  0  0  0.162982  0  3.974779  0  0  0.012295  0.155468  0  3.937114  0
C  C45  1  0.21340737  0.02463910  0.20622403  1  0  0.144568  0  3.711126  0  0  0.158367  0  3.952487  0  0  0.163031  0  3.974779  0  0  0.012307  0.155519  0  3.937114  0
C  C46  1  0.35383900  0.56367472  0.23518262  1  0  -0.173435  0  3.706605  0  0  -0.194631  0  3.957307  0  0  -0.202677  0  3.977965  0  0  -0.089242  -0.189375  0  3.943317  0
C  C47  1  0.64615791  0.93632416  0.73518086  1  0  -0.1734  0  3.706537  0  0  -0.194567  0  3.957256  0  0  -0.202613  0  3.977914  0  0  -0.089226  -0.18929  0  3.943265  0
C  C48  1  0.64615924  0.43631990  0.76481813  1  0  -0.173345  0  3.706518  0  0  -0.19452  0  3.957247  0  0  -0.202566  0  3.977906  0  0  -0.089236  -0.189263  0  3.943257  0
C  C49  1  0.35384222  0.06368120  0.26481872  1  0  -0.173484  0  3.706517  0  0  -0.19465  0  3.957246  0  0  -0.202697  0  3.977904  0  0  -0.089309  -0.189377  0  3.943263  0
C  C50  1  0.30038493  0.56467934  0.15660843  1  0  0.139956  0  3.717791  0  0  0.108594  0  3.977663  0  0  0.116835  0  3.994723  0  0  0.045908  0.10329  0  3.966027  0
C  C51  1  0.69962079  0.93532186  0.65660904  1  0  0.139996  0  3.717828  0  0  0.10858  0  3.977737  0  0  0.116818  0  3.994803  0  0  0.045864  0.103275  0  3.9661  0
C  C52  1  0.69961974  0.43531793  0.84339115  1  0  0.13991  0  3.717856  0  0  0.108503  0  3.97775  0  0  0.11674  0  3.994817  0  0  0.045859  0.103202  0  3.966103  0
C  C53  1  0.30038067  0.06468349  0.34339171  1  0  0.140011  0  3.717776  0  0  0.108583  0  3.977699  0  0  0.116822  0  3.994766  0  0  0.045907  0.103273  0  3.966063  0
C  C54  1  0.98359742  0.49656847  0.19125114  1  0  0.126722  0  3.744102  0  0  0.098203  0  3.993567  0  0  0.105133  0  4.012842  0  0  0.037823  0.093776  0  3.980453  0
C  C55  1  0.01640361  0.00343502  0.69125300  1  0  0.126815  0  3.744162  0  0  0.098289  0  3.993614  0  0  0.10522  0  4.012889  0  0  0.037851  0.093866  0  3.980496  0
C  C56  1  0.01640593  0.50342881  0.80874785  1  0  0.126699  0  3.744058  0  0  0.09817  0  3.993523  0  0  0.105101  0  4.012798  0  0  0.037848  0.093736  0  3.980415  0
C  C57  1  0.98359369  0.99657304  0.30874775  1  0  0.126723  0  3.743981  0  0  0.098172  0  3.993451  0  0  0.105103  0  4.012726  0  0  0.037843  0.093747  0  3.980333  0
C  C58  1  0.02351243  0.48859395  0.27049597  1  0  -0.172543  0  3.708243  0  0  -0.187076  0  3.949071  0  0  -0.195593  0  3.971376  0  0  -0.088925  -0.181627  0  3.934173  0
C  C59  1  0.97648697  0.01140853  0.77049757  1  0  -0.172744  0  3.708237  0  0  -0.18729  0  3.949116  0  0  -0.195803  0  3.97141  0  0  -0.089023  -0.181839  0  3.934221  0
C  C60  1  0.97648903  0.51140200  0.72950302  1  0  -0.172585  0  3.708238  0  0  -0.187139  0  3.949074  0  0  -0.195656  0  3.971379  0  0  -0.088956  -0.181687  0  3.934181  0
C  C61  1  0.02351240  0.98859818  0.22950318  1  0  -0.172614  0  3.708196  0  0  -0.187171  0  3.949062  0  0  -0.195688  0  3.971367  0  0  -0.088988  -0.181721  0  3.934164  0
C  C62  1  0.73178058  0.59127241  0.42512307  1  0  0.190659  0  3.722764  0  0  0.135777  0  4.018738  0  0  0.147513  0  4.031251  0  0  0.13585  0.128297  0  4.009887  0
C  C63  1  0.26821774  0.90872588  0.92512293  1  0  0.190606  0  3.722831  0  0  0.135724  0  4.018802  0  0  0.147459  0  4.031316  0  0  0.135824  0.128255  0  4.00997  0
C  C64  1  0.26822144  0.40872487  0.57487650  1  0  0.190682  0  3.722687  0  0  0.135796  0  4.018665  0  0  0.14753  0  4.03118  0  0  0.135874  0.12834  0  4.009826  0
C  C65  1  0.73177880  0.09127412  0.07487606  1  0  0.19059  0  3.722766  0  0  0.135706  0  4.018743  0  0  0.147442  0  4.031255  0  0  0.135845  0.128233  0  4.009894  0
N  N66  1  0.56436238  0.48719586  0.39342077  1  0  -0.27339  0  2.837181  0  0  -0.27329  0  3.106769  0  0  -0.28121  0  3.120535  0  0  -0.224276  -0.267758  0  3.097447  0
N  N67  1  0.43563309  0.01280310  0.89342043  1  0  -0.27335  0  2.837139  0  0  -0.273266  0  3.106698  0  0  -0.281185  0  3.120464  0  0  -0.224248  -0.267727  0  3.097361  0
N  N68  1  0.43563831  0.51280143  0.60657821  1  0  -0.2733  0  2.837159  0  0  -0.273218  0  3.106735  0  0  -0.281137  0  3.120502  0  0  -0.224259  -0.267678  0  3.097393  0
N  N69  1  0.56436269  0.98719825  0.10657856  1  0  -0.27328  0  2.837117  0  0  -0.273176  0  3.106701  0  0  -0.281094  0  3.120467  0  0  -0.224215  -0.267641  0  3.097369  0
N  N70  1  0.73480360  0.75094473  0.45241096  1  0  -0.404591  0  3.221247  0  0  -0.332525  0  3.511563  0  0  -0.354267  0  3.526467  0  0  -0.35221  -0.317734  0  3.500714  0
N  N71  1  0.26519463  0.74905637  0.95241071  1  0  -0.404643  0  3.221329  0  0  -0.33257  0  3.511667  0  0  -0.354312  0  3.526572  0  0  -0.352216  -0.317764  0  3.500771  0
N  N72  1  0.26519710  0.24905257  0.54758921  1  0  -0.404581  0  3.221186  0  0  -0.332477  0  3.511447  0  0  -0.354221  0  3.526357  0  0  -0.352183  -0.317698  0  3.500627  0
N  N73  1  0.73480172  0.25094633  0.04758887  1  0  -0.404545  0  3.221219  0  0  -0.332465  0  3.511499  0  0  -0.354208  0  3.526409  0  0  -0.352188  -0.317672  0  3.500654  0
N  N74  1  0.45601334  0.58774773  0.40148580  1  0  0.047149  0  3.569876  0  0  0.170307  0  3.750685  0  0  0.159113  0  3.775758  0  0  -0.136034  0.176644  0  3.735431  0
N  N75  1  0.54398225  0.91225048  0.90148517  1  0  0.047191  0  3.569814  0  0  0.170428  0  3.750547  0  0  0.159234  0  3.775617  0  0  -0.136038  0.176753  0  3.735313  0
N  N76  1  0.54398679  0.41224822  0.59851436  1  0  0.047059  0  3.570007  0  0  0.170263  0  3.750709  0  0  0.159066  0  3.775782  0  0  -0.136022  0.176599  0  3.73546  0
N  N77  1  0.45601410  0.08775221  0.09851441  1  0  0.047145  0  3.569882  0  0  0.170285  0  3.750671  0  0  0.159087  0  3.775745  0  0  -0.136089  0.176625  0  3.735421  0
N  N78  1  0.11859423  0.53222402  0.13470880  1  0  -0.333722  0  3.254379  0  0  -0.260879  0  3.515603  0  0  -0.280201  0  3.53536  0  0  -0.33108  -0.247782  0  3.501934  0
N  N79  1  0.88140688  0.96777578  0.63470890  1  0  -0.33367  0  3.254249  0  0  -0.260839  0  3.515506  0  0  -0.280162  0  3.535269  0  0  -0.33104  -0.24775  0  3.501848  0
N  N80  1  0.88140666  0.46777059  0.86529078  1  0  -0.333654  0  3.254235  0  0  -0.260814  0  3.515489  0  0  -0.280133  0  3.535243  0  0  -0.331047  -0.247716  0  3.501815  0
N  N81  1  0.11859647  0.03223091  0.36529126  1  0  -0.333687  0  3.254217  0  0  -0.260786  0  3.515427  0  0  -0.280103  0  3.535175  0  0  -0.331016  -0.247686  0  3.501753  0
Cl  Cl82  1  0.80830560  0.19834206  0.46414114  1  0  -0.635201  0  0.778164  0  0  -0.578465  0  1.026243  0  0  -0.59403  0  1.007023  0  0  -0.356525  -0.566894  0  1.039313  0
Cl  Cl83  1  0.19169220  0.30165583  0.96414090  1  0  -0.635207  0  0.778163  0  0  -0.578468  0  1.026237  0  0  -0.594032  0  1.007014  0  0  -0.356529  -0.566902  0  1.039301  0
Cl  Cl84  1  0.19169416  0.80165927  0.53586079  1  0  -0.635204  0  0.778174  0  0  -0.578457  0  1.026239  0  0  -0.594021  0  1.007019  0  0  -0.356522  -0.566882  0  1.039306  0
Cl  Cl85  1  0.80830736  0.69833878  0.03585927  1  0  -0.635201  0  0.778162  0  0  -0.578475  0  1.026253  0  0  -0.594038  0  1.007032  0  0  -0.356536  -0.56691  0  1.03932  0
