# generated using pymatgen
data_Zn2H33C40N5O8
_symmetry_space_group_name_H-M   'P 1'
_cell_length_a   9.59256570
_cell_length_b   11.00525594
_cell_length_c   14.11434815
_cell_angle_alpha   90.57618217
_cell_angle_beta   80.20750465
_cell_angle_gamma   88.29175545
_symmetry_Int_Tables_number   1
_chemical_formula_structural   Zn2H33C40N5O8
_chemical_formula_sum   'Zn2 H33 C40 N5 O8'
_cell_volume   1467.49742789
_cell_formula_units_Z   1
loop_
 _symmetry_equiv_pos_site_id
 _symmetry_equiv_pos_as_xyz
  1  'x, y, z'
loop_
 _atom_site_type_symbol
 _atom_site_label
 _atom_site_symmetry_multiplicity
 _atom_site_fract_x
 _atom_site_fract_y
 _atom_site_fract_z
 _atom_site_occupancy
 _atom_site_pbe_bader_charge
 _atom_site_pbe_bader_spin_density
 _atom_site_pbe_cm5_charge
 _atom_site_pbe_ddec_charge
 _atom_site_pbe_ddec_spin_density
 _atom_site_pbe_ddec_sum_bond_order
 _atom_site_pbe_magmom
Zn  Zn0  1  0.87006958  0.50279168  0.48020455  1  1.280674  0  0.667146  0.805773  0  2.422541  0
Zn  Zn1  1  0.13934228  0.49653038  0.52027336  1  1.281012  0  0.671059  0.813126  0  2.454141  0
H  H2  1  0.00638350  0.49274071  0.00983723  1  0.058781  0  0.09802  0.115638  0  1.01828  0
H  H3  1  0.18023152  0.89228579  0.58780474  1  0.072396  0  0.096077  0.101286  0  1.01997  0
H  H4  1  0.66770530  0.89715936  0.49247011  1  0.010022  0  0.091179  0.058383  0  0.968158  0
H  H5  1  0.78212430  0.09604893  0.35265766  1  0.055928  0  0.095769  0.108033  0  0.989032  0
H  H6  1  0.67591095  0.11960586  0.46925649  1  0.016299  0  0.092055  0.102533  0  0.99655  0
H  H7  1  0.35423732  0.63360717  0.61427317  1  0.127416  0  0.134072  0.117398  0  0.975329  0
H  H8  1  0.62065623  0.64878507  0.58751503  1  0.147677  0  0.134972  0.116411  0  0.980723  0
H  H9  1  0.66171232  0.38650850  0.27606058  1  0.080765  0  0.110631  0.139481  0  0.982147  0
H  H10  1  0.67309887  0.26957529  0.36217517  1  0.082261  0  0.105922  0.125832  0  1.02739  0
H  H11  1  0.39657096  0.37152944  0.30200214  1  0.100602  0  0.113324  0.14147  0  0.975293  0
H  H12  1  0.40548135  0.25306051  0.38643865  1  0.089278  0  0.110343  0.132557  0  0.982484  0
H  H13  1  0.81819674  0.54420207  0.14346389  1  0.069801  0  0.09677  0.112556  0  1.03449  0
H  H14  1  0.94631989  0.68842464  0.19127185  1  0.079955  0  0.099357  0.105437  0  1.040913  0
H  H15  1  0.34457757  0.54078135  0.23803860  1  0.069995  0  0.098119  0.100337  0  1.080829  0
H  H16  1  0.51333749  0.66605389  0.83308585  1  0.05887  0  0.09745  0.10627  0  1.029039  0
H  H17  1  0.35188592  0.79794031  0.80551429  1  0.037345  0  0.091113  0.125142  0  0.998933  0
H  H18  1  0.18714450  0.72911290  0.83698646  1  0.043735  0  0.091681  0.122595  0  1.019848  0
H  H19  1  0.22335025  0.86528322  0.89761107  1  0.045197  0  0.098883  0.138425  0  0.98851  0
H  H20  1  0.18537876  0.21033676  0.62604206  1  0.073638  0  0.09294  0.141821  0  1.00227  0
H  H21  1  0.27452191  0.06562746  0.62810205  1  -0.009541  0  0.084482  0.115411  0  1.009118  0
H  H22  1  0.30640188  0.15908920  0.52479210  1  0.021063  0  0.085219  0.119695  0  1.024893  0
H  H23  1  0.85944273  0.87760548  0.29369681  1  0.03831  0  0.086692  0.121229  0  1.000882  0
H  H24  1  0.78728636  0.75261760  0.36158083  1  0.084055  0  0.08349  0.123012  0  1.044659  0
H  H25  1  0.67249761  0.86127309  0.31663421  1  0.028408  0  0.080181  0.106492  0  1.012368  0
H  H26  1  0.52597058  0.45502471  0.82079418  1  0.037492  0  0.083923  0.118615  0  1.021639  0
H  H27  1  0.60493891  0.54237303  0.72196446  1  0.013766  0  0.082004  0.107863  0  1.059559  0
H  H28  1  0.66099057  0.39082770  0.72974758  1  0.06687  0  0.094282  0.142605  0  0.989569  0
H  H29  1  0.15808764  0.45338166  0.76021943  1  0.4803  0  0.293699  0.305489  0  1.010619  0
H  H30  1  0.18990163  0.46685320  0.87918333  1  0.441062  0  0.305808  0.300899  0  0.948195  0
H  H31  1  0.92301609  0.75566586  0.04543351  1  0.44253  0  0.2997  0.294182  0  0.951573  0
H  H32  1  0.04983348  0.76221567  0.94848888  1  0.448461  0  0.297363  0.296103  0  0.97841  0
H  H33  1  0.48261004  0.66768130  0.25120987  1  0.444993  0  0.300783  0.294233  0  0.958651  0
H  H34  1  0.65225921  0.63257321  0.26122316  1  0.420456  0  0.30034  0.291387  0  0.961543  0
C  C35  1  0.00645451  0.26428262  0.48356457  1  1.539699  0  0.21556  0.602543  0  4.163644  0
C  C36  1  0.35049632  0.62716943  0.10004788  1  -0.008393  0  -0.009629  0.061917  0  3.9963  0
C  C37  1  0.26485846  0.68203320  0.03597470  1  -0.010858  0  -0.016706  -0.095515  0  3.889842  0
C  C38  1  0.50010642  0.59942556  0.06804561  1  0.003666  0  -0.016393  -0.080481  0  3.919272  0
C  C39  1  0.55096447  0.59232641  0.96786521  1  -0.058579  0  -0.008326  0.06407  0  4.017491  0
C  C40  1  0.46565731  0.65162675  0.90759351  1  -0.050992  0  -0.103127  -0.217047  0  3.989306  0
C  C41  1  0.33281929  0.70306918  0.93859025  1  -0.038044  0  -0.014088  0.132752  0  3.973476  0
C  C42  1  0.60241495  0.58542147  0.13211791  1  0.35271  0  0.090471  0.25886  0  4.085519  0
C  C43  1  0.74139889  0.55246064  0.09475591  1  -0.079977  0  -0.126195  -0.30483  0  3.994295  0
C  C44  1  0.78946156  0.53062105  0.99506794  1  -0.019714  0  -0.017  0.121745  0  4.137353  0
C  C45  1  0.69143113  0.54374834  0.92960864  1  0.000645  0  -0.029782  -0.086071  0  3.947754  0
C  C46  1  0.07679858  0.56227071  0.31934043  1  1.557607  0  0.215029  0.601809  0  4.145382  0
C  C47  1  0.93200557  0.50077100  0.95950426  1  0.010629  0  -0.130013  -0.309022  0  3.999624  0
C  C48  1  0.98303153  0.48971249  0.86106556  1  0.375952  0  0.099614  0.305566  0  4.115349  0
C  C49  1  0.73672838  0.50705039  0.83194754  1  -0.055331  0  0.00704  0.155511  0  3.876519  0
C  C50  1  0.89797992  0.06059170  0.47344256  1  -0.059785  0  -0.009242  0.061716  0  3.932537  0
C  C51  1  0.00429360  0.13045664  0.50041359  1  0.015444  0  -0.013503  -0.134106  0  3.911207  0
C  C52  1  0.10746393  0.06660726  0.54451600  1  0.017934  0  0.000977  0.161289  0  3.923787  0
C  C53  1  0.09999026  0.94007814  0.55471901  1  -0.05969  0  -0.092757  -0.173853  0  3.952657  0
C  C54  1  0.99495185  0.87028783  0.52432216  1  0.025058  0  -0.017915  -0.060044  0  4.004158  0
C  C55  1  0.89290896  0.93498851  0.48428692  1  -0.011033  0  -0.009388  0.008731  0  3.876921  0
C  C56  1  0.75964340  0.92423449  0.43986140  1  0.032923  0  -0.077627  0.055338  0  3.845627  0
C  C57  1  0.99595354  0.73521425  0.53035226  1  1.532075  0  0.212583  0.593716  0  4.172043  0
C  C58  1  0.76569181  0.06707216  0.42798842  1  -0.01812  0  -0.155044  -0.244539  0  3.869933  0
C  C59  1  0.44244027  0.43609920  0.44123361  1  0.542993  0  0.147826  0.201561  0  3.857009  0
C  C60  1  0.42230024  0.57754194  0.56012069  1  0.449313  0  0.059506  0.034868  0  3.879963  0
C  C61  1  0.56892977  0.58629929  0.54532474  1  0.46101  0  0.062854  0.047513  0  3.883178  0
C  C62  1  0.58934411  0.44490458  0.42659326  1  0.567242  0  0.145956  0.197371  0  3.879677  0
C  C63  1  0.61416627  0.35141534  0.34624558  1  0.000566  0  -0.143165  -0.236157  0  3.817572  0
C  C64  1  0.44671382  0.34148796  0.36237534  1  -0.0352  0  -0.136751  -0.224714  0  3.807515  0
C  C65  1  0.93315558  0.47441241  0.68959251  1  1.47461  0  0.206975  0.598496  0  4.137923  0
C  C66  1  0.14060137  0.60989469  0.22333531  1  -0.078492  0  -0.02857  -0.008086  0  4.05975  0
C  C67  1  0.88281605  0.48862449  0.79518567  1  0.087406  0  -0.037533  -0.231723  0  3.865065  0
C  C68  1  0.11727560  0.70813236  0.07273084  1  0.388199  0  0.097016  0.266277  0  4.05966  0
C  C69  1  0.05863166  0.67082318  0.16494466  1  -0.031508  0  -0.110763  -0.244406  0  3.992456  0
C  C70  1  0.28490200  0.59157101  0.19211797  1  0.039152  0  -0.118094  -0.213557  0  4.026462  0
C  C71  1  0.26912970  0.77807911  0.86671963  1  -0.078831  0  -0.237015  -0.409578  0  3.971847  0
C  C72  1  0.22454915  0.12875084  0.58318417  1  -0.021866  0  -0.244086  -0.407598  0  3.984192  0
C  C73  1  0.76988141  0.84936616  0.34751377  1  -0.117427  0  -0.247239  -0.391757  0  3.959256  0
C  C74  1  0.62576380  0.47262990  0.77306669  1  -0.064128  0  -0.249181  -0.410836  0  3.993867  0
N  N75  1  0.35588085  0.49920307  0.50876258  1  -1.195125  0  -0.290966  -0.183142  0  3.467723  0
N  N76  1  0.65631638  0.51685870  0.47864650  1  -1.204637  0  -0.293925  -0.186969  0  3.465934  0
N  N77  1  0.12634841  0.48130958  0.82980411  1  -1.247098  0  -0.599289  -0.621633  0  3.369215  0
N  N78  1  0.02713169  0.76964327  0.02096394  1  -1.228606  0  -0.605338  -0.615488  0  3.295624  0
N  N79  1  0.56758645  0.61027967  0.23068421  1  -1.204192  0  -0.595182  -0.611269  0  3.335211  0
O  O80  1  0.88959219  0.31743614  0.47292475  1  -1.157579  0  -0.317225  -0.541318  0  2.293596  0
O  O81  1  0.12328616  0.31715523  0.48075489  1  -1.167806  0  -0.312619  -0.544392  0  2.353945  0
O  O82  1  0.94494515  0.54031808  0.33636133  1  -1.166073  0  -0.323403  -0.547525  0  2.25818  0
O  O83  1  0.16188798  0.54704596  0.37872968  1  -1.172795  0  -0.320603  -0.563521  0  2.372432  0
O  O84  1  0.88912648  0.68477905  0.50579420  1  -1.160716  0  -0.311525  -0.542727  0  2.363439  0
O  O85  1  0.10191132  0.67988625  0.55592830  1  -1.173658  0  -0.321717  -0.552452  0  2.295574  0
O  O86  1  0.84606450  0.49096213  0.63192477  1  -1.162903  0  -0.311692  -0.548137  0  2.372152  0
O  O87  1  0.06652278  0.45054216  0.65904850  1  -1.175549  0  -0.32364  -0.556879  0  2.341994  0
