# generated using pymatgen
data_ZnH11C12(NO2)2
_symmetry_space_group_name_H-M   'P 1'
_cell_length_a   10.75334935
_cell_length_b   10.75336232
_cell_length_c   12.48202013
_cell_angle_alpha   88.14236172
_cell_angle_beta   88.14235325
_cell_angle_gamma   72.64878836
_symmetry_Int_Tables_number   1
_chemical_formula_structural   ZnH11C12(NO2)2
_chemical_formula_sum   'Zn4 H44 C48 N8 O16'
_cell_volume   1376.55822307
_cell_formula_units_Z   4
loop_
 _symmetry_equiv_pos_site_id
 _symmetry_equiv_pos_as_xyz
  1  'x, y, z'
loop_
 _atom_site_type_symbol
 _atom_site_label
 _atom_site_symmetry_multiplicity
 _atom_site_fract_x
 _atom_site_fract_y
 _atom_site_fract_z
 _atom_site_occupancy
 _atom_site_pbe_bader_charge
 _atom_site_pbe_bader_spin_density
 _atom_site_pbe_cm5_charge
 _atom_site_pbe_ddec_charge
 _atom_site_pbe_ddec_spin_density
 _atom_site_pbe_ddec_sum_bond_order
 _atom_site_pbe_magmom
Zn  Zn0  1  0.42291689  0.90724146  0.99116350  1  1.301587  0  0.673105  0.853774  0  2.380807  0
Zn  Zn1  1  0.09275813  0.57708428  0.50883648  1  1.301659  0  0.673105  0.853777  0  2.380824  0
Zn  Zn2  1  0.57708412  0.09275824  0.00883614  1  1.302069  0  0.673106  0.85378  0  2.380812  0
Zn  Zn3  1  0.90724191  0.42291571  0.49116318  1  1.302003  0  0.673115  0.853799  0  2.380782  0
H  H4  1  0.15738755  0.12685227  0.26691826  1  0.097379  0  0.107806  0.124306  0  0.996793  0
H  H5  1  0.87314801  0.84261359  0.23308184  1  0.097373  0  0.107829  0.124333  0  0.996752  0
H  H6  1  0.84261346  0.87314743  0.73308138  1  0.097387  0  0.107823  0.124334  0  0.996741  0
H  H7  1  0.12685301  0.15738704  0.76691777  1  0.097382  0  0.107829  0.124357  0  0.996747  0
H  H8  1  0.32084850  0.31780456  0.24004095  1  0.081375  0  0.106661  0.119475  0  1.011291  0
H  H9  1  0.68219450  0.67915351  0.25995996  1  0.081331  0  0.106668  0.119516  0  1.011342  0
H  H10  1  0.67915153  0.68219450  0.75995794  1  0.081315  0  0.10666  0.119494  0  1.011274  0
H  H11  1  0.31780651  0.32084712  0.74004045  1  0.081379  0  0.106682  0.119528  0  1.011259  0
H  H12  1  0.54231803  0.61298867  0.93937467  1  0.139663  0  0.120602  0.11727  0  1.008283  0
H  H13  1  0.38700959  0.45768496  0.56062528  1  0.139695  0  0.120599  0.11724  0  1.008315  0
H  H14  1  0.45768298  0.38701010  0.06062500  1  0.139658  0  0.120606  0.117254  0  1.008293  0
H  H15  1  0.61298851  0.54231748  0.43937757  1  0.139667  0  0.120614  0.117285  0  1.008226  0
H  H16  1  0.39710527  0.46607038  0.85289188  1  0.124183  0  0.126425  0.133727  0  1.010225  0
H  H17  1  0.53393018  0.60289504  0.64710728  1  0.12419  0  0.126444  0.133751  0  1.010184  0
H  H18  1  0.60289282  0.53393020  0.14710862  1  0.124187  0  0.126442  0.133763  0  1.010235  0
H  H19  1  0.46606889  0.39710618  0.35289237  1  0.124184  0  0.126427  0.133733  0  1.010206  0
H  H20  1  0.14251324  0.95959869  0.95431315  1  0.100128  0  0.10908  0.169758  0  1.001868  0
H  H21  1  0.04040155  0.85748743  0.54568844  1  0.100131  0  0.109062  0.169731  0  1.001898  0
H  H22  1  0.85748583  0.04040160  0.04568973  1  0.100134  0  0.109061  0.169762  0  1.001876  0
H  H23  1  0.95959849  0.14251164  0.45431205  1  0.100136  0  0.109039  0.169711  0  1.001902  0
H  H24  1  0.04511505  0.85138621  0.97115303  1  0.057986  0  0.105548  0.156115  0  0.979731  0
H  H25  1  0.14861275  0.95488628  0.52884698  1  0.057999  0  0.105553  0.156111  0  0.979743  0
H  H26  1  0.95488499  0.14861193  0.02884909  1  0.058026  0  0.105566  0.156165  0  0.97973  0
H  H27  1  0.85138632  0.04511493  0.47115267  1  0.057988  0  0.105551  0.156125  0  0.979732  0
H  H28  1  0.07309741  0.91058124  0.84158503  1  0.04006  0  0.098373  0.138431  0  1.007916  0
H  H29  1  0.08941874  0.92690402  0.65841494  1  0.040725  0  0.09838  0.138433  0  1.007907  0
H  H30  1  0.92690263  0.08941783  0.15841706  1  0.04001  0  0.098392  0.138463  0  1.007885  0
H  H31  1  0.91058033  0.07309627  0.34158554  1  0.040738  0  0.09838  0.138441  0  1.007903  0
H  H32  1  0.16801407  0.54079317  0.76724203  1  0.136695  0  0.116663  0.113312  0  1.006433  0
H  H33  1  0.45920865  0.83198490  0.73275714  1  0.136657  0  0.116676  0.113325  0  1.006409  0
H  H34  1  0.83198597  0.45920683  0.23275763  1  0.136662  0  0.116666  0.113309  0  1.006429  0
H  H35  1  0.54079236  0.16801480  0.26724170  1  0.136653  0  0.116674  0.113308  0  1.006434  0
H  H36  1  0.06423060  0.69641249  0.79519474  1  0.091131  0  0.115708  0.105742  0  0.985973  0
H  H37  1  0.30358783  0.93576995  0.70480444  1  0.091128  0  0.115706  0.10573  0  0.986007  0
H  H38  1  0.93576943  0.30358658  0.20480414  1  0.091077  0  0.115706  0.105721  0  0.986003  0
H  H39  1  0.69641221  0.06423190  0.29519436  1  0.091186  0  0.115715  0.105735  0  0.985972  0
H  H40  1  0.95298253  0.48666878  0.80828217  1  0.08551  0  0.101632  0.109808  0  1.013508  0
H  H41  1  0.51333097  0.04701752  0.69171539  1  0.085521  0  0.101663  0.109837  0  1.013518  0
H  H42  1  0.04701653  0.51333057  0.19171594  1  0.08555  0  0.101644  0.109807  0  1.013527  0
H  H43  1  0.48667005  0.95298404  0.30828499  1  0.085545  0  0.101629  0.109806  0  1.013549  0
H  H44  1  0.83513048  0.39525967  0.94696980  1  0.069699  0  0.103095  0.10604  0  1.008714  0
H  H45  1  0.60474086  0.16487133  0.55303089  1  0.069669  0  0.103091  0.106031  0  1.008726  0
H  H46  1  0.16486956  0.60474033  0.05302986  1  0.069681  0  0.103101  0.106033  0  1.008705  0
H  H47  1  0.39526016  0.83513023  0.44696869  1  0.069451  0  0.103099  0.106054  0  1.008719  0
C  C48  1  0.32232835  0.09535097  0.14976991  1  1.557983  0  0.205909  0.619819  0  4.194997  0
C  C49  1  0.90464842  0.67767210  0.35022943  1  1.557952  0  0.205924  0.619826  0  4.194905  0
C  C50  1  0.67767266  0.90464595  0.85022901  1  1.557952  0  0.205935  0.619823  0  4.194922  0
C  C51  1  0.09535259  0.32232760  0.64977021  1  1.557955  0  0.205957  0.619833  0  4.194965  0
C  C52  1  0.23298451  0.16780650  0.23559473  1  -0.003993  0  -0.081427  -0.173351  0  3.894717  0
C  C53  1  0.83219295  0.76701650  0.26440620  1  -0.003981  0  -0.081438  -0.17335  0  3.894644  0
C  C54  1  0.76701553  0.83219256  0.76440576  1  -0.004027  0  -0.081395  -0.173287  0  3.894729  0
C  C55  1  0.16780709  0.23298349  0.73559346  1  -0.003998  0  -0.081426  -0.173375  0  3.894731  0
C  C56  1  0.24433892  0.27916534  0.27300584  1  -0.072343  0  -0.08365  -0.176561  0  3.9098  0
C  C57  1  0.72083326  0.75566197  0.22699512  1  -0.072409  0  -0.083626  -0.1766  0  3.909825  0
C  C58  1  0.75566112  0.72083558  0.72699459  1  -0.072105  0  -0.083679  -0.176662  0  3.909861  0
C  C59  1  0.27916678  0.24433710  0.77300377  1  -0.072342  0  -0.083689  -0.176649  0  3.909813  0
C  C60  1  0.15841615  0.35581540  0.35851118  1  1.558702  0  0.207562  0.617767  0  4.196456  0
C  C61  1  0.64418254  0.84158479  0.14148900  1  1.55892  0  0.207539  0.617733  0  4.196589  0
C  C62  1  0.84158389  0.64418459  0.64148848  1  1.558546  0  0.207543  0.617779  0  4.196436  0
C  C63  1  0.35581847  0.15841491  0.85850984  1  1.558805  0  0.207501  0.617677  0  4.19651  0
C  C64  1  0.43997087  0.63939450  0.92059858  1  0.360274  0  -0.004207  -0.032839  0  4.021001  0
C  C65  1  0.36060528  0.56002931  0.57940061  1  0.360325  0  -0.004208  -0.032801  0  4.020973  0
C  C66  1  0.56002819  0.36060485  0.07940113  1  0.360292  0  -0.004228  -0.032826  0  4.021031  0
C  C67  1  0.63939476  0.43997069  0.42060065  1  0.36032  0  -0.004219  -0.032869  0  4.02096  0
C  C68  1  0.36994317  0.56665990  0.87728061  1  0.312602  0  0.0009  -0.113296  0  3.956336  0
C  C69  1  0.43333964  0.63005717  0.62271859  1  0.312945  0  0.000901  -0.113305  0  3.956283  0
C  C70  1  0.63005589  0.43333946  0.12271990  1  0.312594  0  0.000897  -0.113346  0  3.956393  0
C  C71  1  0.56666040  0.36994469  0.37728102  1  0.312947  0  0.000895  -0.113295  0  3.956308  0
C  C72  1  0.23867305  0.76646456  0.90873258  1  0.968331  0  0.221134  0.334715  0  3.939788  0
C  C73  1  0.23353499  0.76132721  0.59126903  1  0.968308  0  0.221111  0.334644  0  3.939861  0
C  C74  1  0.76132602  0.23353573  0.09127030  1  0.968328  0  0.221188  0.334734  0  3.939773  0
C  C75  1  0.76646408  0.23867401  0.40873142  1  0.968357  0  0.221152  0.334693  0  3.939764  0
C  C76  1  0.11837591  0.87792980  0.91933996  1  -0.02159  0  -0.226411  -0.46773  0  3.940572  0
C  C77  1  0.12206919  0.88162433  0.58066248  1  -0.021662  0  -0.226422  -0.467698  0  3.940549  0
C  C78  1  0.88162413  0.12206927  0.08066293  1  -0.021546  0  -0.226484  -0.467876  0  3.940542  0
C  C79  1  0.87792988  0.11837503  0.41933883  1  -0.021696  0  -0.226431  -0.467745  0  3.940496  0
C  C80  1  0.13368366  0.61034502  0.83218175  1  0.270547  0  -0.046031  -0.106224  0  3.884438  0
C  C81  1  0.38965520  0.86631837  0.66781818  1  0.270509  0  -0.046064  -0.106262  0  3.884412  0
C  C82  1  0.86631735  0.38965469  0.16781869  1  0.270581  0  -0.046006  -0.106173  0  3.884305  0
C  C83  1  0.61034484  0.13368163  0.33218148  1  0.27044  0  -0.046037  -0.106231  0  3.884338  0
C  C84  1  0.06658323  0.55293667  0.92040055  1  -0.066132  0  -0.015475  0.085322  0  3.981437  0
C  C85  1  0.44706595  0.93341883  0.57960171  1  -0.065999  0  -0.015384  0.08544  0  3.981342  0
C  C86  1  0.93341780  0.44706676  0.07959978  1  -0.066065  0  -0.0154  0.085446  0  3.981387  0
C  C87  1  0.55293507  0.06658366  0.42039784  1  -0.066124  0  -0.015378  0.085519  0  3.981312  0
C  C88  1  0.97357647  0.49313105  0.89248908  1  -0.014266  0  -0.092518  -0.123164  0  3.988498  0
C  C89  1  0.50687039  0.02642268  0.60751167  1  -0.01433  0  -0.092622  -0.123273  0  3.988682  0
C  C90  1  0.02642161  0.50686952  0.10750902  1  -0.014513  0  -0.092574  -0.123258  0  3.988699  0
C  C91  1  0.49313063  0.97357982  0.39249029  1  -0.014422  0  -0.092631  -0.123336  0  3.988757  0
C  C92  1  0.90749763  0.44092588  0.97114773  1  -0.057907  0  -0.097125  -0.141613  0  4.005479  0
C  C93  1  0.55907458  0.09250320  0.52885219  1  -0.057865  0  -0.097062  -0.141549  0  4.005389  0
C  C94  1  0.09250143  0.55907441  0.02885195  1  -0.057766  0  -0.097068  -0.141488  0  4.00552  0
C  C95  1  0.44092644  0.90749929  0.47114656  1  -0.057595  0  -0.097073  -0.141547  0  4.005371  0
N  N96  1  0.35763190  0.76286529  0.93975369  1  -1.243305  0  -0.358123  -0.333727  0  3.514893  0
N  N97  1  0.23713428  0.64236822  0.56024712  1  -1.243309  0  -0.358119  -0.333725  0  3.514899  0
N  N98  1  0.64236716  0.23713407  0.06024682  1  -1.243318  0  -0.358145  -0.333745  0  3.51491  0
N  N99  1  0.76286478  0.35763114  0.43975419  1  -1.243331  0  -0.35814  -0.333729  0  3.514924  0
N  N100  1  0.24382385  0.64833097  0.86892154  1  -1.203077  0  -0.243501  -0.01727  0  3.763075  0
N  N101  1  0.35166885  0.75617646  0.63107845  1  -1.203058  0  -0.243492  -0.017244  0  3.763043  0
N  N102  1  0.75617619  0.35166902  0.13107892  1  -1.203076  0  -0.243502  -0.017234  0  3.763054  0
N  N103  1  0.64833022  0.24382383  0.36892123  1  -1.203045  0  -0.243464  -0.017202  0  3.762905  0
O  O104  1  0.29407773  0.99909225  0.11089015  1  -1.156411  0  -0.322006  -0.540903  0  2.243478  0
O  O105  1  0.00090760  0.70592130  0.38910925  1  -1.156392  0  -0.322027  -0.540908  0  2.243368  0
O  O106  1  0.70592230  0.00090682  0.88910874  1  -1.156355  0  -0.322039  -0.540911  0  2.243364  0
O  O107  1  0.99909439  0.29407811  0.61089117  1  -1.156372  0  -0.322032  -0.540906  0  2.2434  0
O  O108  1  0.42004079  0.13401832  0.12226640  1  -1.180633  0  -0.316888  -0.575401  0  2.355708  0
O  O109  1  0.86597960  0.57995970  0.37773217  1  -1.180632  0  -0.316894  -0.575415  0  2.355732  0
O  O110  1  0.57995924  0.86597981  0.87773171  1  -1.180592  0  -0.316894  -0.575412  0  2.355734  0
O  O111  1  0.13401946  0.42004059  0.62226671  1  -1.180652  0  -0.31691  -0.57541  0  2.355757  0
O  O112  1  0.05683196  0.32469679  0.38740068  1  -1.179286  0  -0.315022  -0.557117  0  2.340041  0
O  O113  1  0.67530223  0.94316879  0.11259868  1  -1.179453  0  -0.315008  -0.557089  0  2.34008  0
O  O114  1  0.94316905  0.67530198  0.61259819  1  -1.179369  0  -0.314997  -0.557104  0  2.340058  0
O  O115  1  0.32469780  0.05683028  0.88740101  1  -1.17944  0  -0.314955  -0.557036  0  2.340003  0
O  O116  1  0.19475178  0.44890270  0.39463963  1  -1.155562  0  -0.317865  -0.546257  0  2.278516  0
O  O117  1  0.55109757  0.80524798  0.10535972  1  -1.155585  0  -0.317872  -0.546256  0  2.27863  0
O  O118  1  0.80524825  0.55109822  0.60535840  1  -1.155561  0  -0.317883  -0.546288  0  2.278544  0
O  O119  1  0.44890344  0.19475079  0.89463915  1  -1.155574  0  -0.317881  -0.546243  0  2.278653  0
