# generated using pymatgen
data_AgH10C6(N3O)2
_symmetry_space_group_name_H-M   'P 1'
_cell_length_a   11.15075733
_cell_length_b   11.36495473
_cell_length_c   11.68873094
_cell_angle_alpha   92.89911287
_cell_angle_beta   116.39865583
_cell_angle_gamma   118.46810091
_symmetry_Int_Tables_number   1
_chemical_formula_structural   AgH10C6(N3O)2
_chemical_formula_sum   'Ag4 H40 C24 N24 O8'
_cell_volume   1099.65866035
_cell_formula_units_Z   4
loop_
 _symmetry_equiv_pos_site_id
 _symmetry_equiv_pos_as_xyz
  1  'x, y, z'
loop_
 _atom_site_type_symbol
 _atom_site_label
 _atom_site_symmetry_multiplicity
 _atom_site_fract_x
 _atom_site_fract_y
 _atom_site_fract_z
 _atom_site_occupancy
 _atom_site_hle17_bader_spin_density
 _atom_site_hle17_ddec_charge
 _atom_site_hle17_ddec_spin_density
 _atom_site_hle17_ddec_sum_bond_order
 _atom_site_hle17_magmom
 _atom_site_hse06_10hf_bader_spin_density
 _atom_site_hse06_10hf_ddec_charge
 _atom_site_hse06_10hf_ddec_spin_density
 _atom_site_hse06_10hf_ddec_sum_bond_order
 _atom_site_hse06_10hf_magmom
 _atom_site_hse06_bader_spin_density
 _atom_site_hse06_ddec_charge
 _atom_site_hse06_ddec_spin_density
 _atom_site_hse06_ddec_sum_bond_order
 _atom_site_hse06_magmom
 _atom_site_pbe_bader_spin_density
 _atom_site_pbe_cm5_charge
 _atom_site_pbe_ddec_charge
 _atom_site_pbe_ddec_spin_density
 _atom_site_pbe_ddec_sum_bond_order
 _atom_site_pbe_magmom
Ag  Ag0  1  0.05403669  0.37951930  0.19281457  1  0  0.493393  0  1.558058  0  0  0.348203  0  2.008381  0  0  0.383759  0  1.954429  0  0  0.47514  0.322054  0  2.047319  0
Ag  Ag1  1  0.94596382  0.62048166  0.80718453  1  0  0.493404  0  1.558042  0  0  0.348227  0  2.008402  0  0  0.383783  0  1.954448  0  0  0.475144  0.322079  0  2.047336  0
Ag  Ag2  1  0.75405123  0.51283913  0.50670965  1  0  0.536312  0  1.491564  0  0  0.413768  0  1.932899  0  0  0.446657  0  1.880819  0  0  0.425861  0.390226  0  1.969081  0
Ag  Ag3  1  0.24594872  0.48715763  0.49329241  1  0  0.536273  0  1.491591  0  0  0.413725  0  1.932911  0  0  0.446611  0  1.880833  0  0  0.425842  0.390178  0  1.969087  0
H  H4  1  0.27488144  0.00249905  0.72890880  1  0  0.100278  0  0.928208  0  0  0.119032  0  0.982866  0  0  0.120394  0  0.983339  0  0  0.097727  0.117703  0  0.983305  0
H  H5  1  0.72511286  0.99749345  0.27109159  1  0  0.100282  0  0.928208  0  0  0.119032  0  0.982873  0  0  0.120396  0  0.983345  0  0  0.097723  0.117703  0  0.983308  0
H  H6  1  0.14648753  0.05129527  0.62852004  1  0  0.092606  0  0.94297  0  0  0.108611  0  1.004848  0  0  0.110217  0  1.00487  0  0  0.094808  0.107574  0  1.004626  0
H  H7  1  0.85350528  0.94869620  0.37148483  1  0  0.092584  0  0.943028  0  0  0.108595  0  1.0049  0  0  0.1102  0  1.004926  0  0  0.094784  0.107553  0  1.004683  0
H  H8  1  0.22817995  0.86614181  0.51875508  1  0  0.063183  0  0.935112  0  0  0.084779  0  0.991574  0  0  0.085028  0  0.992959  0  0  0.085474  0.084544  0  0.99063  0
H  H9  1  0.77181788  0.13385809  0.48124289  1  0  0.063213  0  0.935062  0  0  0.084766  0  0.991562  0  0  0.085016  0  0.992951  0  0  0.085461  0.084528  0  0.990618  0
H  H10  1  0.08924192  0.90561207  0.41706755  1  0  0.064161  0  0.926119  0  0  0.085303  0  0.981001  0  0  0.086316  0  0.98095  0  0  0.088223  0.084444  0  0.981271  0
H  H11  1  0.91075774  0.09439211  0.58293568  1  0  0.064179  0  0.926088  0  0  0.085308  0  0.98097  0  0  0.086335  0  0.980907  0  0  0.088228  0.084446  0  0.981242  0
H  H12  1  0.31431929  0.16875431  0.53214075  1  0  0.070101  0  0.931377  0  0  0.091663  0  0.986734  0  0  0.091735  0  0.988442  0  0  0.090241  0.091571  0  0.985556  0
H  H13  1  0.68568082  0.83124565  0.46786583  1  0  0.070181  0  0.931251  0  0  0.091698  0  0.986655  0  0  0.091768  0  0.988363  0  0  0.090254  0.091609  0  0.985476  0
H  H14  1  0.32634446  0.06687181  0.42475149  1  0  0.056591  0  0.934326  0  0  0.078167  0  0.98962  0  0  0.078804  0  0.989915  0  0  0.085968  0.077572  0  0.989632  0
H  H15  1  0.67365179  0.93313340  0.57524872  1  0  0.056709  0  0.934349  0  0  0.078265  0  0.98965  0  0  0.078904  0  0.989939  0  0  0.086019  0.077667  0  0.989665  0
H  H16  1  0.52744342  0.05161561  0.62796476  1  0  0.085493  0  0.948102  0  0  0.101216  0  1.011653  0  0  0.10283  0  1.011639  0  0  0.091841  0.100223  0  1.011473  0
H  H17  1  0.47255340  0.94838111  0.37203262  1  0  0.085515  0  0.948052  0  0  0.10122  0  1.011641  0  0  0.102829  0  1.011631  0  0  0.091835  0.100231  0  1.011456  0
H  H18  1  0.52299057  0.15967824  0.73682263  1  0  0.099815  0  0.935584  0  0  0.116329  0  0.995665  0  0  0.117684  0  0.996393  0  0  0.095389  0.11511  0  0.995745  0
H  H19  1  0.47700935  0.84032168  0.26317875  1  0  0.09979  0  0.935603  0  0  0.116303  0  0.995688  0  0  0.11766  0  0.996411  0  0  0.095386  0.115083  0  0.995768  0
H  H20  1  0.99293904  0.61693890  0.42974520  1  0  0.352654  0  0.911622  0  0  0.328912  0  0.980487  0  0  0.337895  0  0.972853  0  0  0.302438  0.322565  0  0.985922  0
H  H21  1  0.00706803  0.38306425  0.57026266  1  0  0.352628  0  0.911702  0  0  0.328893  0  0.980561  0  0  0.337874  0  0.97293  0  0  0.302457  0.322549  0  0.985987  0
H  H22  1  0.06496791  0.59526619  0.32715078  1  0  0.332218  0  0.932329  0  0  0.310753  0  1.002564  0  0  0.319874  0  0.99399  0  0  0.288978  0.304274  0  1.008604  0
H  H23  1  0.93504011  0.40473696  0.67285575  1  0  0.332226  0  0.932312  0  0  0.310776  0  1.002538  0  0  0.319898  0  0.993961  0  0  0.288985  0.304292  0  1.008587  0
H  H24  1  0.40526159  0.07700596  0.22710299  1  0  0.334682  0  0.870925  0  0  0.329335  0  0.912915  0  0  0.334995  0  0.909102  0  0  0.325742  0.325228  0  0.915865  0
H  H25  1  0.59473675  0.92299178  0.77289078  1  0  0.334629  0  0.870976  0  0  0.329286  0  0.912955  0  0  0.334945  0  0.909144  0  0  0.325722  0.325182  0  0.91591  0
H  H26  1  0.52497922  0.22833982  0.37080038  1  0  0.343387  0  0.927477  0  0  0.31912  0  1.001656  0  0  0.327533  0  0.994273  0  0  0.30077  0.31307  0  1.007137  0
H  H27  1  0.47502196  0.77165903  0.62919887  1  0  0.343452  0  0.927389  0  0  0.319173  0  1.001583  0  0  0.327587  0  0.994191  0  0  0.300829  0.313127  0  1.007058  0
H  H28  1  0.58561727  0.02604436  0.95493638  1  0  0.330589  0  0.952829  0  0  0.3013  0  1.031412  0  0  0.311397  0  1.022872  0  0  0.289807  0.294196  0  1.037276  0
H  H29  1  0.41438324  0.97396183  0.04505361  1  0  0.330578  0  0.952944  0  0  0.301303  0  1.031493  0  0  0.311395  0  1.022948  0  0  0.289806  0.294197  0  1.037351  0
H  H30  1  0.77897840  0.17088354  0.99599343  1  0  0.311275  0  0.901911  0  0  0.297384  0  0.967349  0  0  0.306303  0  0.957143  0  0  0.298587  0.290566  0  0.975553  0
H  H31  1  0.22102686  0.82913009  0.00400062  1  0  0.31132  0  0.901966  0  0  0.297461  0  0.967349  0  0  0.306376  0  0.957153  0  0  0.298651  0.290643  0  0.975551  0
H  H32  1  0.43110993  0.33956363  0.43725659  1  0  0.344685  0  0.922057  0  0  0.321128  0  0.992543  0  0  0.329825  0  0.985173  0  0  0.299178  0.31507  0  0.997662  0
H  H33  1  0.56888632  0.66043205  0.56274306  1  0  0.344722  0  0.922095  0  0  0.321174  0  0.992546  0  0  0.329869  0  0.985182  0  0  0.299229  0.315116  0  0.997662  0
H  H34  1  0.22384262  0.27347683  0.33314044  1  0  0.334515  0  0.934231  0  0  0.313865  0  1.003265  0  0  0.322979  0  0.994336  0  0  0.286099  0.307433  0  1.009542  0
H  H35  1  0.77615156  0.72651882  0.66685666  1  0  0.334498  0  0.934221  0  0  0.313812  0  1.003288  0  0  0.322923  0  0.994367  0  0  0.286079  0.307384  0  1.009557  0
H  H36  1  0.71783713  0.70600394  0.18920110  1  0  0.345821  0  0.853949  0  0  0.338312  0  0.897241  0  0  0.344653  0  0.892484  0  0  0.327738  0.33366  0  0.900992  0
H  H37  1  0.28216216  0.29399492  0.81080081  1  0  0.345825  0  0.853967  0  0  0.338298  0  0.89728  0  0  0.344637  0  0.892526  0  0  0.327725  0.33364  0  0.901028  0
H  H38  1  0.79708634  0.67362836  0.34319217  1  0  0.340231  0  0.923203  0  0  0.315832  0  0.997968  0  0  0.324124  0  0.99077  0  0  0.299526  0.30994  0  1.003217  0
H  H39  1  0.20291258  0.32636838  0.65680861  1  0  0.34025  0  0.923151  0  0  0.315848  0  0.997924  0  0  0.324138  0  0.990727  0  0  0.299529  0.309955  0  1.003167  0
H  H40  1  0.18407547  0.53300999  0.92445751  1  0  0.331496  0  0.927181  0  0  0.311121  0  0.992238  0  0  0.317911  0  0.987677  0  0  0.301654  0.306415  0  0.99523  0
H  H41  1  0.81592747  0.46699312  0.07554526  1  0  0.33146  0  0.927244  0  0  0.311081  0  0.99231  0  0  0.317869  0  0.987753  0  0  0.301616  0.306372  0  0.995307  0
H  H42  1  0.04478789  0.40728191  0.95573939  1  0  0.32734  0  0.898894  0  0  0.309144  0  0.970936  0  0  0.317416  0  0.961643  0  0  0.300264  0.303106  0  0.977951  0
H  H43  1  0.95521302  0.59272119  0.04426171  1  0  0.327306  0  0.898965  0  0  0.309131  0  0.970979  0  0  0.317398  0  0.961687  0  0  0.30026  0.303098  0  0.977994  0
C  C44  1  0.85563125  0.41836596  0.29119002  1  0  0.688173  0  3.851114  0  0  0.630866  0  4.129014  0  0  0.662117  0  4.133336  0  0  0.346261  0.609947  0  4.125162  0
C  C45  1  0.14437528  0.58163821  0.70881169  1  0  0.687966  0  3.851335  0  0  0.630721  0  4.129188  0  0  0.661975  0  4.133512  0  0  0.346179  0.609799  0  4.125339  0
C  C46  1  0.70445374  0.20797996  0.11411603  1  0  0.699064  0  3.849885  0  0  0.639486  0  4.132528  0  0  0.67031  0  4.137115  0  0  0.349496  0.618828  0  4.128423  0
C  C47  1  0.29555261  0.79203052  0.88588084  1  0  0.699222  0  3.849387  0  0  0.639559  0  4.132213  0  0  0.670384  0  4.136802  0  0  0.349573  0.618905  0  4.128108  0
C  C48  1  0.61448018  0.23384553  0.24872488  1  0  0.703274  0  3.850304  0  0  0.648231  0  4.13811  0  0  0.678787  0  4.140757  0  0  0.352331  0.627857  0  4.135491  0
C  C49  1  0.38552127  0.76615860  0.75127308  1  0  0.703065  0  3.850468  0  0  0.648038  0  4.138284  0  0  0.678594  0  4.140935  0  0  0.352235  0.627661  0  4.135677  0
C  C50  1  0.28334235  0.48200798  0.09120833  1  0  0.687754  0  3.877808  0  0  0.638972  0  4.148921  0  0  0.668955  0  4.154357  0  0  0.340019  0.618734  0  4.144347  0
C  C51  1  0.71665481  0.51799085  0.90878930  1  0  0.68773  0  3.877823  0  0  0.639093  0  4.148753  0  0  0.669053  0  4.154219  0  0  0.340039  0.618851  0  4.14419  0
C  C52  1  0.37397729  0.41765224  0.28074260  1  0  0.692279  0  3.85092  0  0  0.637737  0  4.123047  0  0  0.668541  0  4.128858  0  0  0.341228  0.616812  0  4.118571  0
C  C53  1  0.62602127  0.58234555  0.71925725  1  0  0.692375  0  3.850872  0  0  0.637805  0  4.12306  0  0  0.668614  0  4.128865  0  0  0.341256  0.616879  0  4.118589  0
C  C54  1  0.54920762  0.56981722  0.22538755  1  0  0.697365  0  3.856077  0  0  0.648054  0  4.140134  0  0  0.678338  0  4.143054  0  0  0.346494  0.627813  0  4.137346  0
C  C55  1  0.45079200  0.43018059  0.77461444  1  0  0.697372  0  3.856093  0  0  0.648131  0  4.140057  0  0  0.678417  0  4.142973  0  0  0.346518  0.627885  0  4.137277  0
C  C56  1  0.02672579  0.83519506  0.61861305  1  0  0.697921  0  3.842681  0  0  0.644511  0  4.149553  0  0  0.67784  0  4.144739  0  0  0.198298  0.621878  0  4.151822  0
C  C57  1  0.97327236  0.16479742  0.38138462  1  0  0.698094  0  3.842631  0  0  0.644702  0  4.149467  0  0  0.67803  0  4.144654  0  0  0.198387  0.622076  0  4.151722  0
C  C58  1  0.16864201  0.96673971  0.62759801  1  0  -0.26282  0  3.676985  0  0  -0.299485  0  3.930773  0  0  -0.30584  0  3.941253  0  0  -0.169739  -0.294963  0  3.923556  0
C  C59  1  0.83135527  0.03325597  0.37240291  1  0  -0.262834  0  3.677061  0  0  -0.299522  0  3.93084  0  0  -0.305875  0  3.941324  0  0  -0.169738  -0.294993  0  3.923613  0
C  C60  1  0.20064287  0.94739392  0.51614317  1  0  -0.078857  0  3.685377  0  0  -0.120725  0  3.948408  0  0  -0.120721  0  3.962106  0  0  -0.170108  -0.120618  0  3.938977  0
C  C61  1  0.79935411  0.05260601  0.48385873  1  0  -0.078937  0  3.685334  0  0  -0.120746  0  3.948311  0  0  -0.120762  0  3.962022  0  0  -0.17011  -0.120642  0  3.938885  0
C  C62  1  0.33552925  0.08458848  0.52258724  1  0  -0.07803  0  3.683661  0  0  -0.11692  0  3.942433  0  0  -0.116825  0  3.956467  0  0  -0.16962  -0.116935  0  3.932767  0
C  C63  1  0.66446876  0.91541463  0.47741612  1  0  -0.078223  0  3.683768  0  0  -0.11705  0  3.942501  0  0  -0.116948  0  3.956537  0  0  -0.169692  -0.117066  0  3.932837  0
C  C64  1  0.50603763  0.13601756  0.63613454  1  0  -0.263947  0  3.679126  0  0  -0.302091  0  3.933479  0  0  -0.308599  0  3.944021  0  0  -0.17062  -0.297512  0  3.926276  0
C  C65  1  0.49396321  0.86398235  0.36386463  1  0  -0.263913  0  3.679144  0  0  -0.302073  0  3.933496  0  0  -0.308576  0  3.944037  0  0  -0.170623  -0.297496  0  3.92629  0
C  C66  1  0.64272680  0.26808256  0.63935288  1  0  0.702824  0  3.83149  0  0  0.651733  0  4.133325  0  0  0.68526  0  4.128059  0  0  0.202773  0.629042  0  4.13586  0
C  C67  1  0.35727547  0.73191949  0.36064956  1  0  0.702744  0  3.831652  0  0  0.65169  0  4.13344  0  0  0.685219  0  4.128171  0  0  0.202741  0.628991  0  4.135984  0
N  N68  1  0.84438618  0.33897999  0.18993297  1  0  -0.651589  0  3.219966  0  0  -0.549825  0  3.492156  0  0  -0.582825  0  3.498399  0  0  -0.398751  -0.526907  0  3.486989  0
N  N69  1  0.15561497  0.66102203  0.81006560  1  0  -0.651605  0  3.219853  0  0  -0.549892  0  3.492152  0  0  -0.582894  0  3.498395  0  0  -0.398784  -0.526978  0  3.486994  0
N  N70  1  0.58586567  0.15240679  0.13933992  1  0  -0.627127  0  2.969271  0  0  -0.566603  0  3.222968  0  0  -0.592317  0  3.227012  0  0  -0.352199  -0.549238  0  3.219974  0
N  N71  1  0.41413100  0.84759624  0.86065348  1  0  -0.626943  0  2.96926  0  0  -0.56645  0  3.223076  0  0  -0.592166  0  3.227128  0  0  -0.352159  -0.549092  0  3.220091  0
N  N72  1  0.74464407  0.36705911  0.32549419  1  0  -0.607425  0  3.019471  0  0  -0.548079  0  3.305677  0  0  -0.575754  0  3.310217  0  0  -0.359769  -0.529125  0  3.302177  0
N  N73  1  0.25535814  0.63294293  0.67450651  1  0  -0.607333  0  3.019642  0  0  -0.547987  0  3.305804  0  0  -0.575661  0  3.310347  0  0  -0.359742  -0.529029  0  3.302302  0
N  N74  1  0.98257411  0.55257892  0.35626372  1  0  -0.691234  0  3.108936  0  0  -0.650325  0  3.355851  0  0  -0.672015  0  3.34647  0  0  -0.570544  -0.635335  0  3.361842  0
N  N75  1  0.01742815  0.44741678  0.64373835  1  0  -0.691145  0  3.108929  0  0  -0.650274  0  3.355805  0  0  -0.671968  0  3.346429  0  0  -0.570519  -0.63528  0  3.361791  0
N  N76  1  0.50298226  0.17726967  0.28217815  1  0  -0.686993  0  3.077032  0  0  -0.653211  0  3.312688  0  0  -0.6735  0  3.306235  0  0  -0.570036  -0.639112  0  3.317044  0
N  N77  1  0.49702509  0.82273446  0.71781875  1  0  -0.686949  0  3.07686  0  0  -0.653148  0  3.312503  0  0  -0.673436  0  3.306053  0  0  -0.570023  -0.639049  0  3.316863  0
N  N78  1  0.68420740  0.13143539  0.00845295  1  0  -0.682074  0  3.097139  0  0  -0.643704  0  3.338908  0  0  -0.665441  0  3.329947  0  0  -0.56941  -0.62859  0  3.345343  0
N  N79  1  0.31579570  0.86857934  0.99154543  1  0  -0.68218  0  3.097113  0  0  -0.643803  0  3.338871  0  0  -0.66553  0  3.329926  0  0  -0.569502  -0.628688  0  3.34531  0
N  N80  1  0.24864724  0.41291247  0.17515078  1  0  -0.632134  0  3.19002  0  0  -0.535502  0  3.466397  0  0  -0.569016  0  3.473098  0  0  -0.402004  -0.512401  0  3.461333  0
N  N81  1  0.75134962  0.58708425  0.82484746  1  0  -0.632104  0  3.190141  0  0  -0.535527  0  3.466504  0  0  -0.569036  0  3.473215  0  0  -0.401987  -0.512421  0  3.461435  0
N  N82  1  0.43115619  0.56209177  0.11225648  1  0  -0.622191  0  2.883213  0  0  -0.586677  0  3.148162  0  0  -0.609703  0  3.150576  0  0  -0.374301  -0.570966  0  3.146191  0
N  N83  1  0.56884507  0.43790710  0.88774537  1  0  -0.622163  0  2.88333  0  0  -0.586722  0  3.148216  0  0  -0.609743  0  3.150639  0  0  -0.374303  -0.571012  0  3.146251  0
N  N84  1  0.52680055  0.49736122  0.31056715  1  0  -0.623038  0  3.030483  0  0  -0.557798  0  3.313231  0  0  -0.586337  0  3.318019  0  0  -0.368113  -0.537873  0  3.309296  0
N  N85  1  0.47319734  0.50263551  0.68943236  1  0  -0.623045  0  3.030485  0  0  -0.557838  0  3.313261  0  0  -0.586378  0  3.318043  0  0  -0.36812  -0.537909  0  3.309329  0
N  N86  1  0.34106217  0.34006359  0.35768776  1  0  -0.707104  0  3.121565  0  0  -0.667293  0  3.369908  0  0  -0.689023  0  3.360171  0  0  -0.57966  -0.652136  0  3.376298  0
N  N87  1  0.65893438  0.65993420  0.64231128  1  0  -0.707178  0  3.121585  0  0  -0.667285  0  3.369935  0  0  -0.689013  0  3.360201  0  0  -0.579689  -0.652132  0  3.376322  0
N  N88  1  0.70097913  0.65526748  0.25462332  1  0  -0.685164  0  3.071592  0  0  -0.649553  0  3.30772  0  0  -0.669964  0  3.300549  0  0  -0.56634  -0.635464  0  3.312513  0
N  N89  1  0.29901982  0.34472927  0.74537833  1  0  -0.685233  0  3.071583  0  0  -0.649625  0  3.307709  0  0  -0.670034  0  3.300538  0  0  -0.566385  -0.635532  0  3.312495  0
N  N90  1  0.16010032  0.46831959  0.97903224  1  0  -0.695922  0  3.115808  0  0  -0.659543  0  3.352503  0  0  -0.679748  0  3.345487  0  0  -0.580797  -0.645343  0  3.35721  0
N  N91  1  0.83989954  0.53167714  0.02096721  1  0  -0.695907  0  3.115795  0  0  -0.659592  0  3.35246  0  0  -0.679781  0  3.345455  0  0  -0.580792  -0.645394  0  3.357167  0
O  O92  1  0.96164149  0.71662420  0.52962528  1  0  -0.680089  0  2.126642  0  0  -0.590088  0  2.381549  0  0  -0.622744  0  2.372347  0  0  -0.336924  -0.567443  0  2.387202  0
O  O93  1  0.03835332  0.28336933  0.47037110  1  0  -0.680163  0  2.126508  0  0  -0.59014  0  2.381381  0  0  -0.622789  0  2.372173  0  0  -0.33698  -0.567496  0  2.387026  0
O  O94  1  0.98168238  0.84771774  0.69712193  1  0  -0.648308  0  1.929922  0  0  -0.596123  0  2.158742  0  0  -0.62082  0  2.147724  0  0  -0.342141  -0.578705  0  2.165793  0
O  O95  1  0.01831422  0.15226735  0.30287810  1  0  -0.648355  0  1.929995  0  0  -0.596188  0  2.158793  0  0  -0.620889  0  2.147781  0  0  -0.342136  -0.578779  0  2.165846  0
O  O96  1  0.59999528  0.32440664  0.54866445  1  0  -0.677838  0  2.142285  0  0  -0.587155  0  2.394269  0  0  -0.619454  0  2.384846  0  0  -0.33433  -0.564898  0  2.400173  0
O  O97  1  0.40000419  0.67559113  0.45133320  1  0  -0.677789  0  2.142357  0  0  -0.5871  0  2.394281  0  0  -0.619404  0  2.384866  0  0  -0.334304  -0.564844  0  2.40019  0
O  O98  1  0.78687868  0.31410347  0.72730182  1  0  -0.657604  0  1.922746  0  0  -0.60216  0  2.15296  0  0  -0.627823  0  2.142378  0  0  -0.34293  -0.583872  0  2.159533  0
O  O99  1  0.21312530  0.68589966  0.27270223  1  0  -0.657585  0  1.922806  0  0  -0.602158  0  2.152999  0  0  -0.627819  0  2.142411  0  0  -0.342919  -0.583866  0  2.159573  0
