# generated using pymatgen
data_TbAgH8C14(NO4)2
_symmetry_space_group_name_H-M   'P 1'
_cell_length_a   9.60096267
_cell_length_b   9.15834195
_cell_length_c   22.42487467
_cell_angle_alpha   89.99995225
_cell_angle_beta   90.00076324
_cell_angle_gamma   118.01983390
_symmetry_Int_Tables_number   1
_chemical_formula_structural   TbAgH8C14(NO4)2
_chemical_formula_sum   'Tb4 Ag4 H32 C56 N8 O32'
_cell_volume   1740.67069543
_cell_formula_units_Z   4
loop_
 _symmetry_equiv_pos_site_id
 _symmetry_equiv_pos_as_xyz
  1  'x, y, z'
loop_
 _atom_site_type_symbol
 _atom_site_label
 _atom_site_symmetry_multiplicity
 _atom_site_fract_x
 _atom_site_fract_y
 _atom_site_fract_z
 _atom_site_occupancy
 _atom_site_pbe_bader_charge
 _atom_site_pbe_bader_spin_density
 _atom_site_pbe_cm5_charge
 _atom_site_pbe_ddec_charge
 _atom_site_pbe_ddec_spin_density
 _atom_site_pbe_ddec_sum_bond_order
 _atom_site_pbe_magmom
Tb  Tb0  1  0.35575106  0.11972799  0.01016870  1  2.189228  0  1.496328  2.072955  0  2.174756  0
Tb  Tb1  1  0.64424497  0.38027873  0.51016601  1  2.189263  0  1.496318  2.073061  0  2.17476  0
Tb  Tb2  1  0.64422816  0.88028067  0.98982836  1  2.189106  0  1.496252  2.072821  0  2.174935  0
Tb  Tb3  1  0.35576683  0.61971505  0.48982079  1  2.189253  0  1.496235  2.072892  0  2.1745  0
Ag  Ag4  1  0.32606737  0.96789406  0.34768296  1  0.562718  0  0.476182  0.344608  0  1.80942  0
Ag  Ag5  1  0.67392902  0.53209643  0.84768322  1  0.562785  0  0.476202  0.344643  0  1.809472  0
Ag  Ag6  1  0.67395819  0.03210680  0.65232034  1  0.562635  0  0.47614  0.34459  0  1.809673  0
Ag  Ag7  1  0.32606661  0.46791169  0.15232052  1  0.562764  0  0.476182  0.34458  0  1.809479  0
H  H8  1  0.61182595  0.88370952  0.33730690  1  0.143402  0  0.125337  0.102913  0  0.987421  0
H  H9  1  0.38817580  0.61631074  0.83730421  1  0.143516  0  0.125359  0.102806  0  0.987413  0
H  H10  1  0.38821786  0.11631460  0.66268838  1  0.143309  0  0.125406  0.102917  0  0.987408  0
H  H11  1  0.61179859  0.38369432  0.16269374  1  0.143444  0  0.125421  0.102933  0  0.987426  0
H  H12  1  0.77699676  0.86041615  0.25520478  1  0.094846  0  0.112998  0.120229  0  0.979108  0
H  H13  1  0.22300569  0.63960004  0.75519805  1  0.094914  0  0.112976  0.120198  0  0.979092  0
H  H14  1  0.22303634  0.13960958  0.74478068  1  0.094802  0  0.112939  0.120184  0  0.978948  0
H  H15  1  0.77697713  0.36038089  0.24479232  1  0.094817  0  0.112968  0.120229  0  0.978954  0
H  H16  1  0.71893697  0.90527977  0.14840714  1  0.175804  0  0.123669  0.137852  0  0.992542  0
H  H17  1  0.28106945  0.59473428  0.64840252  1  0.175785  0  0.123666  0.137822  0  0.992667  0
H  H18  1  0.28107747  0.09476164  0.85158234  1  0.175765  0  0.123732  0.137911  0  0.992416  0
H  H19  1  0.71891839  0.40523518  0.35159364  1  0.17545  0  0.123672  0.13779  0  0.992573  0
H  H20  1  0.35901271  0.01312965  0.21684546  1  0.145201  0  0.120304  0.094142  0  1.004436  0
H  H21  1  0.64098625  0.48687835  0.71684896  1  0.145247  0  0.120301  0.094172  0  1.004416  0
H  H22  1  0.64099964  0.98687416  0.78315917  1  0.145211  0  0.120314  0.094218  0  1.004298  0
H  H23  1  0.35902516  0.51314558  0.28315656  1  0.145107  0  0.12032  0.094168  0  1.004463  0
H  H24  1  0.78489550  0.27284177  0.83500480  1  0.097609  0  0.109762  0.070228  0  1.039599  0
H  H25  1  0.21509404  0.22713611  0.33499998  1  0.097608  0  0.109744  0.070183  0  1.039632  0
H  H26  1  0.21509695  0.72715516  0.16499672  1  0.097632  0  0.109746  0.070181  0  1.039555  0
H  H27  1  0.78491218  0.77285911  0.66500555  1  0.097991  0  0.109718  0.070249  0  1.039631  0
H  H28  1  0.99801351  0.21268177  0.87181452  1  0.125224  0  0.117249  0.133426  0  0.988342  0
H  H29  1  0.00198845  0.28730895  0.37181296  1  0.125232  0  0.117245  0.133349  0  0.988446  0
H  H30  1  0.00197733  0.78731396  0.12818788  1  0.125212  0  0.117256  0.133446  0  0.988284  0
H  H31  1  0.99800948  0.71266645  0.62819435  1  0.125026  0  0.11724  0.133431  0  0.988196  0
H  H32  1  0.21403842  0.42594898  0.93480263  1  0.130657  0  0.117292  0.122269  0  1.00172  0
H  H33  1  0.78597142  0.07405647  0.43480505  1  0.130695  0  0.11725  0.122081  0  1.001825  0
H  H34  1  0.78594479  0.57404825  0.06520335  1  0.130537  0  0.117311  0.12231  0  1.001799  0
H  H35  1  0.21403766  0.92591606  0.56520182  1  0.130389  0  0.117265  0.122211  0  1.001635  0
H  H36  1  0.96691641  0.71564195  0.92847554  1  0.138048  0  0.124559  0.106242  0  1.005133  0
H  H37  1  0.03307792  0.78434762  0.42847772  1  0.13802  0  0.124609  0.106313  0  1.005059  0
H  H38  1  0.03306345  0.28435037  0.07152731  1  0.138511  0  0.124616  0.106321  0  1.00504  0
H  H39  1  0.96695499  0.21564672  0.57152959  1  0.138599  0  0.124583  0.106312  0  1.005197  0
C  C40  1  0.59376934  0.90701927  0.29100335  1  0.429288  0  0.054484  0.095846  0  3.902778  0
C  C41  1  0.40623159  0.59300014  0.79100032  1  0.429463  0  0.05439  0.095924  0  3.902668  0
C  C42  1  0.40626010  0.09300532  0.70898969  1  0.429456  0  0.054469  0.095916  0  3.90279  0
C  C43  1  0.59375156  0.40701467  0.20899495  1  0.429343  0  0.054565  0.096028  0  3.902865  0
C  C44  1  0.68413711  0.89301602  0.24480937  1  -0.010384  0  -0.080175  -0.129521  0  3.977068  0
C  C45  1  0.31586318  0.60699627  0.74480494  1  -0.010567  0  -0.08017  -0.129453  0  3.977072  0
C  C46  1  0.31589158  0.10701362  0.75517788  1  -0.010804  0  -0.080151  -0.129331  0  3.976756  0
C  C47  1  0.68411362  0.39298736  0.25518810  1  -0.010112  0  -0.080265  -0.129543  0  3.976777  0
C  C48  1  0.65299870  0.91829673  0.18596301  1  -0.06554  0  -0.04696  -0.029855  0  3.873528  0
C  C49  1  0.34700744  0.58172306  0.68595922  1  -0.066079  0  -0.046948  -0.029912  0  3.87366  0
C  C50  1  0.34701239  0.08173977  0.81402557  1  -0.065394  0  -0.047  -0.030059  0  3.873147  0
C  C51  1  0.65298295  0.41827394  0.31403695  1  -0.065916  0  -0.046946  -0.029948  0  3.873436  0
C  C52  1  0.53358558  0.96217885  0.17572627  1  0.000381  0  -0.008767  -0.076453  0  3.949843  0
C  C53  1  0.46641929  0.53783451  0.67572628  1  0.001339  0  -0.008839  -0.076419  0  3.949677  0
C  C54  1  0.46642611  0.03785009  0.82426989  1  0.000815  0  -0.00876  -0.076303  0  3.949424  0
C  C55  1  0.53356586  0.46215136  0.32427747  1  0.000524  0  -0.0087  -0.076285  0  3.94957  0
C  C56  1  0.45079592  0.97711993  0.22436935  1  0.404534  0  0.045534  0.045321  0  3.959458  0
C  C57  1  0.54920692  0.52289692  0.72437071  1  0.404214  0  0.045504  0.04512  0  3.959772  0
C  C58  1  0.54921508  0.02289648  0.77562860  1  0.404692  0  0.045506  0.045139  0  3.959625  0
C  C59  1  0.45079879  0.47712594  0.27562902  1  0.404854  0  0.045452  0.045186  0  3.959483  0
C  C60  1  0.48912728  0.99247054  0.11449280  1  1.601186  0  0.226603  0.627475  0  4.210767  0
C  C61  1  0.51087998  0.50754536  0.61449217  1  1.601226  0  0.22663  0.627549  0  4.210604  0
C  C62  1  0.51086494  0.00755026  0.88550916  1  1.600874  0  0.226483  0.627305  0  4.210967  0
C  C63  1  0.48912724  0.49245862  0.38551469  1  1.601768  0  0.226462  0.627338  0  4.21074  0
C  C64  1  0.87805122  0.35976937  0.86385559  1  0.485304  0  0.045653  0.08648  0  3.937222  0
C  C65  1  0.12194135  0.14021523  0.36385296  1  0.485177  0  0.045739  0.086636  0  3.936957  0
C  C66  1  0.12193668  0.64022897  0.13614369  1  0.485968  0  0.045681  0.086508  0  3.936917  0
C  C67  1  0.87806720  0.85978493  0.63615301  1  0.485387  0  0.045741  0.086408  0  3.936939  0
C  C68  1  0.99881672  0.32849498  0.88336998  1  -0.065406  0  -0.074263  -0.103391  0  3.945945  0
C  C69  1  0.00118217  0.17149731  0.38336890  1  -0.065686  0  -0.07432  -0.103367  0  3.94585  0
C  C70  1  0.00116724  0.67149720  0.11663332  1  -0.065522  0  -0.074349  -0.103455  0  3.945771  0
C  C71  1  0.99881734  0.82848809  0.61663529  1  -0.065325  0  -0.074209  -0.103258  0  3.945395  0
C  C72  1  0.11649958  0.44525557  0.91929279  1  0.015693  0  -0.054804  -0.035701  0  3.900715  0
C  C73  1  0.88350673  0.05474343  0.41929353  1  0.016214  0  -0.05469  -0.035422  0  3.900682  0
C  C74  1  0.88348438  0.55473661  0.08070872  1  0.015471  0  -0.054815  -0.035788  0  3.900858  0
C  C75  1  0.11650901  0.94525650  0.58071244  1  0.015804  0  -0.054825  -0.035765  0  3.900572  0
C  C76  1  0.10751221  0.58777268  0.93609061  1  -0.00839  0  -0.009269  -0.077523  0  3.933173  0
C  C77  1  0.89248958  0.91222558  0.43609262  1  -0.008524  0  -0.009223  -0.077568  0  3.933252  0
C  C78  1  0.89246604  0.41221844  0.06391403  1  -0.008405  0  -0.009274  -0.077491  0  3.933245  0
C  C79  1  0.10752253  0.08776442  0.56390667  1  -0.008515  0  -0.009308  -0.077528  0  3.933186  0
C  C80  1  0.97960874  0.60755564  0.91593193  1  0.428564  0  0.052026  0.071695  0  3.871405  0
C  C81  1  0.02038612  0.89243368  0.41593401  1  0.428481  0  0.052022  0.071803  0  3.871313  0
C  C82  1  0.02037228  0.39243915  0.08406690  1  0.428276  0  0.052104  0.071858  0  3.871364  0
C  C83  1  0.97964163  0.10756962  0.58407509  1  0.428518  0  0.052089  0.071825  0  3.871511  0
C  C84  1  0.23717960  0.72079448  0.97268736  1  1.611812  0  0.226781  0.643238  0  4.178758  0
C  C85  1  0.76282081  0.77921833  0.47268379  1  1.611694  0  0.22669  0.643105  0  4.178873  0
C  C86  1  0.76281714  0.27923370  0.02731505  1  1.611448  0  0.226647  0.643084  0  4.178767  0
C  C87  1  0.23718688  0.22077559  0.52732040  1  1.611275  0  0.226651  0.643129  0  4.178606  0
C  C88  1  0.47926968  0.50334286  0.03297490  1  1.627361  0  0.206134  0.491615  0  4.240566  0
C  C89  1  0.52069998  0.99664512  0.53297059  1  1.600031  0  0.206187  0.49192  0  4.240626  0
C  C90  1  0.52068230  0.49665665  0.96702483  1  1.599643  0  0.206164  0.491794  0  4.240343  0
C  C91  1  0.47929826  0.00332651  0.46701844  1  1.627825  0  0.206114  0.491633  0  4.240395  0
C  C92  1  0.99129262  0.98860314  0.03442374  1  1.593657  0  0.208665  0.487434  0  4.263154  0
C  C93  1  0.00871901  0.51138976  0.53442478  1  1.593944  0  0.208676  0.487446  0  4.262958  0
C  C94  1  0.00869569  0.01140271  0.96556751  1  1.628276  0  0.208801  0.487542  0  4.263101  0
C  C95  1  0.99130724  0.48857718  0.46556514  1  1.627724  0  0.208909  0.487618  0  4.262551  0
N  N96  1  0.47776421  0.94800102  0.28095213  1  -1.183373  0  -0.347728  -0.197557  0  3.643899  0
N  N97  1  0.52223430  0.55200950  0.78095199  1  -1.183387  0  -0.347565  -0.197358  0  3.643895  0
N  N98  1  0.52225982  0.05201873  0.71904582  1  -1.183313  0  -0.347772  -0.197648  0  3.644132  0
N  N99  1  0.47774858  0.44800030  0.21904551  1  -1.183459  0  -0.347744  -0.197561  0  3.644158  0
N  N100  1  0.86786050  0.49678778  0.87961037  1  -1.198943  0  -0.347536  -0.199299  0  3.637094  0
N  N101  1  0.13212655  0.00319729  0.37961096  1  -1.198838  0  -0.347613  -0.199523  0  3.637124  0
N  N102  1  0.13211556  0.50320089  0.12039025  1  -1.199281  0  -0.34756  -0.199418  0  3.637007  0
N  N103  1  0.86789269  0.99681006  0.62039323  1  -1.199514  0  -0.347575  -0.199333  0  3.637237  0
O  O104  1  0.54500707  0.95207517  0.07018681  1  -1.207582  0  -0.403586  -0.691464  0  2.447905  0
O  O105  1  0.45500260  0.54792223  0.57018541  1  -1.208219  0  -0.403508  -0.691419  0  2.448172  0
O  O106  1  0.45497606  0.04794843  0.92980757  1  -1.207857  0  -0.403533  -0.691394  0  2.448459  0
O  O107  1  0.54502055  0.45205360  0.42981789  1  -1.207932  0  -0.403598  -0.691429  0  2.448115  0
O  O108  1  0.39753216  0.05654663  0.11062825  1  -1.149653  0  -0.370952  -0.624711  0  2.235067  0
O  O109  1  0.60248544  0.44346378  0.61063511  1  -1.149431  0  -0.370973  -0.624814  0  2.234531  0
O  O110  1  0.60246625  0.94346517  0.88937059  1  -1.149277  0  -0.370886  -0.624643  0  2.234851  0
O  O111  1  0.39751790  0.55651647  0.38936908  1  -1.149624  0  -0.370886  -0.624633  0  2.235028  0
O  O112  1  0.20784753  0.82640110  0.99870212  1  -1.197006  0  -0.381491  -0.66348  0  2.303172  0
O  O113  1  0.79214354  0.67360120  0.49870633  1  -1.196756  0  -0.381489  -0.663465  0  2.302692  0
O  O114  1  0.79211995  0.17360920  0.00129493  1  -1.196932  0  -0.3814  -0.663372  0  2.302878  0
O  O115  1  0.20786512  0.32636381  0.50129385  1  -1.196919  0  -0.3813  -0.663412  0  2.303267  0
O  O116  1  0.36741947  0.71674541  0.97267746  1  -1.192684  0  -0.38016  -0.664382  0  2.337757  0
O  O117  1  0.63259284  0.78325947  0.47267540  1  -1.192716  0  -0.380091  -0.664308  0  2.338153  0
O  O118  1  0.63257880  0.28326388  0.02732137  1  -1.192459  0  -0.380114  -0.664377  0  2.337879  0
O  O119  1  0.36743174  0.21672385  0.52732656  1  -1.192217  0  -0.38022  -0.664476  0  2.337325  0
O  O120  1  0.38448659  0.36609833  0.05699263  1  -1.178078  0  -0.380423  -0.59078  0  2.396226  0
O  O121  1  0.61549879  0.13387823  0.55700636  1  -1.177851  0  -0.380361  -0.590959  0  2.395782  0
O  O122  1  0.61546775  0.63389734  0.94299417  1  -1.177811  0  -0.380404  -0.590913  0  2.395709  0
O  O123  1  0.38450974  0.86608427  0.44300675  1  -1.178177  0  -0.380488  -0.590848  0  2.396433  0
O  O124  1  0.54068749  0.64218494  0.05834197  1  -1.173979  0  -0.349093  -0.569195  0  2.327415  0
O  O125  1  0.45934065  0.85784805  0.55834673  1  -1.174675  0  -0.349124  -0.569298  0  2.32785  0
O  O126  1  0.45929561  0.35784745  0.94165107  1  -1.174035  0  -0.349138  -0.569197  0  2.327751  0
O  O127  1  0.54070721  0.14219352  0.44166014  1  -1.174106  0  -0.349051  -0.569152  0  2.3271  0
O  O128  1  0.11701206  0.04569300  0.06455809  1  -1.180495  0  -0.370863  -0.58803  0  2.299726  0
O  O129  1  0.88299367  0.45429308  0.56456875  1  -1.180308  0  -0.370891  -0.588145  0  2.299243  0
O  O130  1  0.88294159  0.95429014  0.93544075  1  -1.179919  0  -0.37093  -0.588107  0  2.299596  0
O  O131  1  0.11705360  0.54570079  0.43544927  1  -1.180588  0  -0.37098  -0.588117  0  2.300242  0
O  O132  1  0.85174922  0.91427957  0.05493363  1  -1.192946  0  -0.383545  -0.612702  0  2.30402  0
O  O133  1  0.14823577  0.58568195  0.55494255  1  -1.193445  0  -0.383479  -0.612665  0  2.304265  0
O  O134  1  0.14823968  0.08572752  0.94506967  1  -1.192852  0  -0.383498  -0.612549  0  2.304323  0
O  O135  1  0.85172143  0.41424457  0.44508082  1  -1.191668  0  -0.383643  -0.612633  0  2.303654  0
