# generated using pymatgen
data_CuH16C8(NO2)2
_symmetry_space_group_name_H-M   'P 1'
_cell_length_a   7.68816719
_cell_length_b   8.78083093
_cell_length_c   9.03328865
_cell_angle_alpha   100.22612432
_cell_angle_beta   91.92173942
_cell_angle_gamma   88.30951098
_symmetry_Int_Tables_number   1
_chemical_formula_structural   CuH16C8(NO2)2
_chemical_formula_sum   'Cu2 H32 C16 N4 O8'
_cell_volume   599.62709019
_cell_formula_units_Z   2
loop_
 _symmetry_equiv_pos_site_id
 _symmetry_equiv_pos_as_xyz
  1  'x, y, z'
loop_
 _atom_site_type_symbol
 _atom_site_label
 _atom_site_symmetry_multiplicity
 _atom_site_fract_x
 _atom_site_fract_y
 _atom_site_fract_z
 _atom_site_occupancy
 _atom_site_hle17_ddec_charge
 _atom_site_hle17_ddec_spin_density
 _atom_site_hle17_ddec_sum_bond_order
 _atom_site_hle17_magmom
 _atom_site_hse06_10hf_ddec_charge
 _atom_site_hse06_10hf_ddec_spin_density
 _atom_site_hse06_10hf_ddec_sum_bond_order
 _atom_site_hse06_10hf_magmom
 _atom_site_hse06_ddec_charge
 _atom_site_hse06_ddec_spin_density
 _atom_site_hse06_ddec_sum_bond_order
 _atom_site_hse06_magmom
 _atom_site_pbe_cm5_charge
 _atom_site_pbe_ddec_charge
 _atom_site_pbe_ddec_spin_density
 _atom_site_pbe_ddec_sum_bond_order
 _atom_site_pbe_magmom
Cu  Cu0  1  0.14751103  0.27196242  0.15191626  1  0.77827  -0.699869  1.806267  -0.494  0.762246  -0.79877  2.164908  -0.62  0.849802  -0.875806  2.111888  -0.708  0.711573  0.7066  -0.718201  2.201757  -0.541
Cu  Cu1  1  0.85250322  0.72806801  0.84807959  1  0.777944  0.699848  1.806705  0.494  0.761894  0.798767  2.165345  0.62  0.84945  0.875809  2.112356  0.708  0.711571  0.706278  0.718194  2.202183  0.541
H  H2  1  0.30599366  0.57603422  0.32745683  1  0.094476  -2.1e-05  0.95704  0.0  0.116066  5.2e-05  1.017801  0.0  0.116316  3.5e-05  1.0185  0.0  0.100801  0.115806  5.3e-05  1.017169  0.0
H  H3  1  0.69401553  0.42395328  0.67260601  1  0.094435  2.5e-05  0.957038  0.0  0.115846  -5.2e-05  1.018004  0.0  0.116116  -3.5e-05  1.018681  0.0  0.100751  0.115566  -5.3e-05  1.017395  0.0
H  H4  1  0.33855479  0.56348538  0.13313072  1  0.112215  -0.000374  0.949214  -0.001  0.133832  -0.000234  1.005663  -0.001  0.133536  -0.000163  1.007526  0.0  0.111452  0.133522  -0.000272  1.004678  -0.001
H  H5  1  0.66147626  0.43653823  0.86693828  1  0.112  0.000375  0.949366  0.001  0.133595  0.000234  1.005884  0.001  0.133296  0.000163  1.007752  0.0  0.111281  0.133286  0.000272  1.004892  0.001
H  H6  1  0.52437568  0.56898708  0.25861681  1  0.090349  -0.003511  0.940549  -0.004  0.110387  -0.002347  1.004293  -0.002  0.111634  -0.00169  1.003124  -0.002  0.097268  0.109096  -0.002735  1.00549  -0.003
H  H7  1  0.47564464  0.43100473  0.74146076  1  0.090273  0.003515  0.940458  0.004  0.110381  0.002348  1.004125  0.002  0.111627  0.00169  1.002957  0.002  0.097311  0.109092  0.002736  1.005322  0.003
H  H8  1  0.46647159  0.32807823  0.98841101  1  0.107565  -0.00065  0.95544  -0.001  0.127162  -0.000442  1.017294  -0.001  0.127761  -0.000302  1.017642  -0.001  0.103447  0.126373  -0.000521  1.017388  -0.001
H  H9  1  0.53354360  0.67194437  0.01161134  1  0.107512  0.000649  0.95542  0.001  0.127073  0.000441  1.017317  0.001  0.12767  0.000302  1.017666  0.001  0.103412  0.126284  0.000521  1.017415  0.001
H  H10  1  0.51888900  0.16596099  0.07583131  1  0.122876  -0.000228  0.939201  -0.001  0.139331  -0.000127  1.003055  0.0  0.141346  -8.8e-05  1.00052  0.0  0.106076  0.137313  -0.000143  1.005445  0.0
H  H11  1  0.48112920  0.83405325  0.92417771  1  0.122822  0.000227  0.939182  0.001  0.139264  0.000127  1.003042  0.0  0.141288  8.8e-05  1.000497  0.0  0.106073  0.137248  0.000143  1.005433  0.0
H  H12  1  0.64727118  0.33475435  0.12189670  1  0.1075  -0.004443  0.940499  -0.006  0.124805  -0.002861  1.004174  -0.004  0.126053  -0.001999  1.003397  -0.003  0.096621  0.123226  -0.0033  1.005293  -0.004
H  H13  1  0.35273951  0.66525926  0.87813056  1  0.107547  0.004442  0.940432  0.006  0.124861  0.00286  1.004093  0.004  0.126096  0.001999  1.003333  0.003  0.096619  0.123277  0.0033  1.005213  0.004
H  H14  1  0.48620290  0.17796640  0.32221391  1  0.082344  9.7e-05  0.915881  0.0  0.103789  0.000123  0.966834  0.0  0.104161  8.7e-05  0.966852  0.0  0.117372  0.102992  0.000149  0.967427  0.0
H  H15  1  0.51378212  0.82199584  0.67777012  1  0.082244  -0.0001  0.916166  0.0  0.103812  -0.000123  0.966962  0.0  0.104145  -8.7e-05  0.967032  0.0  0.117362  0.103035  -0.000149  0.967522  0.0
H  H16  1  0.55059675  0.36440522  0.41318466  1  0.066247  -0.002504  0.926421  -0.003  0.087231  -0.001786  0.984739  -0.002  0.086937  -0.001266  0.986075  -0.001  0.104107  0.086999  -0.00208  0.984233  -0.002
H  H17  1  0.44940530  0.63553819  0.58683514  1  0.066225  0.002492  0.926327  0.003  0.086988  0.001786  0.984924  0.002  0.086701  0.001267  0.986253  0.001  0.103996  0.086784  0.00208  0.984375  0.002
H  H18  1  0.23844394  0.43150443  0.48238083  1  0.07368  0.000133  0.945062  0.0  0.091492  0.000198  1.007943  0.0  0.091743  0.000144  1.00808  0.0  0.11103  0.090866  0.000222  1.008331  0.0
H  H19  1  0.76156435  0.56845042  0.51765231  1  0.073733  -0.000135  0.945206  0.0  0.091548  -0.000197  1.008007  0.0  0.091826  -0.000144  1.008104  0.0  0.111019  0.090924  -0.000222  1.008397  0.0
H  H20  1  0.31552605  0.26988886  0.55956107  1  0.076164  -0.001916  0.914134  -0.003  0.094478  -0.001303  0.970779  -0.002  0.095813  -0.000889  0.969063  -0.001  0.107162  0.092864  -0.001531  0.972614  -0.002
H  H21  1  0.68445959  0.73002604  0.44042867  1  0.076113  0.001911  0.914182  0.003  0.094423  0.001303  0.970798  0.002  0.095733  0.00089  0.969126  0.001  0.10713  0.092813  0.001531  0.972636  0.002
H  H22  1  0.16733623  0.03326034  0.48792560  1  0.081196  -0.003465  0.943052  -0.004  0.101883  -0.002432  1.006973  -0.003  0.102434  -0.001742  1.007041  -0.002  0.09407  0.100942  -0.002892  1.007568  -0.003
H  H23  1  0.83262687  0.96668038  0.51201362  1  0.081368  0.003467  0.943075  0.004  0.102056  0.002433  1.007006  0.003  0.102609  0.001742  1.007074  0.002  0.094114  0.101109  0.002892  1.007602  0.003
H  H24  1  0.28224757  0.01043248  0.31448244  1  0.107488  -0.000329  0.937035  -0.001  0.128306  -0.000231  0.99399  -0.001  0.129  -0.000161  0.994176  0.0  0.106519  0.127337  -0.000261  0.994167  -0.001
H  H25  1  0.71772050  0.98953923  0.68545767  1  0.10743  0.000327  0.937113  0.001  0.12822  0.000231  0.994134  0.001  0.128913  0.000161  0.994319  0.0  0.106465  0.127244  0.000261  0.994311  0.001
H  H26  1  0.05371793  0.99324211  0.30902027  1  0.107777  -0.000138  0.932919  0.0  0.129569  -5.6e-05  0.990227  0.0  0.129978  -4.1e-05  0.990491  0.0  0.109794  0.128686  -3.5e-05  0.990458  0.0
H  H27  1  0.94625224  0.00674797  0.69091740  1  0.107505  0.000136  0.933089  0.0  0.129306  5.5e-05  0.990443  0.0  0.129707  4.2e-05  0.990716  0.0  0.109699  0.128423  3.5e-05  0.990661  0.0
H  H28  1  0.86767632  0.20472182  0.37607974  1  0.103879  -0.000203  0.945219  -0.001  0.123415  -0.000111  1.007538  0.0  0.124761  -7.6e-05  1.007006  0.0  0.102778  0.121968  -0.000104  1.008469  0.0
H  H29  1  0.13231117  0.79527353  0.62387987  1  0.103798  0.000197  0.945147  0.001  0.123346  0.000111  1.007434  0.0  0.124685  7.6e-05  1.006897  0.0  0.10276  0.121902  0.000104  1.00836  0.0
H  H30  1  0.94519075  0.39605483  0.41187222  1  0.106861  -0.000596  0.967229  -0.001  0.124131  -0.000413  1.036349  -0.001  0.124683  -0.000281  1.036325  -0.001  0.103353  0.123186  -0.000472  1.037095  -0.001
H  H31  1  0.05481397  0.60393331  0.58812726  1  0.106962  0.000591  0.967147  0.001  0.124101  0.000413  1.036407  0.001  0.124662  0.000282  1.036373  0.001  0.103341  0.123157  0.000473  1.037159  0.001
H  H32  1  0.97053901  0.27976462  0.55684191  1  0.10208  -0.003663  0.940489  -0.005  0.121236  -0.002478  1.003181  -0.003  0.122557  -0.001757  1.002098  -0.003  0.09609  0.119788  -0.002859  1.004109  -0.004
H  H33  1  0.02943974  0.72018502  0.44312859  1  0.101985  0.003656  0.940522  0.005  0.12112  0.002479  1.003268  0.003  0.122437  0.001757  1.002187  0.003  0.096013  0.119678  0.00286  1.004192  0.004
C  C34  1  0.04532857  0.45155233  0.92909943  1  0.517354  0.004898  3.923254  0.008  0.482868  0.000803  4.225709  0.003  0.514843  0.000725  4.218619  0.002  0.188509  0.460678  0.000757  4.229559  0.003
C  C35  1  0.95466587  0.54853839  0.07094140  1  0.518369  -0.004887  3.922452  -0.008  0.483718  -0.000807  4.225043  -0.003  0.51569  -0.00073  4.217946  -0.002  0.188773  0.461523  -0.000757  4.228908  -0.003
C  C36  1  0.08953872  0.95670506  0.98225041  1  0.511363  -0.004111  3.930632  -0.007  0.476873  -0.000377  4.23029  -0.003  0.509077  -0.000402  4.223909  -0.002  0.191196  0.454517  -0.000344  4.233076  -0.003
C  C37  1  0.91047828  0.04334185  0.01767957  1  0.510887  0.004124  3.930545  0.007  0.476398  0.000377  4.230218  0.003  0.508603  0.000398  4.223833  0.002  0.191055  0.454047  0.000346  4.233002  0.003
C  C38  1  0.39081198  0.52631507  0.23534119  1  -0.19059  0.002166  3.64443  0.004  -0.284973  0.000135  3.896494  0.002  -0.281873  0.000603  3.909155  0.002  -0.149148  -0.286321  -0.000254  3.888418  0.002
C  C39  1  0.60920683  0.47368705  0.76472243  1  -0.190144  -0.002178  3.6443  -0.004  -0.284406  -0.000135  3.896327  -0.002  -0.281333  -0.000603  3.909  -0.002  -0.148983  -0.285723  0.000255  3.888221  -0.002
C  C40  1  0.51481134  0.29253749  0.09265355  1  -0.194636  0.002112  3.600435  0.005  -0.28904  -0.000214  3.857268  0.002  -0.285333  0.000437  3.866153  0.002  -0.154985  -0.291068  -0.000705  3.852967  0.002
C  C41  1  0.48519840  0.70747842  0.90736848  1  -0.194556  -0.00211  3.600375  -0.005  -0.288886  0.000215  3.85713  -0.002  -0.285174  -0.000439  3.866017  -0.002  -0.154941  -0.290918  0.000705  3.852832  -0.002
C  C42  1  0.44096859  0.29888756  0.35360202  1  -0.036973  0.000899  3.6379  0.003  -0.095887  -0.000848  3.900971  0.001  -0.092513  -0.000176  3.915308  0.001  -0.067412  -0.097673  -0.001321  3.891616  0.0
C  C43  1  0.55902680  0.70107453  0.64640816  1  -0.036548  -0.000863  3.638242  -0.003  -0.095375  0.000845  3.901177  -0.001  -0.091991  0.000175  3.91555  -0.001  -0.067215  -0.097185  0.00132  3.891809  0.0
C  C44  1  0.28386045  0.31057921  0.45276279  1  -0.045354  0.001141  3.647514  0.003  -0.104622  -0.000495  3.91426  0.001  -0.100966  7.5e-05  3.927002  0.001  -0.070011  -0.106445  -0.000903  3.906004  0.001
C  C45  1  0.71613356  0.68937363  0.54724248  1  -0.045686  -0.001136  3.648223  -0.003  -0.104911  0.000494  3.914807  -0.001  -0.101246  -7.4e-05  3.927548  -0.001  -0.07003  -0.106764  0.000905  3.906596  -0.001
C  C46  1  0.16277479  0.05505710  0.37121615  1  -0.18594  0.001973  3.656924  0.004  -0.280805  -0.0  3.911784  0.002  -0.278014  0.000475  3.925036  0.002  -0.146278  -0.281872  -0.000379  3.903745  0.002
C  C47  1  0.83719799  0.94491335  0.62873294  1  -0.185635  -0.001967  3.656969  -0.004  -0.280552  3e-06  3.911961  -0.002  -0.277744  -0.000477  3.925205  -0.002  -0.146156  -0.28161  0.00038  3.903908  -0.002
C  C48  1  0.96997048  0.27872478  0.43454999  1  -0.198493  0.002226  3.630287  0.005  -0.29723  -0.000169  3.891308  0.002  -0.294233  0.000385  3.901801  0.002  -0.153878  -0.298597  -0.000521  3.88578  0.002
C  C49  1  0.03002200  0.72125323  0.56542710  1  -0.198414  -0.002191  3.630046  -0.005  -0.296994  0.000167  3.890968  -0.002  -0.293987  -0.000386  3.901474  -0.002  -0.153837  -0.298372  0.000522  3.885438  -0.002
N  N50  1  0.39293252  0.35568061  0.21261800  1  -0.11201  -0.088598  3.310363  -0.11  -0.035189  -0.059437  3.586639  -0.079  -0.063994  -0.048644  3.616345  -0.069  -0.362658  -0.019157  -0.062775  3.569226  -0.08
N  N51  1  0.60707638  0.64431921  0.78740914  1  -0.112246  0.08858  3.310359  0.11  -0.035488  0.059432  3.586693  0.079  -0.064283  0.048639  3.616392  0.069  -0.362761  -0.01946  0.062774  3.569285  0.08
N  N52  1  0.13887424  0.22202421  0.37033676  1  -0.111927  -0.084935  3.304891  -0.106  -0.032814  -0.059309  3.576341  -0.079  -0.060849  -0.048602  3.605891  -0.069  -0.357555  -0.017681  -0.06241  3.55908  -0.08
N  N53  1  0.86111797  0.77795270  0.62964457  1  -0.111862  0.084943  3.304929  0.106  -0.03274  0.059321  3.576306  0.079  -0.060782  0.048609  3.60586  0.069  -0.357537  -0.017615  0.062424  3.559077  0.08
O  O54  1  0.15138516  0.34252969  0.95233625  1  -0.561267  -0.07559  2.09432  -0.098  -0.538165  -0.049004  2.360377  -0.07  -0.575817  -0.037938  2.353477  -0.057  -0.331581  -0.511949  -0.055917  2.364442  -0.076
O  O55  1  0.84864391  0.65758384  0.04770722  1  -0.56148  0.075587  2.093973  0.098  -0.538317  0.049004  2.360046  0.07  -0.575964  0.037938  2.353145  0.057  -0.331647  -0.512112  0.055915  2.364125  0.076
O  O56  1  0.98918882  0.51416470  0.19798118  1  -0.589881  0.009858  2.013103  0.012  -0.55953  0.006396  2.261884  0.008  -0.582878  0.004416  2.250029  0.006  -0.326953  -0.540423  0.01078  2.268002  0.014
O  O57  1  0.01078822  0.48591521  0.80206009  1  -0.589508  -0.009868  2.01365  -0.012  -0.559158  -0.006399  2.262291  -0.008  -0.58251  -0.004417  2.250444  -0.006  -0.326865  -0.540059  -0.010788  2.268407  -0.014
O  O58  1  0.08409208  0.82260227  0.89886052  1  -0.557072  0.076585  2.130236  0.1  -0.527031  0.04994  2.395128  0.071  -0.56739  0.038768  2.392531  0.058  -0.322692  -0.49817  0.056562  2.395739  0.077
O  O59  1  0.91593468  0.17743971  0.10107928  1  -0.55698  -0.076588  2.130195  -0.1  -0.526929  -0.049935  2.395125  -0.071  -0.567288  -0.038765  2.392519  -0.058  -0.322647  -0.498065  -0.056556  2.395738  -0.077
O  O60  1  0.22671966  0.02142561  0.03556314  1  -0.56589  0.010773  2.010337  0.013  -0.534079  0.006214  2.247726  0.008  -0.558839  0.003963  2.236662  0.005  -0.316076  -0.513669  0.011176  2.253388  0.014
O  O61  1  0.77328985  0.97863086  0.96436678  1  -0.565743  -0.010784  2.010237  -0.013  -0.533928  -0.006219  2.247653  -0.008  -0.558687  -0.003961  2.236589  -0.005  -0.316117  -0.513521  -0.011185  2.253312  -0.014
