# generated using pymatgen
data_CoH26C25S2(NO)4
_symmetry_space_group_name_H-M   'P 1'
_cell_length_a   11.98833150
_cell_length_b   12.04105963
_cell_length_c   24.65648799
_cell_angle_alpha   89.88368224
_cell_angle_beta   90.04021885
_cell_angle_gamma   89.90725158
_symmetry_Int_Tables_number   1
_chemical_formula_structural   CoH26C25S2(NO)4
_chemical_formula_sum   'Co4 H104 C100 S8 N16 O16'
_cell_volume   3559.20575662
_cell_formula_units_Z   4
loop_
 _symmetry_equiv_pos_site_id
 _symmetry_equiv_pos_as_xyz
  1  'x, y, z'
loop_
 _atom_site_type_symbol
 _atom_site_label
 _atom_site_symmetry_multiplicity
 _atom_site_fract_x
 _atom_site_fract_y
 _atom_site_fract_z
 _atom_site_occupancy
 _atom_site_pbe_bader_charge
 _atom_site_pbe_bader_spin_density
 _atom_site_pbe_cm5_charge
 _atom_site_pbe_ddec_charge
 _atom_site_pbe_ddec_spin_density
 _atom_site_pbe_ddec_sum_bond_order
 _atom_site_pbe_magmom
Co  Co0  1  0.25002229  0.25013170  0.08352385  1  0.894064  0.993199  0.460411  0.371505  1.164324  3.154455  0.99
Co  Co1  1  0.74990249  0.74998802  0.58344940  1  0.899993  -0.963713  0.462368  0.373581  -1.129786  3.147946  -0.961
Co  Co2  1  0.74998639  0.74992481  0.91651302  1  0.896634  -0.980039  0.46567  0.371802  -1.149405  3.16351  -0.977
Co  Co3  1  0.25006061  0.24997466  0.41958019  1  1.020238  2.425962  0.492623  0.49434  2.812078  2.78378  2.409
H  H4  1  0.41640118  0.43186644  0.10995995  1  0.088003  0.001106  0.105809  0.08305  0.000351  1.040676  0.001
H  H5  1  0.08387717  0.06869938  0.10957141  1  0.071798  0.000898  0.106053  0.083295  0.000273  1.040985  0.001
H  H6  1  0.56780167  0.91580823  0.61043506  1  0.086953  -0.001044  0.106649  0.084144  -0.000325  1.042068  -0.001
H  H7  1  0.93221761  0.58475145  0.61022051  1  0.087611  -0.000916  0.106944  0.084409  -0.000276  1.041704  -0.001
H  H8  1  0.58379658  0.56844215  0.89017019  1  0.083199  -0.001135  0.106244  0.083268  -0.000363  1.040964  -0.001
H  H9  1  0.91587450  0.93107230  0.89065769  1  0.069768  -0.0009  0.106643  0.083934  -0.000273  1.041636  -0.001
H  H10  1  0.43220397  0.07953937  0.38680943  1  0.094742  0.001419  0.107031  0.08566  0.000262  1.032429  0.001
H  H11  1  0.06781957  0.42015725  0.38671331  1  0.096374  0.001418  0.107026  0.085713  0.00026  1.032268  0.001
H  H12  1  0.43874063  0.58677533  0.17595572  1  0.081117  0.000985  0.111587  0.133591  0.00046  0.984086  0.0
H  H13  1  0.06151734  0.91378694  0.17573306  1  0.087626  0.000859  0.111858  0.133761  0.000408  0.98485  0.0
H  H14  1  0.41295874  0.93788987  0.67700350  1  0.090046  -0.000945  0.112112  0.134646  -0.000444  0.983847  0.0
H  H15  1  0.08689034  0.56256736  0.67690048  1  0.0962  -0.000855  0.112352  0.134608  -0.000408  0.984081  0.0
H  H16  1  0.56213086  0.41286788  0.82441128  1  0.086521  -0.001013  0.112149  0.13429  -0.000474  0.983647  0.0
H  H17  1  0.93767988  0.08649560  0.82467126  1  0.093159  -0.000864  0.112473  0.134856  -0.000413  0.983854  0.0
H  H18  1  0.58721103  0.05810449  0.31969023  1  0.101005  0.001122  0.112171  0.134294  0.000517  0.985528  0.0
H  H19  1  0.91265756  0.44171455  0.31957748  1  0.101899  0.001125  0.112097  0.134125  0.000519  0.984987  0.0
H  H20  1  0.13754088  0.46919724  0.25428376  1  0.080316  0.000604  0.103125  0.119884  0.000267  1.045849  0.0
H  H21  1  0.36254264  0.03120318  0.25419616  1  0.084187  0.000517  0.103059  0.119785  0.000234  1.04615  0.0
H  H22  1  0.53149778  0.63642967  0.75438371  1  0.076609  -0.000573  0.102977  0.119351  -0.000268  1.044097  0.0
H  H23  1  0.96774394  0.86326833  0.75409981  1  0.079243  -0.000512  0.103114  0.120206  -0.000246  1.04312  0.0
H  H24  1  0.86335444  0.53073057  0.74614732  1  0.083253  -0.00061  0.10306  0.119964  -0.000284  1.043631  0.0
H  H25  1  0.63666589  0.96882010  0.74624101  1  0.082577  -0.000507  0.103428  0.12064  -0.000244  1.043553  0.0
H  H26  1  0.47396612  0.36600336  0.24653730  1  0.102578  0.000807  0.103025  0.119398  0.000369  1.044566  0.0
H  H27  1  0.02613550  0.13430537  0.24664965  1  0.072694  0.000823  0.103046  0.119375  0.000372  1.043987  0.0
H  H28  1  0.12997070  0.32092808  0.18530784  1  0.113038  0.001209  0.102479  0.073933  0.000388  1.051641  0.001
H  H29  1  0.37013420  0.17973491  0.18517035  1  0.115881  0.001047  0.102533  0.073976  0.000324  1.052761  0.001
H  H30  1  0.67989012  0.62937838  0.68499857  1  0.110106  -0.001159  0.102  0.072961  -0.000372  1.05596  -0.001
H  H31  1  0.81924797  0.87036111  0.68472643  1  0.106115  -0.001039  0.102391  0.073534  -0.000325  1.056852  -0.001
H  H32  1  0.86996938  0.67980095  0.81477323  1  0.115658  -0.001257  0.102  0.073341  -0.000411  1.05458  -0.001
H  H33  1  0.62993758  0.81954229  0.81494073  1  0.110438  -0.001064  0.102546  0.073955  -0.000336  1.055364  -0.001
H  H34  1  0.32855595  0.37425057  0.31791665  1  0.121137  0.002028  0.100886  0.074622  0.000796  1.05183  0.001
H  H35  1  0.17175280  0.12593610  0.31802372  1  0.116295  0.002037  0.100983  0.075054  0.000797  1.051495  0.001
H  H36  1  0.20488446  0.57693700  0.31998913  1  0.109352  0.000559  0.099192  0.073907  0.000406  1.038589  0.0
H  H37  1  0.29542014  0.92305857  0.31989017  1  0.104721  0.000537  0.099288  0.073869  0.000392  1.037314  0.0
H  H38  1  0.42339295  0.70255716  0.82039246  1  0.094638  0.000276  0.098652  0.070578  0.000157  1.040385  0.0
H  H39  1  0.07621691  0.79738688  0.82021522  1  0.095349  0.000272  0.098616  0.070602  0.000151  1.040752  0.0
H  H40  1  0.79775857  0.42247467  0.68113751  1  0.099444  0.00026  0.099659  0.071188  0.000145  1.037934  0.0
H  H41  1  0.70226446  0.07750849  0.68119591  1  0.1  0.000275  0.100045  0.071696  0.000155  1.037072  0.0
H  H42  1  0.57632555  0.29736495  0.17841187  1  0.130966  -0.000267  0.098625  0.070356  -0.000152  1.040842  0.0
H  H43  1  0.92360459  0.20276958  0.17855179  1  0.093455  -0.000259  0.098795  0.070537  -0.000143  1.04052  0.0
H  H44  1  0.13719810  0.66810932  0.27207019  1  0.066826  -3.9e-05  0.106026  0.079926  -3.5e-05  0.971869  0.0
H  H45  1  0.36305963  0.83212919  0.27206330  1  0.064021  -4.6e-05  0.105943  0.079567  -3.7e-05  0.972338  0.0
H  H46  1  0.33087889  0.63699256  0.77259722  1  0.075347  0.000125  0.106957  0.081735  3.5e-05  0.970471  0.0
H  H47  1  0.16870689  0.86315815  0.77240132  1  0.070665  0.000129  0.106872  0.081764  3.7e-05  0.969977  0.0
H  H48  1  0.86417087  0.33038090  0.72895951  1  0.092623  0.000121  0.10663  0.081325  3.3e-05  0.970437  0.0
H  H49  1  0.63588618  0.16937182  0.72890598  1  0.094698  0.000126  0.107174  0.081928  3.5e-05  0.97017  0.0
H  H50  1  0.66937621  0.36268254  0.22609355  1  0.071636  -0.000127  0.107199  0.081529  -3.7e-05  0.971944  0.0
H  H51  1  0.83067033  0.13724117  0.22628092  1  0.107184  -0.000128  0.107232  0.081797  -3.7e-05  0.971942  0.0
H  H52  1  0.18274568  0.84518803  0.39461591  1  0.113444  0.003212  0.094167  0.083011  0.002338  1.048905  0.0
H  H53  1  0.31762827  0.65460181  0.39475502  1  0.123368  0.003228  0.094104  0.082636  0.002359  1.050054  0.0
H  H54  1  0.15296923  0.68449577  0.89542643  1  0.083842  0.000415  0.097945  0.085906  0.000386  1.031492  0.0
H  H55  1  0.34679682  0.81532177  0.89539479  1  0.086369  0.000419  0.097734  0.085404  0.000388  1.031713  0.0
H  H56  1  0.81490967  0.15359892  0.60615545  1  0.109992  0.000363  0.098991  0.08601  0.000363  1.028896  0.0
H  H57  1  0.68501319  0.34648064  0.60601106  1  0.107956  0.000365  0.09876  0.086387  0.000364  1.029155  0.0
H  H58  1  0.84652898  0.31561002  0.10294637  1  0.104064  -0.000418  0.098011  0.085799  -0.000392  1.02992  0.0
H  H59  1  0.65346900  0.18460157  0.10291554  1  0.104154  -0.000424  0.097953  0.085617  -0.000396  1.030496  0.0
H  H60  1  0.08884458  0.83036677  0.33877774  1  0.066056  0.000173  0.103053  0.07751  5.2e-05  0.97391  0.0
H  H61  1  0.41154034  0.66975533  0.33896430  1  0.066878  0.000177  0.10296  0.077768  5.5e-05  0.973554  0.0
H  H62  1  0.16816725  0.59010118  0.83990663  1  0.042672  2.9e-05  0.104295  0.07906  1.4e-05  0.973695  0.0
H  H63  1  0.33151977  0.90992609  0.83979145  1  0.043272  2.7e-05  0.103853  0.078604  1.3e-05  0.974211  0.0
H  H64  1  0.91018596  0.16729870  0.66166997  1  0.051887  -3.3e-05  0.104273  0.079522  -1.2e-05  0.972477  0.0
H  H65  1  0.58987587  0.33256234  0.66153694  1  0.055547  -3.2e-05  0.104233  0.079635  -1.1e-05  0.972692  0.0
H  H66  1  0.83210690  0.40956603  0.15868396  1  0.067501  -3.1e-05  0.104957  0.080203  -1.7e-05  0.974607  0.0
H  H67  1  0.66787981  0.09045055  0.15875250  1  0.066638  -3.2e-05  0.104838  0.080038  -1.7e-05  0.974511  0.0
H  H68  1  0.89851264  0.89916091  0.50922577  1  0.134486  -0.000728  0.095583  0.072955  -0.000267  1.06714  -0.001
H  H69  1  0.60208170  0.60046123  0.50954495  1  0.126909  -0.000669  0.09562  0.073134  -0.000245  1.0677  -0.001
H  H70  1  0.09865480  0.39613040  0.00911324  1  0.13413  0.000661  0.095401  0.072724  0.000216  1.069403  0.001
H  H71  1  0.40125680  0.10338576  0.00893519  1  0.131515  0.00074  0.095432  0.072339  0.000243  1.068358  0.001
H  H72  1  0.10187794  0.09932005  0.49183233  1  0.085992  0.001709  0.097399  0.075461  0.000705  1.059962  0.001
H  H73  1  0.39777333  0.40077615  0.49171228  1  0.082552  0.001713  0.097481  0.075656  0.000706  1.060545  0.001
H  H74  1  0.90133506  0.60482828  0.99046289  1  0.134685  -0.000681  0.095862  0.073514  -0.000227  1.069551  -0.001
H  H75  1  0.59887624  0.89572084  0.99065919  1  0.133144  -0.000779  0.095578  0.072862  -0.000261  1.068343  -0.001
H  H76  1  0.03607611  0.88988520  0.43493724  1  0.105679  0.000635  0.099205  0.119844  0.000449  1.055388  0.0
H  H77  1  0.46454779  0.60999216  0.43522236  1  0.098925  0.000656  0.099495  0.120423  0.00045  1.05397  0.0
H  H78  1  0.10744883  0.53425872  0.93517711  1  0.072884  0.000669  0.100016  0.119735  0.000364  1.050538  0.0
H  H79  1  0.39244458  0.96543034  0.93505098  1  0.068565  0.000727  0.099962  0.119567  0.000383  1.050932  0.0
H  H80  1  0.96402060  0.10791469  0.56633987  1  0.087297  0.001018  0.100201  0.11987  0.000515  1.05126  0.0
H  H81  1  0.53572010  0.39200081  0.56627214  1  0.0889  0.001024  0.100255  0.120014  0.000518  1.050699  0.0
H  H82  1  0.89232929  0.46648964  0.06424855  1  0.082712  -0.000676  0.100681  0.120109  -0.000368  1.049696  0.0
H  H83  1  0.60772879  0.03387787  0.06439294  1  0.080731  -0.000743  0.100486  0.120122  -0.000392  1.050277  0.0
H  H84  1  0.99034086  0.53328961  0.43559873  1  0.066261  -0.000616  0.105479  0.122541  -0.000273  1.030787  0.0
H  H85  1  0.50970069  0.96663505  0.43576745  1  0.070754  -0.000558  0.10547  0.12263  -0.000251  1.030642  0.0
H  H86  1  0.46607693  0.49197483  0.93681928  1  0.105077  0.000497  0.105324  0.122228  0.000214  1.032188  0.0
H  H87  1  0.03374616  0.00766906  0.93655809  1  0.080559  0.000587  0.105246  0.121833  0.000249  1.033178  0.0
H  H88  1  0.00642416  0.46498248  0.56496376  1  0.039687  0.000858  0.105772  0.123745  0.000358  1.030335  0.0
H  H89  1  0.49386028  0.03487305  0.56509395  1  0.036946  0.000854  0.105817  0.123312  0.000356  1.031277  0.0
H  H90  1  0.53366692  0.50865552  0.06242753  1  0.07008  -0.000508  0.105913  0.12298  -0.000215  1.030468  0.0
H  H91  1  0.96650101  0.99184458  0.06281363  1  0.106748  -0.000599  0.105731  0.12277  -0.000256  1.031224  0.0
H  H92  1  0.85440808  0.55895831  0.51031473  1  0.100858  -0.000982  0.099385  0.082172  -0.000366  1.050148  -0.001
H  H93  1  0.64561423  0.94080078  0.51047574  1  0.103807  -0.000918  0.099655  0.08307  -0.000346  1.05053  -0.001
H  H94  1  0.44076679  0.35440786  0.01076920  1  0.103828  0.000962  0.100088  0.083315  0.000359  1.049856  0.001
H  H95  1  0.05926126  0.14504531  0.01044352  1  0.117377  0.001049  0.099979  0.082379  0.000388  1.049039  0.001
H  H96  1  0.14331458  0.43955656  0.48998089  1  0.103802  0.001496  0.099942  0.083383  0.000486  1.049923  0.001
H  H97  1  0.35686642  0.06047864  0.49005957  1  0.105737  0.001501  0.09978  0.083039  0.000483  1.050055  0.001
H  H98  1  0.55914863  0.64651422  0.98862118  1  0.094515  -0.000974  0.100002  0.084132  -0.000368  1.050869  -0.001
H  H99  1  0.94090253  0.85407569  0.98908435  1  0.104533  -0.001085  0.100185  0.083099  -0.000404  1.049554  -0.001
H  H100  1  0.44219332  0.11274029  0.09981696  1  -0.038385  -0.002693  0.090467  0.122148  -0.001028  1.06819  -0.001
H  H101  1  0.05779956  0.38715196  0.09975734  1  -0.036986  -0.002745  0.090552  0.122266  -0.001054  1.068502  -0.001
H  H102  1  0.88762249  0.94119569  0.59962206  1  -0.039907  0.002569  0.090664  0.122544  0.000975  1.068627  0.001
H  H103  1  0.61239380  0.55871175  0.59974008  1  -0.039454  0.002609  0.090636  0.122427  0.000995  1.068399  0.001
H  H104  1  0.55774725  0.88753187  0.90008728  1  -0.038704  0.002623  0.090779  0.122108  0.001001  1.06768  0.001
H  H105  1  0.94222763  0.61268749  0.90015136  1  -0.038443  0.002691  0.090753  0.122249  0.001032  1.06736  0.001
H  H106  1  0.10970786  0.05335605  0.40526871  1  -0.017409  -0.000445  0.08772  0.12724  -0.000877  1.076729  -0.002
H  H107  1  0.39035765  0.44666689  0.40520787  1  -0.017148  -0.000444  0.087858  0.127359  -0.000877  1.076615  -0.002
C  C108  1  0.35545208  0.44435230  0.14205097  1  0.476561  -0.005987  0.035081  0.090965  -0.002997  3.977625  -0.004
C  C109  1  0.14480873  0.05632254  0.14171962  1  0.471575  -0.006433  0.034755  0.091136  -0.003275  3.973138  -0.004
C  C110  1  0.55552164  0.85482480  0.64246362  1  0.494156  0.006093  0.035987  0.091873  0.003072  3.974777  0.004
C  C111  1  0.94422086  0.64555899  0.64224015  1  0.483454  0.006412  0.035741  0.091055  0.003269  3.972636  0.004
C  C112  1  0.64485941  0.55584055  0.85815096  1  0.470581  0.005982  0.034999  0.091472  0.003006  3.976491  0.004
C  C113  1  0.85487952  0.94350625  0.85855694  1  0.476582  0.006534  0.034812  0.091685  0.003339  3.97328  0.004
C  C114  1  0.44660866  0.14237974  0.35578831  1  0.472051  -0.005375  0.037792  0.100621  -0.002815  3.98534  -0.004
C  C115  1  0.05346024  0.35746603  0.35572139  1  0.439138  -0.005408  0.03779  0.100281  -0.002843  3.985497  -0.004
C  C116  1  0.36846838  0.52982157  0.17900482  1  -0.029576  0.004199  -0.107122  -0.260267  0.002302  3.988166  0.003
C  C117  1  0.13176668  0.97076017  0.17878540  1  -0.018664  0.004057  -0.106547  -0.259779  0.002206  3.988623  0.003
C  C118  1  0.47012068  0.86765123  0.67973057  1  -0.025946  -0.004088  -0.106232  -0.260064  -0.00223  3.988177  -0.003
C  C119  1  0.02965293  0.63272618  0.67958538  1  -0.018444  -0.003995  -0.106463  -0.259244  -0.002167  3.98811  -0.003
C  C120  1  0.63224851  0.47001261  0.82137313  1  -0.022606  -0.004188  -0.106582  -0.259884  -0.002298  3.987497  -0.003
C  C121  1  0.86756515  0.02935036  0.82164324  1  -0.014147  -0.004022  -0.106924  -0.261033  -0.002186  3.989954  -0.003
C  C122  1  0.53145602  0.12959378  0.31817865  1  -0.055328  0.00485  -0.106573  -0.262548  0.002683  3.986386  0.004
C  C123  1  0.96848822  0.37029500  0.31809875  1  -0.021258  0.004855  -0.106447  -0.262066  0.002691  3.983998  0.004
C  C124  1  0.28861178  0.54316407  0.22018231  1  0.447903  -0.0094  0.095253  0.296006  -0.005294  4.066534  -0.006
C  C125  1  0.21157403  0.95727078  0.22004239  1  0.454335  -0.00975  0.094081  0.294858  -0.005493  4.068841  -0.007
C  C126  1  0.45707386  0.78759634  0.72074908  1  0.434492  0.009529  0.094176  0.294888  0.005365  4.065212  0.006
C  C127  1  0.04255000  0.71252791  0.72059456  1  0.43413  0.009803  0.093948  0.294181  0.005519  4.066344  0.007
C  C128  1  0.71241651  0.45666273  0.78037085  1  0.452925  0.009458  0.094744  0.295965  0.00533  4.067098  0.006
C  C129  1  0.78751193  0.04284330  0.78052862  1  0.459878  0.009901  0.094069  0.29616  0.005582  4.067548  0.007
C  C130  1  0.54520261  0.21160614  0.27815623  1  0.494867  -0.009001  0.096298  0.298947  -0.0051  4.06759  -0.006
C  C131  1  0.95475940  0.28843089  0.27815380  1  0.492957  -0.009071  0.096515  0.299752  -0.005138  4.06645  -0.006
C  C132  1  0.20127595  0.46613271  0.22293697  1  0.001607  0.003852  -0.112785  -0.274375  0.002  3.982871  0.003
C  C133  1  0.29883109  0.03436346  0.22278772  1  -0.004636  0.003675  -0.112093  -0.273706  0.00189  3.984231  0.003
C  C134  1  0.53434925  0.70030736  0.72315413  1  -0.015696  -0.003789  -0.112937  -0.273283  -0.001985  3.98291  -0.003
C  C135  1  0.96501641  0.79957475  0.72289416  1  -0.009019  -0.003685  -0.112678  -0.273681  -0.001917  3.984267  -0.003
C  C136  1  0.79949985  0.53389743  0.77744788  1  -0.010454  -0.003881  -0.112228  -0.274377  -0.002037  3.983527  -0.003
C  C137  1  0.70048097  0.96557112  0.77761214  1  -0.003653  -0.003681  -0.112249  -0.274884  -0.001911  3.98534  -0.003
C  C138  1  0.47022982  0.30093568  0.27714068  1  -0.039889  0.004787  -0.112451  -0.273924  0.002531  3.980763  0.004
C  C139  1  0.02987108  0.19923079  0.27720232  1  -0.007594  0.004809  -0.112656  -0.274572  0.002545  3.981503  0.004
C  C140  1  0.19676070  0.38211201  0.18434217  1  0.476441  -0.008692  0.036025  0.104567  -0.004578  3.949459  -0.005
C  C141  1  0.30338800  0.11856265  0.18413046  1  0.460702  -0.009133  0.036114  0.104321  -0.004871  3.94814  -0.006
C  C142  1  0.61842024  0.69605726  0.68433262  1  0.491503  0.008738  0.036258  0.104346  0.004595  3.950281  0.005
C  C143  1  0.88085994  0.80384976  0.68404953  1  0.477651  0.009062  0.036231  0.103692  0.004816  3.950068  0.006
C  C144  1  0.80347610  0.61832765  0.81582488  1  0.470362  0.008613  0.03646  0.105015  0.004535  3.95224  0.005
C  C145  1  0.69639986  0.88098492  0.81607066  1  0.446864  0.009177  0.035831  0.104133  0.004881  3.950192  0.006
C  C146  1  0.38772271  0.30543754  0.31673157  1  0.48946  -0.007603  0.039277  0.114671  -0.003918  3.960889  -0.005
C  C147  1  0.11248675  0.19467032  0.31679200  1  0.490217  -0.007691  0.039426  0.11462  -0.003962  3.960948  -0.005
C  C148  1  0.21559295  0.65019121  0.29368890  1  0.363536  0.000807  -0.064154  -0.026502  0.000451  3.833538  0.001
C  C149  1  0.28469395  0.84993905  0.29363901  1  0.370257  0.000777  -0.063632  -0.025745  0.000432  3.834159  0.001
C  C150  1  0.34966005  0.71452834  0.79432704  1  0.380079  0.000107  -0.064681  -0.02858  9.1e-05  3.835912  0.0
C  C151  1  0.14994032  0.78554346  0.79420213  1  0.384191  0.00011  -0.064178  -0.027711  9.2e-05  3.833527  0.0
C  C152  1  0.78606155  0.34911234  0.70727349  1  0.341195  7.9e-05  -0.063324  -0.0268  7.4e-05  3.837341  0.0
C  C153  1  0.71399626  0.15071749  0.70729498  1  0.338862  9e-05  -0.064024  -0.028481  8.2e-05  3.840116  0.0
C  C154  1  0.65043762  0.28538573  0.20421609  1  0.336712  -9.9e-05  -0.06445  -0.028434  -8.5e-05  3.837054  0.0
C  C155  1  0.84950962  0.21461571  0.20431302  1  0.336855  -9.3e-05  -0.064415  -0.028794  -8.2e-05  3.837691  0.0
C  C156  1  0.25015945  0.74999352  0.32835166  1  0.078908  0.000117  -0.018324  0.050966  2.7e-05  3.807886  0.0
C  C157  1  0.24981051  0.75002579  0.82914149  1  0.028042  3.4e-05  -0.017491  0.052154  8e-06  3.803482  0.0
C  C158  1  0.75006164  0.24999211  0.67255354  1  0.079073  3.8e-05  -0.018717  0.05154  1.2e-05  3.815992  0.0
C  C159  1  0.74995899  0.25000832  0.16929214  1  0.072615  -2.2e-05  -0.01955  0.054421  -2e-06  3.812327  0.0
C  C160  1  0.15170043  0.78699195  0.36369781  1  0.351006  0.003762  -0.066988  -0.033021  0.002169  3.818373  0.003
C  C161  1  0.34865154  0.71294558  0.36381097  1  0.33926  0.003834  -0.066731  -0.032491  0.0022  3.817707  0.003
C  C162  1  0.21148513  0.65270273  0.86470665  1  0.426989  0.00083  -0.06464  -0.031646  0.000473  3.823309  0.001
C  C163  1  0.28819945  0.84725092  0.86464055  1  0.426402  0.000838  -0.06433  -0.030797  0.000478  3.821045  0.001
C  C164  1  0.84729040  0.21122220  0.63701515  1  0.385255  0.000793  -0.064979  -0.033425  0.000437  3.829647  0.001
C  C165  1  0.65275602  0.28876726  0.63694620  1  0.383136  0.000799  -0.064915  -0.034525  0.00044  3.831202  0.001
C  C166  1  0.78840398  0.34726268  0.13387258  1  0.373126  -0.000844  -0.064465  -0.033667  -0.000477  3.827027  -0.001
C  C167  1  0.71159512  0.15287069  0.13392165  1  0.373992  -0.000859  -0.064465  -0.03315  -0.000488  3.827037  -0.001
C  C168  1  0.92254047  0.81886668  0.49238310  1  0.427944  0.003377  0.035718  0.110048  0.001754  3.952961  0.002
C  C169  1  0.57795087  0.68085735  0.49270999  1  0.423145  0.003586  0.035998  0.110806  0.001883  3.949485  0.003
C  C170  1  0.17927460  0.42098909  0.99257431  1  0.473607  -0.004053  0.03675  0.111255  -0.002154  3.94698  -0.003
C  C171  1  0.32067468  0.07851071  0.99231799  1  0.482595  -0.003709  0.03678  0.111644  -0.001939  3.950691  -0.003
C  C172  1  0.07685379  0.17932941  0.50868149  1  0.520354  -0.005586  0.037927  0.115457  -0.002931  3.955485  -0.003
C  C173  1  0.42293306  0.32071196  0.50861173  1  0.524006  -0.005695  0.037317  0.114984  -0.002984  3.956147  -0.003
C  C174  1  0.82066935  0.57987958  0.00688015  1  0.453333  0.004029  0.036195  0.110537  0.00214  3.946651  0.003
C  C175  1  0.67947889  0.92071089  0.00718514  1  0.466019  0.003651  0.036481  0.111455  0.001904  3.950508  0.003
C  C176  1  0.99869043  0.81341513  0.44990007  1  -0.029846  -0.001909  -0.112655  -0.273036  -0.001025  3.981526  -0.002
C  C177  1  0.50176639  0.68644570  0.45018884  1  -0.028864  -0.001823  -0.11259  -0.274181  -0.000972  3.980102  -0.002
C  C178  1  0.18453165  0.49776426  0.95038045  1  -0.011976  0.002968  -0.113341  -0.275784  0.001603  3.986909  0.002
C  C179  1  0.31540240  0.00190024  0.95018942  1  -0.081302  0.003124  -0.11378  -0.275978  0.001699  3.986588  0.002
C  C180  1  0.00063998  0.18450459  0.55111829  1  -0.023207  0.004226  -0.113169  -0.274798  0.002262  3.985937  0.003
C  C181  1  0.49920701  0.31544693  0.55106840  1  -0.021937  0.004258  -0.113022  -0.275137  0.002278  3.987107  0.003
C  C182  1  0.81529393  0.50297358  0.04897951  1  -0.001532  -0.002998  -0.112535  -0.274461  -0.001622  3.987669  -0.002
C  C183  1  0.68476498  0.99746462  0.04921312  1  -0.011377  -0.003194  -0.113268  -0.276168  -0.001736  3.987434  -0.002
C  C184  1  0.02648406  0.70907361  0.42875183  1  0.452333  0.004146  0.096643  0.297594  0.002336  4.068752  0.003
C  C185  1  0.47374059  0.79082576  0.42892663  1  0.471257  0.004297  0.096869  0.299896  0.002423  4.067345  0.003
C  C186  1  0.28931732  0.52690642  0.92977528  1  0.426006  -0.00496  0.095626  0.297995  -0.00282  4.06996  -0.003
C  C187  1  0.21054610  0.97286350  0.92959966  1  0.48652  -0.004684  0.095209  0.296708  -0.002669  4.071074  -0.003
C  C188  1  0.97232094  0.28895401  0.57188204  1  0.411909  -0.007833  0.096176  0.297308  -0.004445  4.070603  -0.005
C  C189  1  0.52772705  0.21094485  0.57191651  1  0.479737  -0.007947  0.096325  0.297659  -0.00452  4.071247  -0.005
C  C190  1  0.71040149  0.47367273  0.06940137  1  0.422284  0.004906  0.0954  0.296028  0.00279  4.074499  0.003
C  C191  1  0.78968915  0.02668057  0.06964552  1  0.428426  0.004619  0.095878  0.29798  0.002631  4.070449  0.003
C  C192  1  0.97289832  0.61607631  0.45100607  1  -0.017463  -0.002458  -0.106447  -0.254728  -0.001367  3.981683  -0.002
C  C193  1  0.52718208  0.88374581  0.45120155  1  -0.017401  -0.002336  -0.106124  -0.256031  -0.001298  3.981125  -0.002
C  C194  1  0.38294183  0.47371222  0.95201167  1  -0.060511  0.002683  -0.106307  -0.255543  0.001463  3.983436  0.002
C  C195  1  0.11689094  0.02591411  0.95174561  1  -0.044875  0.002831  -0.106903  -0.255632  0.001552  3.984443  0.002
C  C196  1  0.02485403  0.38240080  0.54958278  1  0.097083  0.003996  -0.106424  -0.255513  0.002182  3.980819  0.003
C  C197  1  0.47532909  0.11752061  0.54966268  1  0.037537  0.003994  -0.106703  -0.255313  0.002193  3.980724  0.003
C  C198  1  0.61680026  0.52696715  0.04723027  1  0.013252  -0.002708  -0.106002  -0.254243  -0.001481  3.983117  -0.002
C  C199  1  0.88337714  0.97354149  0.04760462  1  -0.042402  -0.002905  -0.105914  -0.254827  -0.001594  3.982196  -0.002
C  C200  1  0.89805986  0.63042667  0.49326969  1  0.485801  0.002563  0.031627  0.087444  0.001278  3.970164  0.002
C  C201  1  0.60209026  0.86929448  0.49351425  1  0.486521  0.002775  0.031966  0.089036  0.001418  3.96718  0.002
C  C202  1  0.36876225  0.39798489  0.99386363  1  0.485543  -0.003233  0.032741  0.088266  -0.001667  3.966336  -0.002
C  C203  1  0.13115648  0.10148379  0.99351808  1  0.477253  -0.002938  0.033494  0.089974  -0.001475  3.969938  -0.002
C  C204  1  0.09980222  0.36835570  0.50740636  1  0.424662  -0.004998  0.033522  0.094116  -0.00249  3.973205  -0.003
C  C205  1  0.40031231  0.13164931  0.50744651  1  0.416513  -0.005095  0.033786  0.095048  -0.002541  3.971969  -0.003
C  C206  1  0.63110823  0.60283191  0.00548255  1  0.483473  0.003211  0.032678  0.086963  0.001659  3.967926  0.002
C  C207  1  0.86905453  0.89777948  0.00594896  1  0.47372  0.002869  0.032567  0.088068  0.001438  3.970669  0.002
S  S208  1  0.43837172  0.22139409  0.08613736  1  -0.439361  -0.039446  -0.3098  -0.540653  -0.019068  2.535273  -0.021
S  S209  1  0.06160175  0.27854842  0.08618157  1  -0.441083  -0.039463  -0.310272  -0.541285  -0.019091  2.534727  -0.021
S  S210  1  0.77853867  0.93791405  0.58593354  1  -0.437283  0.038787  -0.309621  -0.539902  0.018791  2.518782  0.021
S  S211  1  0.72158350  0.56207043  0.58632208  1  -0.437111  0.038782  -0.309341  -0.539317  0.018819  2.520313  0.021
S  S212  1  0.56140522  0.77876025  0.91354057  1  -0.436862  0.039043  -0.307851  -0.538974  0.018879  2.532417  0.021
S  S213  1  0.93860255  0.72142161  0.91348216  1  -0.437909  0.039099  -0.308129  -0.539703  0.018931  2.532236  0.021
S  S214  1  0.22077251  0.05125815  0.41387336  1  -0.538237  0.151278  -0.340241  -0.60288  0.085637  2.373256  0.091
S  S215  1  0.27925519  0.44866408  0.41362921  1  -0.538321  0.151323  -0.339873  -0.602702  0.085671  2.376061  0.091
N  N216  1  0.27016243  0.37105550  0.14324904  1  -1.193422  0.034224  -0.333076  -0.196497  0.021354  3.587789  0.031
N  N217  1  0.23009908  0.12973993  0.14287713  1  -1.181306  0.028004  -0.332992  -0.191384  0.017798  3.589847  0.026
N  N218  1  0.62908448  0.76961187  0.64331492  1  -1.203269  -0.032503  -0.33224  -0.19368  -0.020329  3.588842  -0.03
N  N219  1  0.87032952  0.73057005  0.64300101  1  -1.198959  -0.027966  -0.332232  -0.189638  -0.017745  3.589863  -0.026
N  N220  1  0.72990660  0.62936377  0.85682717  1  -1.189325  -0.034807  -0.333395  -0.195898  -0.021684  3.591162  -0.032
N  N221  1  0.76979873  0.86986016  0.85727533  1  -1.177628  -0.027567  -0.332834  -0.190011  -0.017525  3.593695  -0.025
N  N222  1  0.37599338  0.22961044  0.35641574  1  -1.242656  0.052203  -0.329816  -0.229174  0.032142  3.56643  0.048
N  N223  1  0.12420489  0.27033698  0.35641371  1  -1.243432  0.052126  -0.329963  -0.228661  0.032108  3.567605  0.048
N  N224  1  0.87261228  0.73014820  0.51520636  1  -1.188257  -0.032036  -0.314886  -0.207975  -0.019754  3.483394  -0.029
N  N225  1  0.62783669  0.76949879  0.51556204  1  -1.193528  -0.028139  -0.314705  -0.206524  -0.017546  3.487507  -0.026
N  N226  1  0.26860262  0.37151864  0.01552901  1  -1.187851  0.028216  -0.313695  -0.20222  0.017649  3.483939  0.026
N  N227  1  0.23133836  0.12778401  0.01511776  1  -1.177712  0.033587  -0.314628  -0.20755  0.02067  3.482621  0.031
N  N228  1  0.12576026  0.26850129  0.48586999  1  -1.216854  0.049416  -0.324637  -0.231565  0.030381  3.523042  0.045
N  N229  1  0.37416340  0.23157606  0.48583552  1  -1.219051  0.0494  -0.32495  -0.231489  0.030361  3.525206  0.045
N  N230  1  0.73134883  0.62931368  0.98387638  1  -1.214249  -0.028509  -0.315173  -0.201713  -0.017811  3.492503  -0.026
N  N231  1  0.76882766  0.87147746  0.98438253  1  -1.194963  -0.034831  -0.316208  -0.207191  -0.021431  3.490889  -0.032
O  O232  1  0.30272525  0.62975199  0.25454576  1  -1.083196  -0.00273  -0.175096  -0.197021  -0.001371  2.548938  -0.002
O  O233  1  0.19750674  0.87051969  0.25445816  1  -1.078961  -0.002822  -0.174835  -0.196586  -0.001413  2.550869  -0.002
O  O234  1  0.37041254  0.80167685  0.75541022  1  -1.082278  0.00286  -0.175533  -0.197357  0.001383  2.549882  0.002
O  O235  1  0.12924221  0.69849421  0.75534533  1  -1.080895  0.002928  -0.175145  -0.19727  0.001416  2.549459  0.002
O  O236  1  0.69872759  0.36972945  0.74617815  1  -1.083472  0.002856  -0.175418  -0.197129  0.001384  2.555119  0.002
O  O237  1  0.80130205  0.12987779  0.74626494  1  -1.08415  0.00297  -0.174744  -0.19675  0.001437  2.55586  0.002
O  O238  1  0.63053912  0.19758974  0.24285713  1  -1.080726  -0.002736  -0.173794  -0.196276  -0.001328  2.558237  -0.002
O  O239  1  0.86931273  0.30237229  0.24283320  1  -1.079812  -0.002755  -0.173983  -0.196898  -0.001339  2.558785  -0.002
O  O240  1  0.10078003  0.69089202  0.38832627  1  -1.072398  0.002433  -0.172299  -0.182937  0.001069  2.547315  0.002
O  O241  1  0.39947369  0.80903178  0.38840577  1  -1.074653  0.002479  -0.17225  -0.183608  0.00109  2.547022  0.002
O  O242  1  0.30761409  0.60238242  0.88984533  1  -1.079042  -0.001131  -0.172876  -0.185825  -0.000553  2.549162  -0.001
O  O243  1  0.19217060  0.89752426  0.88972852  1  -1.083585  -0.001078  -0.172618  -0.185302  -0.000531  2.548255  -0.001
O  O244  1  0.89772812  0.30700469  0.61223419  1  -1.084512  -0.002104  -0.172862  -0.184866  -0.001032  2.556315  -0.002
O  O245  1  0.60240720  0.19292788  0.61231043  1  -1.085049  -0.002136  -0.172633  -0.184739  -0.001046  2.557288  -0.002
O  O246  1  0.69210069  0.39791773  0.10912082  1  -1.079663  0.001128  -0.17163  -0.182093  0.000556  2.55263  0.001
O  O247  1  0.80793369  0.10234129  0.10929765  1  -1.084984  0.001074  -0.172269  -0.18405  0.000531  2.550416  0.001
