# generated using pymatgen
data_AgH12C6S3ClO4
_symmetry_space_group_name_H-M   'P 1'
_cell_length_a   8.38205982
_cell_length_b   8.38199315
_cell_length_c   8.38207097
_cell_angle_alpha   82.40010473
_cell_angle_beta   82.39907204
_cell_angle_gamma   82.39970150
_symmetry_Int_Tables_number   1
_chemical_formula_structural   AgH12C6S3ClO4
_chemical_formula_sum   'Ag2 H24 C12 S6 Cl2 O8'
_cell_volume   574.64735353
_cell_formula_units_Z   2
loop_
 _symmetry_equiv_pos_site_id
 _symmetry_equiv_pos_as_xyz
  1  'x, y, z'
loop_
 _atom_site_type_symbol
 _atom_site_label
 _atom_site_symmetry_multiplicity
 _atom_site_fract_x
 _atom_site_fract_y
 _atom_site_fract_z
 _atom_site_occupancy
 _atom_site_hle17_bader_spin_density
 _atom_site_hle17_ddec_charge
 _atom_site_hle17_ddec_spin_density
 _atom_site_hle17_ddec_sum_bond_order
 _atom_site_hle17_magmom
 _atom_site_hse06_10hf_bader_spin_density
 _atom_site_hse06_10hf_ddec_charge
 _atom_site_hse06_10hf_ddec_spin_density
 _atom_site_hse06_10hf_ddec_sum_bond_order
 _atom_site_hse06_10hf_magmom
 _atom_site_hse06_bader_spin_density
 _atom_site_hse06_ddec_charge
 _atom_site_hse06_ddec_spin_density
 _atom_site_hse06_ddec_sum_bond_order
 _atom_site_hse06_magmom
 _atom_site_pbe_bader_spin_density
 _atom_site_pbe_cm5_charge
 _atom_site_pbe_ddec_charge
 _atom_site_pbe_ddec_spin_density
 _atom_site_pbe_ddec_sum_bond_order
 _atom_site_pbe_magmom
Ag  Ag0  1  0.89812243  0.89813205  0.89812624  1  0  0.268739  0  1.849074  0  0  0.147518  0  2.358947  0  0  0.167052  0  2.317999  0  0  0.335912  0.134076  0  2.387063  0
Ag  Ag1  1  0.10187401  0.10187415  0.10187304  1  0  0.268684  0  1.849031  0  0  0.147537  0  2.35878  0  0  0.167032  0  2.317909  0  0  0.335921  0.134104  0  2.3869  0
H  H2  1  0.26043586  0.61354054  0.84399109  1  0  0.116563  0  0.938177  0  0  0.131163  0  0.998322  0  0  0.132361  0  0.998421  0  0  0.10341  0.13019  0  0.99847  0
H  H3  1  0.84399954  0.26043561  0.61353957  1  0  0.116576  0  0.938171  0  0  0.131148  0  0.998367  0  0  0.13236  0  0.998449  0  0  0.10342  0.130178  0  0.99852  0
H  H4  1  0.15600637  0.38646053  0.73956141  1  0  0.116576  0  0.938157  0  0  0.131173  0  0.998322  0  0  0.13238  0  0.998405  0  0  0.103418  0.130201  0  0.998469  0
H  H5  1  0.61352785  0.84400160  0.26043132  1  0  0.116626  0  0.938045  0  0  0.131158  0  0.998248  0  0  0.13237  0  0.998334  0  0  0.103422  0.130182  0  0.998399  0
H  H6  1  0.26043184  0.84400169  0.61352501  1  0  0.116634  0  0.93803  0  0  0.131184  0  0.998225  0  0  0.132395  0  0.99831  0  0  0.103428  0.130207  0  0.998372  0
H  H7  1  0.61353823  0.26043645  0.84400230  1  0  0.11659  0  0.938163  0  0  0.131165  0  0.998348  0  0  0.132377  0  0.998428  0  0  0.103437  0.130194  0  0.998501  0
H  H8  1  0.15599867  0.73956575  0.38645774  1  0  0.116588  0  0.938147  0  0  0.131159  0  0.998321  0  0  0.132371  0  0.998403  0  0  0.10343  0.13019  0  0.998478  0
H  H9  1  0.38647532  0.15599854  0.73956310  1  0  0.116616  0  0.938103  0  0  0.131182  0  0.998278  0  0  0.132382  0  0.998375  0  0  0.103428  0.130204  0  0.998423  0
H  H10  1  0.73957198  0.38646081  0.15599779  1  0  0.116596  0  0.938044  0  0  0.13114  0  0.998258  0  0  0.132357  0  0.998344  0  0  0.103414  0.130168  0  0.998409  0
H  H11  1  0.84400027  0.61354082  0.26042643  1  0  0.116612  0  0.938156  0  0  0.131166  0  0.998338  0  0  0.132381  0  0.998424  0  0  0.103429  0.130196  0  0.998495  0
H  H12  1  0.73956623  0.15600088  0.38647216  1  0  0.116608  0  0.938134  0  0  0.131165  0  0.998311  0  0  0.132376  0  0.998395  0  0  0.103425  0.13019  0  0.998461  0
H  H13  1  0.38646210  0.73956732  0.15599441  1  0  0.116607  0  0.938094  0  0  0.131179  0  0.998288  0  0  0.132386  0  0.998376  0  0  0.103448  0.130209  0  0.998443  0
H  H14  1  0.24907983  0.44875189  0.99930616  1  0  0.103527  0  0.950481  0  0  0.117647  0  1.014629  0  0  0.118736  0  1.014519  0  0  0.096336  0.116771  0  1.014883  0
H  H15  1  0.99931067  0.24908213  0.44874467  1  0  0.103501  0  0.950395  0  0  0.117623  0  1.014561  0  0  0.118712  0  1.01445  0  0  0.096325  0.116752  0  1.014817  0
H  H16  1  0.00069133  0.55125222  0.75091472  1  0  0.103469  0  0.950412  0  0  0.117589  0  1.014597  0  0  0.11867  0  1.014496  0  0  0.09632  0.116712  0  1.014851  0
H  H17  1  0.44873867  0.99931582  0.24908440  1  0  0.103487  0  0.950358  0  0  0.117599  0  1.014503  0  0  0.118683  0  1.014405  0  0  0.096301  0.11672  0  1.014759  0
H  H18  1  0.24908082  0.99931776  0.44874145  1  0  0.103512  0  0.950359  0  0  0.117626  0  1.01451  0  0  0.118709  0  1.014412  0  0  0.09631  0.116745  0  1.014765  0
H  H19  1  0.44874147  0.24908295  0.99930762  1  0  0.10349  0  0.950382  0  0  0.117593  0  1.014582  0  0  0.118675  0  1.014481  0  0  0.0963  0.116723  0  1.014832  0
H  H20  1  0.00068768  0.75091801  0.55125277  1  0  0.103469  0  0.950424  0  0  0.117572  0  1.014614  0  0  0.118658  0  1.014508  0  0  0.09631  0.1167  0  1.014872  0
H  H21  1  0.55126343  0.00068311  0.75091629  1  0  0.103488  0  0.950318  0  0  0.117588  0  1.014484  0  0  0.118672  0  1.014383  0  0  0.096298  0.116704  0  1.014739  0
H  H22  1  0.75092052  0.55125189  0.00068339  1  0  0.103523  0  0.950417  0  0  0.117604  0  1.014606  0  0  0.118696  0  1.014504  0  0  0.096293  0.116728  0  1.014866  0
H  H23  1  0.99931518  0.44875035  0.24907179  1  0  0.103569  0  0.950359  0  0  0.117644  0  1.014555  0  0  0.118734  0  1.014451  0  0  0.096287  0.116774  0  1.014813  0
H  H24  1  0.75091604  0.00068481  0.55125706  1  0  0.10347  0  0.950367  0  0  0.117571  0  1.01455  0  0  0.118654  0  1.014452  0  0  0.0963  0.11669  0  1.014806  0
H  H25  1  0.55125915  0.75091841  0.00068579  1  0  0.103499  0  0.950353  0  0  0.117597  0  1.014549  0  0  0.118683  0  1.014445  0  0  0.096279  0.116723  0  1.014811  0
C  C26  1  0.17647507  0.53910635  0.92305178  1  0  -0.134096  0  3.626407  0  0  -0.171354  0  3.883988  0  0  -0.171243  0  3.896601  0  0  -0.152349  -0.171332  0  3.875348  0
C  C27  1  0.92305773  0.17647560  0.53910409  1  0  -0.134011  0  3.626312  0  0  -0.171286  0  3.883872  0  0  -0.171184  0  3.896495  0  0  -0.152308  -0.171262  0  3.875195  0
C  C28  1  0.07694484  0.46089533  0.82352023  1  0  -0.133835  0  3.626131  0  0  -0.171154  0  3.88377  0  0  -0.171025  0  3.896348  0  0  -0.152281  -0.171163  0  3.875194  0
C  C29  1  0.53909828  0.92306258  0.17647215  1  0  -0.134066  0  3.62619  0  0  -0.171226  0  3.883708  0  0  -0.171128  0  3.89633  0  0  -0.152326  -0.17117  0  3.87501  0
C  C30  1  0.17647141  0.92306270  0.53909791  1  0  -0.134162  0  3.626245  0  0  -0.171366  0  3.883818  0  0  -0.171259  0  3.896426  0  0  -0.152382  -0.171316  0  3.875146  0
C  C31  1  0.53910524  0.17647458  0.92305573  1  0  -0.134003  0  3.626274  0  0  -0.171273  0  3.88384  0  0  -0.171162  0  3.896449  0  0  -0.152323  -0.171246  0  3.875144  0
C  C32  1  0.07693914  0.82352697  0.46089323  1  0  -0.133967  0  3.626237  0  0  -0.171251  0  3.883864  0  0  -0.171143  0  3.896475  0  0  -0.1523  -0.171209  0  3.875138  0
C  C33  1  0.46090127  0.07693757  0.82352513  1  0  -0.134038  0  3.62622  0  0  -0.171228  0  3.88377  0  0  -0.171112  0  3.896373  0  0  -0.152308  -0.171187  0  3.875115  0
C  C34  1  0.82353037  0.46089502  0.07693383  1  0  -0.134122  0  3.626181  0  0  -0.17133  0  3.883691  0  0  -0.171248  0  3.896346  0  0  -0.152328  -0.171283  0  3.875006  0
C  C35  1  0.92306166  0.53910724  0.17646509  1  0  -0.134241  0  3.626314  0  0  -0.17142  0  3.883761  0  0  -0.17133  0  3.896416  0  0  -0.152358  -0.171376  0  3.875057  0
C  C36  1  0.82352560  0.07693866  0.46089835  1  0  -0.134044  0  3.626207  0  0  -0.171246  0  3.883756  0  0  -0.171137  0  3.896365  0  0  -0.152345  -0.171209  0  3.8751  0
C  C37  1  0.46089404  0.82352799  0.07693770  1  0  -0.134023  0  3.62615  0  0  -0.171332  0  3.883809  0  0  -0.171215  0  3.896412  0  0  -0.152311  -0.171289  0  3.875093  0
S  S38  1  0.05729001  0.67460903  0.05727623  1  0  0.008994  0  2.743957  0  0  0.046477  0  3.171247  0  0  0.03899  0  3.166491  0  0  -0.020853  0.051707  0  3.17443  0
S  S39  1  0.05728856  0.05729261  0.67459928  1  0  0.008933  0  2.743971  0  0  0.046424  0  3.171269  0  0  0.03893  0  3.16651  0  0  -0.020891  0.051647  0  3.174448  0
S  S40  1  0.94271756  0.32539476  0.94270402  1  0  0.008945  0  2.743886  0  0  0.046432  0  3.171196  0  0  0.038943  0  3.16644  0  0  -0.020878  0.051662  0  3.174378  0
S  S41  1  0.67459748  0.05729519  0.05729271  1  0  0.008881  0  2.744058  0  0  0.046373  0  3.171341  0  0  0.038878  0  3.166581  0  0  -0.020914  0.051589  0  3.174527  0
S  S42  1  0.94270937  0.94271117  0.32539654  1  0  0.008975  0  2.743848  0  0  0.046461  0  3.171131  0  0  0.038967  0  3.166372  0  0  -0.020862  0.051677  0  3.174325  0
S  S43  1  0.32539910  0.94270980  0.94270671  1  0  0.008936  0  2.743966  0  0  0.046417  0  3.171264  0  0  0.038922  0  3.166497  0  0  -0.020883  0.051633  0  3.174442  0
Cl  Cl44  1  0.64605611  0.64604756  0.64605065  1  0  1.385937  0  6.216299  0  0  1.320773  0  6.790874  0  0  1.37323  0  6.766677  0  0  0.721755  1.284709  0  6.806238  0
Cl  Cl45  1  0.35395251  0.35395742  0.35395078  1  0  1.385571  0  6.216422  0  0  1.320408  0  6.790997  0  0  1.372859  0  6.766821  0  0  0.721641  1.28433  0  6.806369  0
O  O46  1  0.73690455  0.73686757  0.73691219  1  0  -0.602182  0  1.928241  0  0  -0.567333  0  2.21858  0  0  -0.582817  0  2.199266  0  0  -0.34618  -0.556461  0  2.23156  0
O  O47  1  0.26310792  0.26311437  0.26310487  1  0  -0.602041  0  1.92798  0  0  -0.567271  0  2.218407  0  0  -0.58272  0  2.199038  0  0  -0.346219  -0.556454  0  2.23153  0
O  O48  1  0.54539905  0.54541441  0.76212886  1  0  -0.531868  0  1.845975  0  0  -0.501725  0  2.083436  0  0  -0.517861  0  2.071332  0  0  -0.311182  -0.490441  0  2.091293  0
O  O49  1  0.76214010  0.54542330  0.54538940  1  0  -0.531706  0  1.846179  0  0  -0.501578  0  2.08365  0  0  -0.517727  0  2.071556  0  0  -0.311007  -0.490288  0  2.091495  0
O  O50  1  0.23786824  0.45458410  0.45460459  1  0  -0.531752  0  1.846223  0  0  -0.501597  0  2.083677  0  0  -0.517757  0  2.071589  0  0  -0.311112  -0.490311  0  2.091548  0
O  O51  1  0.54541565  0.76217652  0.54541750  1  0  -0.53208  0  1.846305  0  0  -0.501849  0  2.083658  0  0  -0.517992  0  2.071552  0  0  -0.311064  -0.490549  0  2.091495  0
O  O52  1  0.45459679  0.23783693  0.45458709  1  0  -0.531887  0  1.846069  0  0  -0.501729  0  2.083485  0  0  -0.517871  0  2.07138  0  0  -0.311035  -0.490417  0  2.091321  0
O  O53  1  0.45460115  0.45459059  0.23786174  1  0  -0.531672  0  1.846254  0  0  -0.501506  0  2.083694  0  0  -0.517652  0  2.071605  0  0  -0.310996  -0.490221  0  2.091565  0
