# generated using pymatgen
data_GdH6C6SNO8
_symmetry_space_group_name_H-M   'P 1'
_cell_length_a   6.38821405
_cell_length_b   7.69792107
_cell_length_c   20.33501572
_cell_angle_alpha   90.00027679
_cell_angle_beta   89.99979722
_cell_angle_gamma   106.10638392
_symmetry_Int_Tables_number   1
_chemical_formula_structural   GdH6C6SNO8
_chemical_formula_sum   'Gd4 H24 C24 S4 N4 O32'
_cell_volume   960.74255465
_cell_formula_units_Z   4
loop_
 _symmetry_equiv_pos_site_id
 _symmetry_equiv_pos_as_xyz
  1  'x, y, z'
loop_
 _atom_site_type_symbol
 _atom_site_label
 _atom_site_symmetry_multiplicity
 _atom_site_fract_x
 _atom_site_fract_y
 _atom_site_fract_z
 _atom_site_occupancy
 _atom_site_hle17_bader_spin_density
 _atom_site_hle17_ddec_charge
 _atom_site_hle17_ddec_spin_density
 _atom_site_hle17_ddec_sum_bond_order
 _atom_site_hle17_magmom
 _atom_site_hse06_10hf_bader_spin_density
 _atom_site_hse06_10hf_ddec_charge
 _atom_site_hse06_10hf_ddec_spin_density
 _atom_site_hse06_10hf_ddec_sum_bond_order
 _atom_site_hse06_10hf_magmom
 _atom_site_hse06_bader_spin_density
 _atom_site_hse06_ddec_charge
 _atom_site_hse06_ddec_spin_density
 _atom_site_hse06_ddec_sum_bond_order
 _atom_site_hse06_magmom
 _atom_site_pbe_bader_spin_density
 _atom_site_pbe_cm5_charge
 _atom_site_pbe_ddec_charge
 _atom_site_pbe_ddec_spin_density
 _atom_site_pbe_ddec_sum_bond_order
 _atom_site_pbe_magmom
Gd  Gd0  1  0.69206763  0.14927793  0.42924801  1  0  2.206572  0  1.783231  0  0  2.117797  0  2.153609  0  0  2.174729  0  2.089989  0  0  1.504889  2.072702  0  2.205576  0
Gd  Gd1  1  0.80793359  0.85072660  0.92924771  1  0  2.206616  0  1.783229  0  0  2.117885  0  2.153515  0  0  2.174781  0  2.089938  0  0  1.504943  2.072782  0  2.205498  0
Gd  Gd2  1  0.30793430  0.85072507  0.57075256  1  0  2.206529  0  1.783283  0  0  2.117815  0  2.153588  0  0  2.174717  0  2.090024  0  0  1.504909  2.072715  0  2.205573  0
Gd  Gd3  1  0.19205915  0.14927240  0.07075434  1  0  2.206505  0  1.783241  0  0  2.117832  0  2.153478  0  0  2.174689  0  2.089993  0  0  1.504895  2.072713  0  2.205492  0
H  H4  1  0.43821641  0.51652845  0.33272926  1  0  0.144158  0  0.935271  0  0  0.152438  0  0.992211  0  0  0.156912  0  0.989344  0  0  0.122093  0.14913  0  0.994568  0
H  H5  1  0.06179186  0.48347993  0.83272856  1  0  0.144152  0  0.935266  0  0  0.152453  0  0.992192  0  0  0.156927  0  0.989326  0  0  0.122098  0.149161  0  0.994527  0
H  H6  1  0.56179721  0.48348125  0.66727082  1  0  0.144136  0  0.935284  0  0  0.152432  0  0.992212  0  0  0.156905  0  0.989346  0  0  0.122086  0.149117  0  0.994576  0
H  H7  1  0.93820746  0.51651090  0.16727152  1  0  0.144142  0  0.935274  0  0  0.152442  0  0.992201  0  0  0.156917  0  0.989333  0  0  0.122087  0.149134  0  0.994551  0
H  H8  1  0.36096017  0.30799798  0.23477984  1  0  0.144717  0  0.925014  0  0  0.153765  0  0.980482  0  0  0.158171  0  0.976185  0  0  0.145453  0.150538  0  0.983661  0
H  H9  1  0.13904603  0.69201476  0.73477845  1  0  0.144912  0  0.924837  0  0  0.153918  0  0.980374  0  0  0.158327  0  0.976072  0  0  0.145477  0.150684  0  0.983565  0
H  H10  1  0.63904831  0.69201041  0.76522074  1  0  0.144803  0  0.924928  0  0  0.153801  0  0.980467  0  0  0.158208  0  0.97617  0  0  0.145428  0.150572  0  0.98365  0
H  H11  1  0.86095359  0.30798148  0.26522311  1  0  0.144835  0  0.924918  0  0  0.153872  0  0.980441  0  0  0.158281  0  0.97614  0  0  0.145447  0.150637  0  0.983633  0
H  H12  1  0.58482859  0.96558287  0.19620941  1  0  0.145057  0  0.928437  0  0  0.153139  0  0.983508  0  0  0.157402  0  0.981017  0  0  0.125937  0.150056  0  0.985501  0
H  H13  1  0.91516644  0.03442322  0.69620996  1  0  0.145054  0  0.928384  0  0  0.153118  0  0.983471  0  0  0.157383  0  0.980977  0  0  0.125942  0.150035  0  0.985463  0
H  H14  1  0.41516570  0.03441612  0.80378920  1  0  0.145093  0  0.92838  0  0  0.153158  0  0.983458  0  0  0.157413  0  0.980982  0  0  0.125941  0.150079  0  0.985442  0
H  H15  1  0.08483318  0.96557303  0.30378963  1  0  0.144962  0  0.928389  0  0  0.153052  0  0.983484  0  0  0.157314  0  0.980993  0  0  0.125914  0.149967  0  0.985485  0
H  H16  1  0.49617883  0.73771503  0.10359707  1  0  0.152615  0  0.918717  0  0  0.157184  0  0.979946  0  0  0.161573  0  0.975731  0  0  0.146117  0.153893  0  0.983242  0
H  H17  1  0.00382542  0.26229222  0.60359948  1  0  0.152698  0  0.918721  0  0  0.157254  0  0.979948  0  0  0.161647  0  0.97573  0  0  0.146155  0.153963  0  0.983252  0
H  H18  1  0.50382247  0.26229070  0.89639956  1  0  0.152688  0  0.918756  0  0  0.157253  0  0.979969  0  0  0.161637  0  0.975756  0  0  0.14618  0.153963  0  0.983265  0
H  H19  1  0.99617778  0.73770535  0.39640257  1  0  0.152648  0  0.918702  0  0  0.157223  0  0.979923  0  0  0.161612  0  0.975705  0  0  0.146149  0.153931  0  0.983226  0
H  H20  1  0.60872299  0.31114528  0.55621196  1  0  0.458604  0  0.828221  0  0  0.429795  0  0.887358  0  0  0.440568  0  0.871444  0  0  0.31124  0.422091  0  0.898732  0
H  H21  1  0.89127375  0.68885655  0.05621254  1  0  0.458569  0  0.828268  0  0  0.429779  0  0.887375  0  0  0.44055  0  0.871462  0  0  0.311225  0.422076  0  0.898746  0
H  H22  1  0.39127987  0.68886043  0.44378812  1  0  0.45858  0  0.828243  0  0  0.429767  0  0.887388  0  0  0.440538  0  0.871479  0  0  0.311214  0.422062  0  0.898764  0
H  H23  1  0.10872569  0.31114376  0.94378853  1  0  0.458563  0  0.828279  0  0  0.429769  0  0.887392  0  0  0.440539  0  0.871482  0  0  0.311233  0.422066  0  0.898765  0
H  H24  1  0.74684396  0.48550183  0.51452975  1  0  0.463957  0  0.823643  0  0  0.434235  0  0.883469  0  0  0.445206  0  0.867427  0  0  0.310139  0.426435  0  0.894855  0
H  H25  1  0.75315622  0.51449953  0.01453115  1  0  0.463966  0  0.823631  0  0  0.434237  0  0.883463  0  0  0.445207  0  0.867425  0  0  0.310137  0.426448  0  0.894837  0
H  H26  1  0.25315844  0.51450253  0.48546983  1  0  0.46396  0  0.823616  0  0  0.434226  0  0.88346  0  0  0.445197  0  0.867419  0  0  0.310144  0.426434  0  0.894835  0
H  H27  1  0.24684322  0.48550079  0.98547041  1  0  0.463939  0  0.823665  0  0  0.434209  0  0.8835  0  0  0.445176  0  0.867465  0  0  0.310128  0.426418  0  0.894874  0
C  C28  1  0.56862752  0.89361715  0.32671577  1  0  0.640476  0  3.92968  0  0  0.593233  0  4.23094  0  0  0.626058  0  4.223974  0  0  0.198496  0.571071  0  4.234379  0
C  C29  1  0.93137402  0.10638491  0.82671889  1  0  0.640422  0  3.929552  0  0  0.593226  0  4.230766  0  0  0.626046  0  4.22381  0  0  0.19849  0.571065  0  4.234203  0
C  C30  1  0.43137690  0.10638855  0.67328284  1  0  0.640457  0  3.929578  0  0  0.593254  0  4.23077  0  0  0.626078  0  4.2238  0  0  0.198574  0.571096  0  4.234207  0
C  C31  1  0.06862015  0.89360460  0.17328169  1  0  0.640385  0  3.929637  0  0  0.59324  0  4.230758  0  0  0.626063  0  4.223785  0  0  0.198538  0.571078  0  4.234192  0
C  C32  1  0.51870237  0.75971479  0.27194660  1  0  -0.043984  0  3.769743  0  0  -0.027392  0  4.005376  0  0  -0.030229  0  4.026343  0  0  -0.007423  -0.025362  0  3.99162  0
C  C33  1  0.98129960  0.24028666  0.77194597  1  0  -0.044066  0  3.76974  0  0  -0.027518  0  4.005396  0  0  -0.030352  0  4.02636  0  0  -0.007415  -0.025496  0  3.991664  0
C  C34  1  0.48129847  0.24028958  0.72805250  1  0  -0.043959  0  3.769886  0  0  -0.027362  0  4.005478  0  0  -0.030195  0  4.026441  0  0  -0.007439  -0.025338  0  3.991726  0
C  C35  1  0.01869597  0.75970691  0.22805362  1  0  -0.043956  0  3.769857  0  0  -0.02735  0  4.005432  0  0  -0.030189  0  4.026401  0  0  -0.00728  -0.025323  0  3.99169  0
C  C36  1  0.45468122  0.57320828  0.28324126  1  0  -0.097937  0  3.723153  0  0  -0.124578  0  3.981554  0  0  -0.128017  0  4.00103  0  0  -0.069383  -0.122565  0  3.968978  0
C  C37  1  0.04533259  0.42680087  0.78324195  1  0  -0.097974  0  3.723168  0  0  -0.124687  0  3.981681  0  0  -0.128118  0  4.001132  0  0  -0.069461  -0.122683  0  3.9691  0
C  C38  1  0.54532633  0.42679740  0.71675734  1  0  -0.097937  0  3.723236  0  0  -0.124633  0  3.981686  0  0  -0.128073  0  4.001158  0  0  -0.069397  -0.122614  0  3.969114  0
C  C39  1  0.95466547  0.57319538  0.21675813  1  0  -0.098008  0  3.72317  0  0  -0.124699  0  3.981669  0  0  -0.128132  0  4.001127  0  0  -0.069451  -0.122682  0  3.969094  0
C  C40  1  0.41187343  0.45467110  0.23055374  1  0  -0.003433  0  3.562183  0  0  -0.040944  0  3.819905  0  0  -0.035491  0  3.831707  0  0  0.052059  -0.044317  0  3.812074  0
C  C41  1  0.08814281  0.54533881  0.73055509  1  0  -0.003585  0  3.562109  0  0  -0.041061  0  3.819808  0  0  -0.035611  0  3.831612  0  0  0.052035  -0.04443  0  3.811978  0
C  C42  1  0.58814037  0.54533454  0.76944340  1  0  -0.003499  0  3.562019  0  0  -0.040969  0  3.819726  0  0  -0.035518  0  3.83153  0  0  0.052093  -0.044341  0  3.811891  0
C  C43  1  0.91186057  0.45465470  0.26944647  1  0  -0.003468  0  3.561974  0  0  -0.041021  0  3.819745  0  0  -0.035572  0  3.83155  0  0  0.052047  -0.044391  0  3.811911  0
C  C44  1  0.53707436  0.82166568  0.20695677  1  0  -0.085251  0  3.702634  0  0  -0.109605  0  3.956565  0  0  -0.11343  0  3.974435  0  0  -0.065915  -0.107478  0  3.945251  0
C  C45  1  0.96292498  0.17833508  0.70695901  1  0  -0.085058  0  3.70258  0  0  -0.10936  0  3.956454  0  0  -0.113183  0  3.974326  0  0  -0.065909  -0.107231  0  3.94514  0
C  C46  1  0.46292711  0.17833598  0.79304134  1  0  -0.085264  0  3.702859  0  0  -0.109597  0  3.956733  0  0  -0.113428  0  3.974613  0  0  -0.065958  -0.107466  0  3.945419  0
C  C47  1  0.03707527  0.82165845  0.29304206  1  0  -0.085067  0  3.70251  0  0  -0.109466  0  3.956499  0  0  -0.113287  0  3.974372  0  0  -0.06598  -0.107341  0  3.945185  0
C  C48  1  0.49089309  0.70095673  0.15531916  1  0  0.025401  0  3.510298  0  0  -0.014394  0  3.769927  0  0  -0.007511  0  3.779871  0  0  0.054571  -0.018864  0  3.763763  0
C  C49  1  0.00910579  0.29904570  0.65532162  1  0  0.02525  0  3.510469  0  0  -0.014534  0  3.770054  0  0  -0.007655  0  3.780003  0  0  0.054564  -0.019009  0  3.763894  0
C  C50  1  0.50910040  0.29904905  0.84467551  1  0  0.025362  0  3.510738  0  0  -0.014415  0  3.770293  0  0  -0.007532  0  3.780247  0  0  0.054627  -0.018888  0  3.764128  0
C  C51  1  0.99089290  0.70094784  0.34468092  1  0  0.025511  0  3.510316  0  0  -0.014279  0  3.76994  0  0  -0.007394  0  3.779881  0  0  0.054663  -0.018751  0  3.763777  0
S  S52  1  0.21380232  0.16766427  0.44281061  1  0  1.602904  0  5.8283  0  0  1.482758  0  6.376888  0  0  1.538896  0  6.341238  0  0  0.570645  1.443703  0  6.399733  0
S  S53  1  0.28618937  0.83233594  0.94281177  1  0  1.603051  0  5.828288  0  0  1.482823  0  6.37694  0  0  1.538958  0  6.341309  0  0  0.570714  1.443772  0  6.399783  0
S  S54  1  0.78619915  0.83233739  0.55718898  1  0  1.603127  0  5.828037  0  0  1.482985  0  6.376624  0  0  1.53912  0  6.340968  0  0  0.570767  1.44393  0  6.399469  0
S  S55  1  0.71380025  0.16766308  0.05718831  1  0  1.603013  0  5.828222  0  0  1.482868  0  6.376829  0  0  1.539002  0  6.341174  0  0  0.570705  1.443819  0  6.399666  0
N  N56  1  0.42973585  0.51981805  0.16779160  1  0  0.318892  0  3.697994  0  0  0.373105  0  3.956984  0  0  0.374123  0  3.978769  0  0  -0.095334  0.37177  0  3.942258  0
N  N57  1  0.07026745  0.48018855  0.66779433  1  0  0.318811  0  3.698033  0  0  0.373025  0  3.95701  0  0  0.374043  0  3.978796  0  0  -0.095353  0.371691  0  3.942283  0
N  N58  1  0.57026592  0.48018902  0.83220750  1  0  0.318813  0  3.697944  0  0  0.373023  0  3.956909  0  0  0.374041  0  3.978694  0  0  -0.095399  0.371688  0  3.942185  0
N  N59  1  0.92973529  0.51980768  0.33220625  1  0  0.318702  0  3.698126  0  0  0.372945  0  3.957103  0  0  0.373962  0  3.97889  0  0  -0.09539  0.371611  0  3.942375  0
O  O60  1  0.54414817  0.83927486  0.38651308  1  0  -0.687371  0  2.024312  0  0  -0.638965  0  2.262146  0  0  -0.664743  0  2.253489  0  0  -0.356579  -0.620541  0  2.267668  0
O  O61  1  0.95585262  0.16072243  0.88651578  1  0  -0.687261  0  2.024393  0  0  -0.638906  0  2.26221  0  0  -0.664696  0  2.253586  0  0  -0.356572  -0.620484  0  2.267733  0
O  O62  1  0.45585533  0.16072814  0.61348750  1  0  -0.687332  0  2.024326  0  0  -0.638969  0  2.262152  0  0  -0.664742  0  2.253498  0  0  -0.356619  -0.620548  0  2.267674  0
O  O63  1  0.04414138  0.83927114  0.11348480  1  0  -0.687343  0  2.024388  0  0  -0.639  0  2.262153  0  0  -0.664781  0  2.253532  0  0  -0.356648  -0.620575  0  2.267672  0
O  O64  1  0.63794379  0.06142471  0.31331001  1  0  -0.669096  0  1.95976  0  0  -0.634174  0  2.199066  0  0  -0.658061  0  2.189744  0  0  -0.36508  -0.617014  0  2.205003  0
O  O65  1  0.86205583  0.93857585  0.81330932  1  0  -0.669086  0  1.959618  0  0  -0.634172  0  2.198895  0  0  -0.658059  0  2.189579  0  0  -0.365089  -0.617014  0  2.204829  0
O  O66  1  0.36205236  0.93857969  0.68668909  1  0  -0.669086  0  1.959665  0  0  -0.634183  0  2.198962  0  0  -0.658066  0  2.189642  0  0  -0.365117  -0.617024  0  2.204897  0
O  O67  1  0.13793632  0.06141231  0.18669322  1  0  -0.669035  0  1.959586  0  0  -0.634167  0  2.198863  0  0  -0.658044  0  2.189544  0  0  -0.365092  -0.617004  0  2.204795  0
O  O68  1  0.39128906  0.40930579  0.11760223  1  0  -0.630276  0  1.885684  0  0  -0.602559  0  2.13853  0  0  -0.629247  0  2.137653  0  0  -0.33269  -0.58292  0  2.139242  0
O  O69  1  0.10871543  0.59069349  0.61760315  1  0  -0.63024  0  1.885636  0  0  -0.602489  0  2.138475  0  0  -0.629184  0  2.137592  0  0  -0.332681  -0.582856  0  2.13919  0
O  O70  1  0.60871959  0.59069853  0.88239785  1  0  -0.630299  0  1.885665  0  0  -0.602563  0  2.138479  0  0  -0.629265  0  2.137596  0  0  -0.332745  -0.582929  0  2.139194  0
O  O71  1  0.89128714  0.40930681  0.38239792  1  0  -0.630288  0  1.885766  0  0  -0.60255  0  2.13861  0  0  -0.629251  0  2.137726  0  0  -0.332716  -0.582916  0  2.139322  0
O  O72  1  0.15190251  0.28802857  0.49054713  1  0  -0.703075  0  1.967091  0  0  -0.650135  0  2.21211  0  0  -0.671243  0  2.194394  0  0  -0.311983  -0.63513  0  2.224002  0
O  O73  1  0.34809147  0.71197079  0.99054752  1  0  -0.703041  0  1.967079  0  0  -0.650087  0  2.212109  0  0  -0.671179  0  2.194379  0  0  -0.311929  -0.635088  0  2.224001  0
O  O74  1  0.84809601  0.71196903  0.50945344  1  0  -0.703118  0  1.967035  0  0  -0.650186  0  2.212075  0  0  -0.671287  0  2.194355  0  0  -0.31197  -0.635182  0  2.223968  0
O  O75  1  0.65190531  0.28803090  0.00945256  1  0  -0.7031  0  1.967034  0  0  -0.650156  0  2.212049  0  0  -0.671251  0  2.194324  0  0  -0.311976  -0.635156  0  2.223942  0
O  O76  1  0.01440440  0.06282789  0.40776270  1  0  -0.786823  0  2.037557  0  0  -0.741053  0  2.310376  0  0  -0.764811  0  2.294486  0  0  -0.407606  -0.723522  0  2.320955  0
O  O77  1  0.48558258  0.93716655  0.90776040  1  0  -0.787065  0  2.037845  0  0  -0.741202  0  2.310615  0  0  -0.764885  0  2.294568  0  0  -0.407682  -0.723672  0  2.321192  0
O  O78  1  0.98560037  0.93716968  0.59223541  1  0  -0.78688  0  2.03747  0  0  -0.741126  0  2.310289  0  0  -0.764895  0  2.294432  0  0  -0.407661  -0.723594  0  2.32087  0
O  O79  1  0.51440032  0.06283117  0.09223575  1  0  -0.78684  0  2.037509  0  0  -0.741117  0  2.310375  0  0  -0.764866  0  2.294488  0  0  -0.407615  -0.723585  0  2.320955  0
O  O80  1  0.38542545  0.26352625  0.39554828  1  0  -0.768377  0  1.933635  0  0  -0.72423  0  2.186042  0  0  -0.746123  0  2.168849  0  0  -0.397052  -0.708069  0  2.197544  0
O  O81  1  0.11456458  0.73647210  0.89555094  1  0  -0.768372  0  1.933563  0  0  -0.724262  0  2.186082  0  0  -0.746164  0  2.1689  0  0  -0.397077  -0.708101  0  2.197582  0
O  O82  1  0.61457805  0.73647675  0.60445229  1  0  -0.768407  0  1.933622  0  0  -0.724281  0  2.186056  0  0  -0.74617  0  2.168865  0  0  -0.397078  -0.708119  0  2.197557  0
O  O83  1  0.88542005  0.26352154  0.10445209  1  0  -0.768377  0  1.933707  0  0  -0.724249  0  2.186125  0  0  -0.746136  0  2.168936  0  0  -0.397063  -0.708088  0  2.197627  0
O  O84  1  0.31691819  0.03567997  0.47675582  1  0  -0.896684  0  2.113982  0  0  -0.847505  0  2.399775  0  0  -0.8731  0  2.382815  0  0  -0.47417  -0.828182  0  2.411058  0
O  O85  1  0.18307932  0.96432463  0.97675734  1  0  -0.896662  0  2.113847  0  0  -0.847507  0  2.3997  0  0  -0.873102  0  2.382751  0  0  -0.474202  -0.828181  0  2.410982  0
O  O86  1  0.68308375  0.96432303  0.52324475  1  0  -0.896754  0  2.11392  0  0  -0.847552  0  2.399664  0  0  -0.873139  0  2.3827  0  0  -0.474234  -0.828228  0  2.410948  0
O  O87  1  0.81691232  0.03567573  0.02324471  1  0  -0.896695  0  2.113956  0  0  -0.847505  0  2.399702  0  0  -0.873093  0  2.382747  0  0  -0.474242  -0.828181  0  2.410984  0
O  O88  1  0.69332190  0.35115457  0.51559236  1  0  -0.931065  0  1.842811  0  0  -0.891916  0  2.039455  0  0  -0.911621  0  2.005186  0  0  -0.658396  -0.877412  0  2.063987  0
O  O89  1  0.80667406  0.64884818  0.01559246  1  0  -0.931058  0  1.842826  0  0  -0.891927  0  2.039476  0  0  -0.911622  0  2.005223  0  0  -0.65839  -0.877432  0  2.063989  0
O  O90  1  0.30668473  0.64884841  0.48440772  1  0  -0.93104  0  1.842767  0  0  -0.891901  0  2.039474  0  0  -0.911601  0  2.005209  0  0  -0.658376  -0.877404  0  2.06399  0
O  O91  1  0.19332273  0.35115350  0.98440860  1  0  -0.931013  0  1.842832  0  0  -0.891879  0  2.039484  0  0  -0.91157  0  2.005235  0  0  -0.658371  -0.87738  0  2.063999  0
