# generated using pymatgen
data_Zn4H56C46O13
_symmetry_space_group_name_H-M   'P 1'
_cell_length_a   10.84952700
_cell_length_b   10.84791151
_cell_length_c   15.45182262
_cell_angle_alpha   81.57664530
_cell_angle_beta   71.18081657
_cell_angle_gamma   78.17832121
_symmetry_Int_Tables_number   1
_chemical_formula_structural   Zn4H56C46O13
_chemical_formula_sum   'Zn4 H56 C46 O13'
_cell_volume   1678.51102087
_cell_formula_units_Z   1
loop_
 _symmetry_equiv_pos_site_id
 _symmetry_equiv_pos_as_xyz
  1  'x, y, z'
loop_
 _atom_site_type_symbol
 _atom_site_label
 _atom_site_symmetry_multiplicity
 _atom_site_fract_x
 _atom_site_fract_y
 _atom_site_fract_z
 _atom_site_occupancy
 _atom_site_pbe_bader_charge
 _atom_site_pbe_bader_spin_density
 _atom_site_pbe_cm5_charge
 _atom_site_pbe_ddec_charge
 _atom_site_pbe_ddec_spin_density
 _atom_site_pbe_ddec_sum_bond_order
 _atom_site_pbe_magmom
Zn  Zn0  1  0.42443077  0.42504394  0.42149305  1  1.315962  0  0.677796  0.964413  0  2.388965  0
Zn  Zn1  1  0.59871348  0.35697201  0.56232897  1  1.309244  0  0.675685  0.961106  0  2.368226  0
Zn  Zn2  1  0.35976923  0.59185707  0.58926461  1  1.312113  0  0.671963  0.9607  0  2.380236  0
Zn  Zn3  1  0.62173241  0.59851197  0.41506047  1  1.306063  0  0.671697  0.946611  0  2.381694  0
H  H4  1  0.04905260  0.39578025  0.45283087  1  0.141641  0  0.120039  0.149559  0  0.981881  0
H  H5  1  0.20400277  0.39022316  0.80683789  1  0.039547  0  0.09148  0.095799  0  0.9976  0
H  H6  1  0.23094452  0.11285765  0.47307025  1  0.01195  0  0.083733  0.113969  0  1.007676  0
H  H7  1  0.19534598  0.95933080  0.51988113  1  0.03185  0  0.08407  0.113047  0  1.015021  0
H  H8  1  0.12195581  0.09075384  0.58614737  1  0.01741  0  0.087663  0.116481  0  1.003063  0
H  H9  1  0.30811405  0.96394425  0.63886866  1  0.061975  0  0.095591  0.096148  0  0.990164  0
H  H10  1  0.34411847  0.11525271  0.59181413  1  0.01655  0  0.091756  0.085054  0  0.999562  0
H  H11  1  0.76070880  0.15544734  0.34066107  1  0.028693  0  0.085345  0.11403  0  1.020748  0
H  H12  1  0.82024403  0.07409041  0.43128914  1  0.051522  0  0.086887  0.119395  0  1.021528  0
H  H13  1  0.88347098  0.01896667  0.32000462  1  0.015727  0  0.089023  0.117131  0  1.002747  0
H  H14  1  0.72638587  0.88118969  0.42089510  1  0.050979  0  0.0998  0.10577  0  0.986061  0
H  H15  1  0.37325214  0.24619932  0.15262696  1  0.05185  0  0.099744  0.103224  0  1.020101  0
H  H16  1  0.66856084  0.96189040  0.33191472  1  0.068119  0  0.0996  0.100165  0  1.000633  0
H  H17  1  0.93999391  0.22846912  0.15167685  1  0.01327  0  0.081556  0.106362  0  1.020065  0
H  H18  1  0.02208482  0.21076450  0.23623940  1  0.017867  0  0.081717  0.106536  0  1.00949  0
H  H19  1  0.89769540  0.34444465  0.23112444  1  0.019293  0  0.08267  0.116129  0  1.01846  0
H  H20  1  0.12403691  0.40506356  0.16222934  1  0.016994  0  0.087927  0.079056  0  0.980337  0
H  H21  1  0.04094639  0.42452706  0.07904953  1  0.021824  0  0.08701  0.075955  0  0.980765  0
H  H22  1  0.16263372  0.21303581  0.02459320  1  0.027658  0  0.091708  0.087741  0  1.01354  0
H  H23  1  0.24507259  0.19312778  0.10721533  1  -0.015524  0  0.090493  0.085271  0  1.000702  0
H  H24  1  0.86878690  0.38492380  0.67024612  1  0.049403  0  0.076967  0.106076  0  1.05409  0
H  H25  1  0.92213392  0.43191292  0.75606038  1  0.021235  0  0.081105  0.10802  0  1.006233  0
H  H26  1  0.58069637  0.67680389  0.91363624  1  0.060107  0  0.104643  0.105922  0  1.010445  0
H  H27  1  0.93838273  0.26930428  0.74223620  1  0.011253  0  0.08317  0.10697  0  1.032622  0
H  H28  1  0.74405296  0.32975853  0.87869659  1  0.00603  0  0.084595  0.0718  0  0.98631  0
H  H29  1  0.69276953  0.28432602  0.79235209  1  0.034536  0  0.086906  0.081379  0  0.989492  0
H  H30  1  0.63481073  0.51474806  0.74012484  1  0.022375  0  0.088122  0.08655  0  1.007795  0
H  H31  1  0.68481425  0.55591036  0.82787176  1  0.027717  0  0.089263  0.088495  0  1.031063  0
H  H32  1  0.67370034  0.89444728  0.14044426  1  0.018843  0  0.082883  0.1065  0  1.046855  0
H  H33  1  0.62834042  0.79959126  0.24551350  1  0.044111  0  0.083711  0.117824  0  1.022621  0
H  H34  1  0.78164459  0.85485250  0.20913760  1  0.024157  0  0.087616  0.115898  0  1.004046  0
H  H35  1  0.82280944  0.62945670  0.18031462  1  0.087086  0  0.094834  0.104136  0  1.007169  0
H  H36  1  0.86386876  0.72403659  0.07610988  1  0.015787  0  0.092516  0.084925  0  0.993319  0
H  H37  1  0.19741753  0.04717286  0.78333311  1  0.03972  0  0.086206  0.112661  0  1.011919  0
H  H38  1  0.53175112  0.90457225  0.94046504  1  0.001837  0  0.085829  0.112984  0  1.007093  0
H  H39  1  0.55645414  0.94317370  0.04043836  1  0.023629  0  0.08338  0.107439  0  1.02293  0
H  H40  1  0.64231547  0.00984927  0.93056848  1  0.03747  0  0.088909  0.1189  0  0.997899  0
H  H41  1  0.79620777  0.83615121  0.98488320  1  0.034949  0  0.093337  0.087329  0  1.004035  0
H  H42  1  0.76787811  0.79499587  0.88788708  1  0.055882  0  0.091587  0.084422  0  0.978393  0
H  H43  1  0.62542511  0.11352992  0.12045591  1  -0.00244  0  0.0831  0.108378  0  1.027055  0
H  H44  1  0.74919379  0.20787544  0.09981342  1  0.021077  0  0.083481  0.109705  0  1.010358  0
H  H45  1  0.72184096  0.09500925  0.19700904  1  0.011249  0  0.084668  0.111563  0  1.034826  0
H  H46  1  0.62117522  0.30730403  0.24768497  1  0.012856  0  0.086061  0.075494  0  1.036511  0
H  H47  1  0.49402093  0.22063533  0.26402388  1  0.049103  0  0.092836  0.099737  0  0.979987  0
H  H48  1  0.06655890  0.15203293  0.85206689  1  0.008641  0  0.083511  0.107815  0  1.006283  0
H  H49  1  0.73080345  0.87330876  0.62077956  1  0.001518  0  0.083412  0.110843  0  1.002736  0
H  H50  1  0.85498811  0.87630961  0.67203369  1  0.012871  0  0.083477  0.107205  0  1.004977  0
H  H51  1  0.84292620  0.98128801  0.57446464  1  0.044986  0  0.08659  0.116176  0  1.013035  0
H  H52  1  0.03109193  0.80072944  0.52843414  1  0.007997  0  0.086255  0.076694  0  0.995348  0
H  H53  1  0.90763115  0.79480276  0.47808942  1  0.015897  0  0.085839  0.07621  0  0.994738  0
H  H54  1  0.81461230  0.63595167  0.60472089  1  0.003279  0  0.091968  0.088926  0  0.995993  0
H  H55  1  0.93824942  0.64210037  0.65521040  1  0.045996  0  0.097058  0.096768  0  0.986677  0
H  H56  1  0.15346518  0.20448094  0.73864143  1  0.014411  0  0.084473  0.110035  0  1.016903  0
H  H57  1  0.35998486  0.18392030  0.78414056  1  0.037026  0  0.087227  0.083187  0  0.986897  0
H  H58  1  0.27878433  0.12459490  0.89573072  1  0.037425  0  0.086377  0.074527  0  0.990723  0
H  H59  1  0.11740668  0.33157190  0.91670906  1  0.018268  0  0.093174  0.091882  0  0.991507  0
C  C60  1  0.83757280  0.47472385  0.48806239  1  1.572101  0  0.229685  0.657622  0  4.165676  0
C  C61  1  0.50892197  0.46487785  0.87675764  1  0.016164  0  -0.008286  0.050241  0  3.92957  0
C  C62  1  0.31056642  0.36694910  0.90550913  1  0.007261  0  -0.009277  0.044831  0  3.939559  0
C  C63  1  0.15295682  0.53031652  0.52624541  1  1.55761  0  0.229773  0.599761  0  4.155053  0
C  C64  1  0.62607563  0.54245029  0.14856669  1  -0.050664  0  -0.019949  -0.144366  0  3.894243  0
C  C65  1  0.00986693  0.54953770  0.53253817  1  0.005068  0  -0.005165  0.008146  0  3.920518  0
C  C66  1  0.97473368  0.47086062  0.48835395  1  -0.080013  0  -0.075367  -0.236361  0  3.849684  0
C  C67  1  0.45659796  0.96291714  0.50921529  1  0.042804  0  -0.022475  -0.092115  0  3.899254  0
C  C68  1  0.55741478  0.02562464  0.46203148  1  -0.064009  0  0.009183  -0.011015  0  3.816439  0
C  C69  1  0.53836584  0.16287672  0.47655020  1  1.571304  0  0.235734  0.617175  0  4.173929  0
C  C70  1  0.46539893  0.82615287  0.50160566  1  1.527862  0  0.225129  0.606621  0  4.153141  0
C  C71  1  0.67428189  0.69093843  0.01282942  1  -0.020618  0  -0.013086  0.056682  0  3.93764  0
C  C72  1  0.43607948  0.43905402  0.74460469  1  1.554438  0  0.236036  0.633687  0  4.147076  0
C  C73  1  0.59320078  0.52682594  0.25096733  1  1.525984  0  0.224021  0.600787  0  4.153393  0
C  C74  1  0.30512307  0.33698174  0.99774136  1  -0.015241  0  -0.011027  0.014594  0  3.91035  0
C  C75  1  0.41731293  0.42404144  0.84597367  1  -0.027589  0  -0.021254  -0.14508  0  3.954043  0
C  C76  1  0.69325922  0.64198258  0.09895774  1  -0.002584  0  0.004353  0.066782  0  3.862753  0
C  C77  1  0.21635886  0.32515379  0.86625129  1  -0.012103  0  -0.164298  -0.198168  0  3.961145  0
C  C78  1  0.26285253  0.18926871  0.83687531  1  -0.045464  0  -0.16673  -0.094809  0  3.958703  0
C  C79  1  0.16491955  0.14567380  0.80078714  1  -0.065831  0  -0.245309  -0.355236  0  3.983218  0
C  C80  1  0.33030849  0.02534118  0.57453467  1  0.001179  0  -0.16445  -0.127533  0  3.994861  0
C  C81  1  0.21281046  0.04841622  0.53604004  1  -0.036189  0  -0.24389  -0.347597  0  3.945885  0
C  C82  1  0.60273505  0.63199658  0.97608283  1  -0.027351  0  -0.084356  -0.169258  0  3.979196  0
C  C83  1  0.68854235  0.97635488  0.39483702  1  0.009882  0  -0.156687  -0.130231  0  3.967174  0
C  C84  1  0.79363901  0.06116442  0.37087551  1  -0.077768  0  -0.248618  -0.366911  0  3.972645  0
C  C85  1  0.20126849  0.26559264  0.06281501  1  0.019984  0  -0.162712  -0.197943  0  3.983396  0
C  C86  1  0.08537519  0.35273762  0.12359927  1  -0.000433  0  -0.164953  -0.089476  0  3.958595  0
C  C87  1  0.98045953  0.28040152  0.18932919  1  -0.058059  0  -0.247863  -0.354945  0  3.974277  0
C  C88  1  0.64191477  0.48424711  0.80967595  1  -0.024745  0  -0.166424  -0.203829  0  3.956262  0
C  C89  1  0.73721068  0.35708491  0.80859670  1  -0.000142  0  -0.166579  -0.083666  0  3.94505  0
C  C90  1  0.87403282  0.36142988  0.74061144  1  -0.080622  0  -0.25089  -0.354729  0  3.970105  0
C  C91  1  0.78047472  0.70006570  0.13500353  1  -0.010794  0  -0.168308  -0.15446  0  3.99636  0
C  C92  1  0.71172566  0.81884040  0.18530350  1  -0.077128  0  -0.245157  -0.347717  0  3.941783  0
C  C93  1  0.55527566  0.51915344  0.01640632  1  -0.046008  0  -0.007021  0.036102  0  3.993284  0
C  C94  1  0.72041907  0.81131928  0.96085635  1  -0.034661  0  -0.159936  -0.140121  0  3.977679  0
C  C95  1  0.60635927  0.92379903  0.96845436  1  -0.04422  0  -0.241058  -0.350301  0  3.95815  0
C  C96  1  0.57105842  0.26514900  0.21118847  1  0.007011  0  -0.167391  -0.150488  0  3.973231  0
C  C97  1  0.67284372  0.16411801  0.15399318  1  -0.022962  0  -0.243498  -0.350365  0  3.947179  0
C  C98  1  0.91704057  0.65087442  0.58931657  1  0.042228  0  -0.161951  -0.183902  0  3.976764  0
C  C99  1  0.92855262  0.78573976  0.54408929  1  0.009978  0  -0.164582  -0.088619  0  3.947126  0
C  C100  1  0.83429004  0.88464203  0.60600238  1  -0.049411  0  -0.243838  -0.350184  0  3.971167  0
C  C101  1  0.56490167  0.47413813  0.10587402  1  0.013455  0  -0.001477  0.017539  0  3.932266  0
C  C102  1  0.48658580  0.45701608  0.97306469  1  -0.036022  0  -0.005801  -0.019996  0  3.945583  0
C  C103  1  0.39691375  0.37836497  0.03089580  1  -0.021318  0  -0.009348  0.033029  0  4.017279  0
C  C104  1  0.41928320  0.32741202  0.11660854  1  -0.035153  0  -0.094637  -0.193102  0  3.965469  0
C  C105  1  0.51152914  0.36058725  0.14810276  1  -0.026472  0  -0.009959  0.084291  0  3.940691  0
O  O106  1  0.50098463  0.49172625  0.49978761  1  -1.235497  0  -0.578704  -1.033584  0  2.565878  0
O  O107  1  0.52520716  0.35893567  0.69604982  1  -1.169675  0  -0.30744  -0.544316  0  2.338926  0
O  O108  1  0.67611660  0.54194050  0.29043933  1  -1.175186  0  -0.313394  -0.551554  0  2.361692  0
O  O109  1  0.36221915  0.53140898  0.71518771  1  -1.171919  0  -0.31183  -0.546295  0  2.321711  0
O  O110  1  0.47628371  0.50539801  0.29554198  1  -1.16952  0  -0.316049  -0.550023  0  2.345974  0
O  O111  1  0.47603618  0.23956252  0.42825130  1  -1.170403  0  -0.302081  -0.542754  0  2.366521  0
O  O112  1  0.54606977  0.77703115  0.42944669  1  -1.173504  0  -0.314132  -0.555942  0  2.381046  0
O  O113  1  0.78714451  0.37539735  0.52291685  1  -1.164043  0  -0.311155  -0.544463  0  2.281184  0
O  O114  1  0.18391795  0.59134331  0.57878249  1  -1.165801  0  -0.308462  -0.536152  0  2.335322  0
O  O115  1  0.78319075  0.57573275  0.45223760  1  -1.169864  0  -0.307948  -0.535085  0  2.301651  0
O  O116  1  0.23260464  0.45502436  0.46890594  1  -1.184888  0  -0.318649  -0.549532  0  2.370023  0
O  O117  1  0.58891181  0.18950681  0.53379281  1  -1.16047  0  -0.305733  -0.535334  0  2.333295  0
O  O118  1  0.38944162  0.76733031  0.56892351  1  -1.168834  0  -0.314766  -0.54336  0  2.345805  0
