# generated using pymatgen
data_CdH10C9(NO3)2
_symmetry_space_group_name_H-M   'P 1'
_cell_length_a   7.53207389
_cell_length_b   7.53204998
_cell_length_c   21.76304262
_cell_angle_alpha   89.99998783
_cell_angle_beta   90.00008857
_cell_angle_gamma   91.42410078
_symmetry_Int_Tables_number   1
_chemical_formula_structural   CdH10C9(NO3)2
_chemical_formula_sum   'Cd4 H40 C36 N8 O24'
_cell_volume   1234.27864194
_cell_formula_units_Z   4
loop_
 _symmetry_equiv_pos_site_id
 _symmetry_equiv_pos_as_xyz
  1  'x, y, z'
loop_
 _atom_site_type_symbol
 _atom_site_label
 _atom_site_symmetry_multiplicity
 _atom_site_fract_x
 _atom_site_fract_y
 _atom_site_fract_z
 _atom_site_occupancy
 _atom_site_hle17_bader_spin_density
 _atom_site_hle17_ddec_charge
 _atom_site_hle17_ddec_spin_density
 _atom_site_hle17_ddec_sum_bond_order
 _atom_site_hle17_magmom
 _atom_site_hse06_10hf_bader_spin_density
 _atom_site_hse06_10hf_ddec_charge
 _atom_site_hse06_10hf_ddec_spin_density
 _atom_site_hse06_10hf_ddec_sum_bond_order
 _atom_site_hse06_10hf_magmom
 _atom_site_hse06_bader_spin_density
 _atom_site_hse06_ddec_charge
 _atom_site_hse06_ddec_spin_density
 _atom_site_hse06_ddec_sum_bond_order
 _atom_site_hse06_magmom
 _atom_site_pbe_bader_spin_density
 _atom_site_pbe_cm5_charge
 _atom_site_pbe_ddec_charge
 _atom_site_pbe_ddec_spin_density
 _atom_site_pbe_ddec_sum_bond_order
 _atom_site_pbe_magmom
Cd  Cd0  1  0.65113700  0.74159211  0.70718252  1  0  1.188515  0  1.631094  0  0  1.001133  0  2.076847  0  0  1.057785  0  2.021754  0  0  0.775682  0.96082  0  2.114525  0
Cd  Cd1  1  0.25840796  0.34886099  0.29281711  1  0  1.18855  0  1.631065  0  0  1.001193  0  2.076801  0  0  1.057837  0  2.021722  0  0  0.775691  0.960879  0  2.114479  0
Cd  Cd2  1  0.75840840  0.84886200  0.20718306  1  0  1.188534  0  1.631074  0  0  1.001184  0  2.076802  0  0  1.057823  0  2.021732  0  0  0.775681  0.96087  0  2.114479  0
Cd  Cd3  1  0.15113796  0.24159375  0.79281657  1  0  1.188513  0  1.631091  0  0  1.001137  0  2.076841  0  0  1.057783  0  2.021762  0  0  0.775665  0.960822  0  2.114518  0
H  H4  1  0.25267507  0.01598832  0.39946259  1  0  0.36429  0  0.916299  0  0  0.336358  0  0.994551  0  0  0.347519  0  0.982615  0  0  0.303582  0.328441  0  1.002896  0
H  H5  1  0.98401503  0.74732670  0.60053805  1  0  0.364273  0  0.916317  0  0  0.33635  0  0.994542  0  0  0.34751  0  0.982608  0  0  0.303589  0.328434  0  1.002884  0
H  H6  1  0.48401237  0.24732432  0.89946351  1  0  0.364295  0  0.916287  0  0  0.336367  0  0.994532  0  0  0.347527  0  0.982596  0  0  0.303603  0.328449  0  1.002878  0
H  H7  1  0.75267497  0.51598672  0.10053760  1  0  0.36429  0  0.916295  0  0  0.336359  0  0.994533  0  0  0.347519  0  0.982599  0  0  0.303571  0.328442  0  1.002878  0
H  H8  1  0.38249893  0.64980082  0.60207490  1  0  0.092647  0  0.958071  0  0  0.098486  0  1.023346  0  0  0.102228  0  1.019317  0  0  0.115303  0.095671  0  1.026401  0
H  H9  1  0.35019943  0.61750492  0.39792559  1  0  0.092692  0  0.958087  0  0  0.098492  0  1.023382  0  0  0.102227  0  1.019355  0  0  0.115318  0.095678  0  1.026435  0
H  H10  1  0.85020205  0.11750569  0.10207419  1  0  0.092691  0  0.958092  0  0  0.098495  0  1.023383  0  0  0.10223  0  1.019355  0  0  0.115327  0.09568  0  1.026437  0
H  H11  1  0.88249494  0.14980278  0.89792661  1  0  0.092668  0  0.958151  0  0  0.098476  0  1.023444  0  0  0.102212  0  1.019417  0  0  0.115318  0.095661  0  1.026497  0
H  H12  1  0.29844074  0.41180393  0.52770110  1  0  0.106985  0  0.961511  0  0  0.110928  0  1.032684  0  0  0.114894  0  1.0302  0  0  0.107383  0.108021  0  1.034685  0
H  H13  1  0.58819429  0.70155953  0.47229944  1  0  0.106953  0  0.961553  0  0  0.110908  0  1.032708  0  0  0.114873  0  1.030223  0  0  0.107376  0.108016  0  1.034694  0
H  H14  1  0.08819794  0.20155731  0.02770019  1  0  0.106968  0  0.961576  0  0  0.110915  0  1.03272  0  0  0.11488  0  1.030236  0  0  0.107385  0.108006  0  1.03472  0
H  H15  1  0.79843830  0.91180216  0.97229989  1  0  0.10695  0  0.961521  0  0  0.110901  0  1.032669  0  0  0.114866  0  1.030185  0  0  0.107371  0.108008  0  1.034658  0
H  H16  1  0.73082264  0.10745238  0.59906211  1  0  0.109355  0  0.960741  0  0  0.11919  0  1.02123  0  0  0.122421  0  1.0204  0  0  0.10612  0.11687  0  1.021972  0
H  H17  1  0.89254334  0.26917447  0.40093682  1  0  0.109382  0  0.960711  0  0  0.119207  0  1.021218  0  0  0.12244  0  1.020386  0  0  0.106119  0.116885  0  1.021964  0
H  H18  1  0.39254606  0.76917517  0.09906481  1  0  0.10938  0  0.960712  0  0  0.11923  0  1.021187  0  0  0.122465  0  1.02035  0  0  0.106121  0.11691  0  1.021929  0
H  H19  1  0.23082413  0.60745558  0.90093703  1  0  0.109383  0  0.960727  0  0  0.119213  0  1.02122  0  0  0.122447  0  1.020386  0  0  0.106123  0.116891  0  1.021965  0
H  H20  1  0.79770558  0.35831374  0.67111592  1  0  0.084698  0  0.948996  0  0  0.092447  0  1.0139  0  0  0.094833  0  1.011862  0  0  0.114577  0.090668  0  1.01545  0
H  H21  1  0.64168111  0.20229701  0.32888387  1  0  0.084713  0  0.949045  0  0  0.092457  0  1.01394  0  0  0.094843  0  1.011902  0  0  0.114574  0.090678  0  1.015489  0
H  H22  1  0.14168283  0.70229768  0.17111763  1  0  0.084736  0  0.948998  0  0  0.092481  0  1.013895  0  0  0.094866  0  1.011857  0  0  0.114586  0.090701  0  1.015446  0
H  H23  1  0.29770542  0.85831698  0.82888323  1  0  0.084723  0  0.948937  0  0  0.092466  0  1.013845  0  0  0.094853  0  1.011805  0  0  0.114592  0.090687  0  1.015396  0
H  H24  1  0.55083471  0.97608840  0.51533293  1  0  0.089559  0  0.917699  0  0  0.102434  0  0.979074  0  0  0.106046  0  0.974828  0  0  0.119683  0.099771  0  0.98225  0
H  H25  1  0.02391234  0.44916441  0.48466706  1  0  0.089579  0  0.9177  0  0  0.102447  0  0.979089  0  0  0.10606  0  0.974842  0  0  0.119657  0.099784  0  0.982266  0
H  H26  1  0.52391310  0.94916020  0.01533436  1  0  0.089598  0  0.917629  0  0  0.102468  0  0.979009  0  0  0.106081  0  0.974761  0  0  0.11967  0.099801  0  0.98219  0
H  H27  1  0.05083512  0.47608729  0.98466654  1  0  0.089586  0  0.917723  0  0  0.102457  0  0.979092  0  0  0.106069  0  0.974847  0  0  0.119683  0.099794  0  0.982267  0
H  H28  1  0.66423151  0.70954640  0.85370339  1  0  0.159841  0  0.927746  0  0  0.170638  0  0.985569  0  0  0.174074  0  0.984291  0  0  0.113269  0.168246  0  0.986531  0
H  H29  1  0.29045559  0.33576962  0.14629671  1  0  0.159859  0  0.927734  0  0  0.170675  0  0.985544  0  0  0.174113  0  0.984262  0  0  0.113279  0.168282  0  0.986506  0
H  H30  1  0.79045658  0.83576656  0.35370256  1  0  0.159793  0  0.927777  0  0  0.170638  0  0.985569  0  0  0.174078  0  0.984288  0  0  0.113257  0.168246  0  0.98653  0
H  H31  1  0.16423046  0.20954680  0.64629662  1  0  0.15985  0  0.927721  0  0  0.170683  0  0.985511  0  0  0.174123  0  0.984227  0  0  0.113266  0.16829  0  0.986474  0
H  H32  1  0.66869931  0.50836508  0.89871365  1  0  0.143015  0  0.929042  0  0  0.151276  0  0.987269  0  0  0.155382  0  0.984972  0  0  0.10707  0.148367  0  0.988961  0
H  H33  1  0.49163499  0.33130273  0.10128605  1  0  0.143011  0  0.929055  0  0  0.151296  0  0.987259  0  0  0.155402  0  0.984961  0  0  0.107066  0.148385  0  0.988953  0
H  H34  1  0.99163484  0.83129966  0.39871241  1  0  0.142997  0  0.929147  0  0  0.151297  0  0.987336  0  0  0.155404  0  0.985038  0  0  0.107068  0.148383  0  0.989036  0
H  H35  1  0.16869801  0.00836417  0.60128637  1  0  0.143024  0  0.929028  0  0  0.151278  0  0.987267  0  0  0.155385  0  0.984969  0  0  0.107071  0.148369  0  0.988959  0
H  H36  1  0.54600305  0.02040480  0.77002896  1  0  0.413836  0  0.895353  0  0  0.381327  0  0.961659  0  0  0.393236  0  0.944425  0  0  0.28245  0.372933  0  0.973765  0
H  H37  1  0.97959392  0.45399655  0.22997039  1  0  0.413853  0  0.895329  0  0  0.381344  0  0.961636  0  0  0.393253  0  0.944401  0  0  0.282449  0.37295  0  0.973742  0
H  H38  1  0.47959342  0.95399717  0.27002897  1  0  0.413825  0  0.895363  0  0  0.381319  0  0.961665  0  0  0.393227  0  0.944433  0  0  0.282436  0.372925  0  0.973771  0
H  H39  1  0.04600244  0.52040810  0.72997099  1  0  0.413846  0  0.895323  0  0  0.381345  0  0.961612  0  0  0.393253  0  0.94438  0  0  0.282466  0.372952  0  0.973717  0
H  H40  1  0.75966540  0.02487957  0.76705839  1  0  0.413832  0  0.894571  0  0  0.382003  0  0.959568  0  0  0.393438  0  0.943115  0  0  0.28314  0.37394  0  0.971137  0
H  H41  1  0.97512061  0.24033392  0.23294103  1  0  0.413828  0  0.894572  0  0  0.382006  0  0.959561  0  0  0.393441  0  0.943108  0  0  0.283142  0.373943  0  0.971129  0
H  H42  1  0.47511748  0.74033588  0.26705835  1  0  0.41381  0  0.894606  0  0  0.381978  0  0.959608  0  0  0.393418  0  0.943148  0  0  0.283115  0.373916  0  0.971176  0
H  H43  1  0.25966481  0.52488287  0.73294168  1  0  0.413792  0  0.894632  0  0  0.381962  0  0.959629  0  0  0.393402  0  0.943169  0  0  0.283115  0.373899  0  0.971198  0
C  C44  1  0.45687611  0.52795760  0.59956287  1  0  0.134621  0  3.703273  0  0  0.102306  0  3.959681  0  0  0.110603  0  3.975621  0  0  0.044004  0.096812  0  3.948926  0
C  C45  1  0.47204099  0.54312742  0.40043768  1  0  0.134604  0  3.703454  0  0  0.102342  0  3.959857  0  0  0.110648  0  3.975787  0  0  0.044012  0.096848  0  3.949104  0
C  C46  1  0.97203962  0.04312820  0.09956217  1  0  0.134625  0  3.703442  0  0  0.102342  0  3.959849  0  0  0.110648  0  3.975777  0  0  0.04396  0.096849  0  3.949091  0
C  C47  1  0.95687221  0.02796222  0.90043823  1  0  0.134612  0  3.70353  0  0  0.102306  0  3.959943  0  0  0.110612  0  3.975875  0  0  0.043953  0.096812  0  3.949187  0
C  C48  1  0.41076122  0.39497186  0.55831036  1  0  -0.148083  0  3.704762  0  0  -0.167352  0  3.952559  0  0  -0.175133  0  3.973788  0  0  -0.078542  -0.16234  0  3.938528  0
C  C49  1  0.60502316  0.58923877  0.44168976  1  0  -0.148078  0  3.704773  0  0  -0.167352  0  3.952579  0  0  -0.17513  0  3.973807  0  0  -0.078568  -0.162354  0  3.938541  0
C  C50  1  0.10502430  0.08923655  0.05831035  1  0  -0.148056  0  3.704827  0  0  -0.16732  0  3.952594  0  0  -0.1751  0  3.973823  0  0  -0.07855  -0.162307  0  3.938562  0
C  C51  1  0.91076153  0.89497806  0.94169069  1  0  -0.148126  0  3.704809  0  0  -0.167375  0  3.952589  0  0  -0.175158  0  3.973819  0  0  -0.078578  -0.162376  0  3.938547  0
C  C52  1  0.51009083  0.23975055  0.55625139  1  0  0.109949  0  3.803628  0  0  0.127718  0  4.036698  0  0  0.13155  0  4.059723  0  0  0.012655  0.125217  0  4.021003  0
C  C53  1  0.76024806  0.48990993  0.44374972  1  0  0.109973  0  3.803397  0  0  0.127715  0  4.036528  0  0  0.131539  0  4.059571  0  0  0.012619  0.125211  0  4.02084  0
C  C54  1  0.26025333  0.98991329  0.05625182  1  0  0.1099  0  3.803545  0  0  0.127712  0  4.036546  0  0  0.131539  0  4.059583  0  0  0.012677  0.125209  0  4.020851  0
C  C55  1  0.01008310  0.73974978  0.94374807  1  0  0.110097  0  3.803688  0  0  0.127851  0  4.036732  0  0  0.131686  0  4.05976  0  0  0.012749  0.125347  0  4.021039  0
C  C56  1  0.65170043  0.22652244  0.59789267  1  0  -0.159381  0  3.693444  0  0  -0.178723  0  3.940079  0  0  -0.187154  0  3.961446  0  0  -0.085106  -0.173312  0  3.925909  0
C  C57  1  0.77347121  0.34829885  0.40210711  1  0  -0.159534  0  3.693427  0  0  -0.178869  0  3.940102  0  0  -0.1873  0  3.961471  0  0  -0.085139  -0.173457  0  3.92593  0
C  C58  1  0.27347400  0.84830221  0.09789490  1  0  -0.159527  0  3.693495  0  0  -0.178905  0  3.94015  0  0  -0.187336  0  3.961521  0  0  -0.085199  -0.173492  0  3.925978  0
C  C59  1  0.15169661  0.72652567  0.90210687  1  0  -0.159567  0  3.69348  0  0  -0.178915  0  3.940159  0  0  -0.187351  0  3.961529  0  0  -0.085199  -0.173504  0  3.925988  0
C  C60  1  0.68920824  0.36558054  0.63816140  1  0  0.137341  0  3.70768  0  0  0.104306  0  3.965569  0  0  0.113019  0  3.982868  0  0  0.04199  0.098512  0  3.95387  0
C  C61  1  0.63441638  0.31079611  0.36183835  1  0  0.137537  0  3.707775  0  0  0.104525  0  3.965637  0  0  0.11324  0  3.982933  0  0  0.042112  0.098731  0  3.953935  0
C  C62  1  0.13441666  0.81079812  0.13816313  1  0  0.137502  0  3.707801  0  0  0.104479  0  3.965684  0  0  0.113193  0  3.982982  0  0  0.042112  0.098681  0  3.953985  0
C  C63  1  0.18920557  0.86558378  0.86183907  1  0  0.137489  0  3.707614  0  0  0.104462  0  3.96548  0  0  0.113176  0  3.982782  0  0  0.042051  0.098665  0  3.95378  0
C  C64  1  0.47298006  0.09712094  0.51264581  1  0  0.017329  0  3.681945  0  0  -0.028053  0  3.961624  0  0  -0.023372  0  3.971992  0  0  0.040113  -0.030864  0  3.954447  0
C  C65  1  0.90287258  0.52702207  0.48735533  1  0  0.017316  0  3.682035  0  0  -0.028037  0  3.961679  0  0  -0.023354  0  3.972051  0  0  0.040209  -0.030846  0  3.954501  0
C  C66  1  0.40287882  0.02701985  0.01264586  1  0  0.017274  0  3.682029  0  0  -0.028113  0  3.961682  0  0  -0.023429  0  3.97205  0  0  0.040089  -0.03092  0  3.954502  0
C  C67  1  0.97298178  0.59712313  0.98735345  1  0  0.017178  0  3.682015  0  0  -0.028186  0  3.961678  0  0  -0.023507  0  3.972048  0  0  0.04003  -0.030995  0  3.954498  0
C  C68  1  0.49102269  0.50293588  0.82043962  1  0  0.74947  0  3.796683  0  0  0.69574  0  4.097901  0  0  0.730924  0  4.089717  0  0  0.223295  0.671774  0  4.10275  0
C  C69  1  0.49706544  0.50897880  0.17956003  1  0  0.749396  0  3.796685  0  0  0.69568  0  4.097891  0  0  0.730862  0  4.089708  0  0  0.223298  0.671713  0  4.10274  0
C  C70  1  0.99706361  0.00897548  0.32043800  1  0  0.749396  0  3.796794  0  0  0.695706  0  4.097982  0  0  0.730892  0  4.089796  0  0  0.223291  0.67174  0  4.102832  0
C  C71  1  0.99102035  0.00293662  0.67956104  1  0  0.749405  0  3.796714  0  0  0.6957  0  4.097894  0  0  0.730884  0  4.089711  0  0  0.223281  0.671733  0  4.102746  0
C  C72  1  0.66201453  0.56343848  0.85227805  1  0  -0.452265  0  3.629024  0  0  -0.484706  0  3.866217  0  0  -0.496738  0  3.867713  0  0  -0.171572  -0.476499  0  3.86512  0
C  C73  1  0.43656246  0.33798643  0.14772118  1  0  -0.452245  0  3.62904  0  0  -0.484764  0  3.86619  0  0  -0.496796  0  3.867685  0  0  -0.171607  -0.476555  0  3.865096  0
C  C74  1  0.93656214  0.83798471  0.35227679  1  0  -0.452101  0  3.629092  0  0  -0.484651  0  3.866282  0  0  -0.496688  0  3.867785  0  0  -0.171538  -0.476442  0  3.865185  0
C  C75  1  0.16201351  0.06344020  0.64772197  1  0  -0.452307  0  3.628966  0  0  -0.484794  0  3.866149  0  0  -0.496826  0  3.867642  0  0  -0.171595  -0.476585  0  3.865055  0
C  C76  1  0.82530447  0.50656052  0.81595229  1  0  0.750142  0  3.81386  0  0  0.699651  0  4.11223  0  0  0.735008  0  4.104892  0  0  0.220992  0.675562  0  4.11643  0
C  C77  1  0.49344062  0.17469380  0.18404746  1  0  0.750024  0  3.814072  0  0  0.699642  0  4.112289  0  0  0.734998  0  4.104949  0  0  0.220969  0.675552  0  4.116491  0
C  C78  1  0.99343745  0.67469078  0.31595055  1  0  0.750045  0  3.813861  0  0  0.699559  0  4.112248  0  0  0.734915  0  4.10491  0  0  0.220894  0.675471  0  4.116448  0
C  C79  1  0.32530760  0.00656221  0.68404782  1  0  0.750221  0  3.813836  0  0  0.699734  0  4.1122  0  0  0.73509  0  4.10486  0  0  0.221028  0.675644  0  4.116404  0
N  N80  1  0.59464604  0.51500944  0.63891356  1  0  -0.351547  0  3.264685  0  0  -0.276637  0  3.540591  0  0  -0.297442  0  3.558242  0  0  -0.3382  -0.26236  0  3.528207  0
N  N81  1  0.48499013  0.40535441  0.36108657  1  0  -0.351662  0  3.264843  0  0  -0.276786  0  3.540779  0  0  -0.297588  0  3.558419  0  0  -0.338245  -0.262508  0  3.528391  0
N  N82  1  0.98499304  0.90535943  0.13891463  1  0  -0.35167  0  3.264875  0  0  -0.276782  0  3.540801  0  0  -0.297585  0  3.558442  0  0  -0.338212  -0.262504  0  3.528414  0
N  N83  1  0.09464063  0.01500974  0.86108642  1  0  -0.351578  0  3.264731  0  0  -0.276656  0  3.540625  0  0  -0.29746  0  3.558271  0  0  -0.338136  -0.262377  0  3.528235  0
N  N84  1  0.35359379  0.11767060  0.47081064  1  0  -0.088423  0  2.965274  0  0  -0.071159  0  3.263432  0  0  -0.07131  0  3.273989  0  0  -0.218811  -0.071413  0  3.25601  0
N  N85  1  0.88232920  0.64640674  0.52918863  1  0  -0.088486  0  2.965357  0  0  -0.071241  0  3.263525  0  0  -0.071392  0  3.274077  0  0  -0.218874  -0.071496  0  3.256107  0
N  N86  1  0.38233084  0.14640431  0.97081242  1  0  -0.088448  0  2.965361  0  0  -0.071197  0  3.263534  0  0  -0.071348  0  3.27409  0  0  -0.218824  -0.071451  0  3.256107  0
N  N87  1  0.85359072  0.61766905  0.02918914  1  0  -0.088374  0  2.965121  0  0  -0.071126  0  3.263276  0  0  -0.071276  0  3.273833  0  0  -0.218778  -0.071381  0  3.255855  0
O  O88  1  0.33746939  0.97447623  0.43194885  1  0  -0.409914  0  2.057402  0  0  -0.359574  0  2.282265  0  0  -0.381472  0  2.277469  0  0  -0.265511  -0.343549  0  2.284797  0
O  O89  1  0.02552306  0.66253254  0.56805153  1  0  -0.409888  0  2.057407  0  0  -0.359537  0  2.282267  0  0  -0.381436  0  2.277478  0  0  -0.265518  -0.343512  0  2.2848  0
O  O90  1  0.52552172  0.16252916  0.93194887  1  0  -0.40986  0  2.057383  0  0  -0.359516  0  2.282249  0  0  -0.381414  0  2.277454  0  0  -0.265494  -0.343492  0  2.284783  0
O  O91  1  0.83747050  0.47447568  0.06805135  1  0  -0.409924  0  2.057413  0  0  -0.35958  0  2.28228  0  0  -0.381479  0  2.277492  0  0  -0.265505  -0.343555  0  2.28481  0
O  O92  1  0.85288573  0.57538037  0.76285907  1  0  -0.674051  0  2.036985  0  0  -0.598584  0  2.27906  0  0  -0.628981  0  2.266899  0  0  -0.322496  -0.577312  0  2.286747  0
O  O93  1  0.42462068  0.14711287  0.23713974  1  0  -0.674021  0  2.03697  0  0  -0.598607  0  2.279014  0  0  -0.629002  0  2.266852  0  0  -0.322508  -0.577336  0  2.286703  0
O  O94  1  0.92461591  0.64710856  0.26285915  1  0  -0.674028  0  2.036947  0  0  -0.598571  0  2.279041  0  0  -0.628969  0  2.266882  0  0  -0.322476  -0.577298  0  2.286727  0
O  O95  1  0.35288910  0.07538204  0.73714013  1  0  -0.674095  0  2.036954  0  0  -0.598642  0  2.279052  0  0  -0.62904  0  2.266893  0  0  -0.322523  -0.577369  0  2.286741  0
O  O96  1  0.44264521  0.58669304  0.77289065  1  0  -0.659528  0  2.043593  0  0  -0.587307  0  2.285755  0  0  -0.616589  0  2.274685  0  0  -0.312185  -0.566895  0  2.292767  0
O  O97  1  0.41330950  0.55735571  0.22710850  1  0  -0.659478  0  2.043568  0  0  -0.58727  0  2.285731  0  0  -0.616552  0  2.274662  0  0  -0.312183  -0.566859  0  2.292742  0
O  O98  1  0.91330754  0.05735508  0.27288994  1  0  -0.659525  0  2.043666  0  0  -0.587346  0  2.285849  0  0  -0.616626  0  2.274783  0  0  -0.312184  -0.566933  0  2.292861  0
O  O99  1  0.94264569  0.08669242  0.72710952  1  0  -0.659494  0  2.043631  0  0  -0.587276  0  2.285778  0  0  -0.616557  0  2.274714  0  0  -0.312153  -0.566863  0  2.29279  0
O  O100  1  0.92441140  0.39466283  0.84098512  1  0  -0.640858  0  1.995546  0  0  -0.576123  0  2.245912  0  0  -0.605019  0  2.234363  0  0  -0.317114  -0.555863  0  2.253172  0
O  O101  1  0.60534227  0.07559247  0.15901377  1  0  -0.640802  0  1.995697  0  0  -0.576109  0  2.246012  0  0  -0.605004  0  2.234461  0  0  -0.317087  -0.555849  0  2.253273  0
O  O102  1  0.10533799  0.57558908  0.34098404  1  0  -0.64089  0  1.995608  0  0  -0.576138  0  2.245958  0  0  -0.605033  0  2.234406  0  0  -0.31709  -0.55588  0  2.253219  0
O  O103  1  0.42441174  0.89466351  0.65901501  1  0  -0.640914  0  1.995606  0  0  -0.576163  0  2.245954  0  0  -0.605063  0  2.234405  0  0  -0.317131  -0.555905  0  2.253217  0
O  O104  1  0.40313429  0.37107689  0.84337022  1  0  -0.649839  0  2.008265  0  0  -0.578994  0  2.253294  0  0  -0.60702  0  2.238986  0  0  -0.3098  -0.559484  0  2.262599  0
O  O105  1  0.62892468  0.59686551  0.15663036  1  0  -0.649809  0  2.008265  0  0  -0.578949  0  2.253271  0  0  -0.606974  0  2.238963  0  0  -0.309784  -0.559442  0  2.262575  0
O  O106  1  0.12892317  0.09686581  0.34336884  1  0  -0.64979  0  2.00831  0  0  -0.578945  0  2.25332  0  0  -0.606972  0  2.239013  0  0  -0.309776  -0.559437  0  2.262626  0
O  O107  1  0.90313447  0.87107660  0.65662990  1  0  -0.64977  0  2.008261  0  0  -0.578941  0  2.25328  0  0  -0.606968  0  2.238974  0  0  -0.309787  -0.559434  0  2.262586  0
O  O108  1  0.65452562  0.95703550  0.78350226  1  0  -0.83151  0  1.864262  0  0  -0.768709  0  2.051972  0  0  -0.792707  0  2.018013  0  0  -0.59196  -0.751706  0  2.075398  0
O  O109  1  0.04296386  0.34547341  0.21649684  1  0  -0.831534  0  1.864231  0  0  -0.768744  0  2.051949  0  0  -0.792745  0  2.017996  0  0  -0.591972  -0.751741  0  2.075374  0
O  O110  1  0.54296198  0.84547439  0.28350229  1  0  -0.831491  0  1.864283  0  0  -0.768695  0  2.051995  0  0  -0.792694  0  2.018037  0  0  -0.59192  -0.751692  0  2.07542  0
O  O111  1  0.15452495  0.45703851  0.71649773  1  0  -0.831489  0  1.864285  0  0  -0.768703  0  2.052024  0  0  -0.792705  0  2.01807  0  0  -0.591957  -0.7517  0  2.075448  0
