# generated using pymatgen
data_ZnH4CSNO3
_symmetry_space_group_name_H-M   'P 1'
_cell_length_a   4.83731968
_cell_length_b   6.23158376
_cell_length_c   15.21603679
_cell_angle_alpha   90.00005309
_cell_angle_beta   90.00008088
_cell_angle_gamma   91.21349573
_symmetry_Int_Tables_number   1
_chemical_formula_structural   ZnH4CSNO3
_chemical_formula_sum   'Zn4 H16 C4 S4 N4 O12'
_cell_volume   458.57182010
_cell_formula_units_Z   4
loop_
 _symmetry_equiv_pos_site_id
 _symmetry_equiv_pos_as_xyz
  1  'x, y, z'
loop_
 _atom_site_type_symbol
 _atom_site_label
 _atom_site_symmetry_multiplicity
 _atom_site_fract_x
 _atom_site_fract_y
 _atom_site_fract_z
 _atom_site_occupancy
 _atom_site_hle17_bader_spin_density
 _atom_site_hle17_ddec_charge
 _atom_site_hle17_ddec_spin_density
 _atom_site_hle17_ddec_sum_bond_order
 _atom_site_hle17_magmom
 _atom_site_hse06_10hf_bader_spin_density
 _atom_site_hse06_10hf_ddec_charge
 _atom_site_hse06_10hf_ddec_spin_density
 _atom_site_hse06_10hf_ddec_sum_bond_order
 _atom_site_hse06_10hf_magmom
 _atom_site_hse06_bader_spin_density
 _atom_site_hse06_ddec_charge
 _atom_site_hse06_ddec_spin_density
 _atom_site_hse06_ddec_sum_bond_order
 _atom_site_hse06_magmom
 _atom_site_pbe_bader_spin_density
 _atom_site_pbe_cm5_charge
 _atom_site_pbe_ddec_charge
 _atom_site_pbe_ddec_spin_density
 _atom_site_pbe_ddec_sum_bond_order
 _atom_site_pbe_magmom
Zn  Zn0  1  0.48877436  0.82750094  0.80450867  1  0  1.118073  0  1.746631  0  0  0.945897  0  2.21329  0  0  0.990766  0  2.154271  0  0  0.683188  0.914316  0  2.254068  0
Zn  Zn1  1  0.01122730  0.67249821  0.30450778  1  0  1.118087  0  1.746565  0  0  0.945912  0  2.213219  0  0  0.990811  0  2.154208  0  0  0.683208  0.914349  0  2.254004  0
Zn  Zn2  1  0.51121994  0.17250429  0.19549257  1  0  1.11809  0  1.746596  0  0  0.945879  0  2.21323  0  0  0.990758  0  2.154216  0  0  0.683206  0.914311  0  2.254015  0
Zn  Zn3  1  0.98877083  0.32749578  0.69549084  1  0  1.118129  0  1.74653  0  0  0.945944  0  2.213176  0  0  0.990848  0  2.154171  0  0  0.683215  0.914381  0  2.253961  0
H  H4  1  0.39488372  0.44586776  0.85377635  1  0  0.30687  0  0.93252  0  0  0.291386  0  0.994617  0  0  0.298129  0  0.990255  0  0  0.283948  0.286555  0  0.99784  0
H  H5  1  0.10511595  0.05413345  0.35377481  1  0  0.306846  0  0.932515  0  0  0.29137  0  0.9946  0  0  0.298109  0  0.990246  0  0  0.283967  0.28654  0  0.997818  0
H  H6  1  0.60511894  0.55414068  0.14622621  1  0  0.306744  0  0.932612  0  0  0.291285  0  0.994611  0  0  0.298022  0  0.990263  0  0  0.283965  0.286458  0  0.997821  0
H  H7  1  0.89488437  0.94586536  0.64622315  1  0  0.30689  0  0.932501  0  0  0.291429  0  0.994545  0  0  0.298165  0  0.990198  0  0  0.283986  0.2866  0  0.997762  0
H  H8  1  0.72514053  0.50031547  0.86889470  1  0  0.301269  0  0.91282  0  0  0.290742  0  0.967049  0  0  0.296827  0  0.963228  0  0  0.288699  0.286287  0  0.970053  0
H  H9  1  0.77486547  0.99967835  0.36889139  1  0  0.301242  0  0.912899  0  0  0.290695  0  0.967161  0  0  0.296779  0  0.963345  0  0  0.288732  0.286245  0  0.97015  0
H  H10  1  0.27487624  0.49968012  0.13110918  1  0  0.301329  0  0.912772  0  0  0.290762  0  0.967037  0  0  0.296847  0  0.963218  0  0  0.288762  0.286312  0  0.970027  0
H  H11  1  0.22513683  0.00031724  0.63110657  1  0  0.301325  0  0.912857  0  0  0.29081  0  0.967057  0  0  0.296894  0  0.963236  0  0  0.288752  0.286356  0  0.970055  0
H  H12  1  0.25514573  0.64353271  0.97764435  1  0  0.058387  0  0.92114  0  0  0.077247  0  0.981562  0  0  0.077426  0  0.981741  0  0  0.099911  0.076951  0  0.981707  0
H  H13  1  0.24485260  0.85646854  0.47764296  1  0  0.058393  0  0.921287  0  0  0.077296  0  0.981642  0  0  0.077478  0  0.981818  0  0  0.099933  0.077001  0  0.981786  0
H  H14  1  0.74485262  0.35646931  0.02235821  1  0  0.058311  0  0.92116  0  0  0.077241  0  0.981597  0  0  0.077421  0  0.981777  0  0  0.099906  0.076943  0  0.98174  0
H  H15  1  0.75515173  0.14352545  0.52235369  1  0  0.058424  0  0.92124  0  0  0.077327  0  0.98163  0  0  0.077508  0  0.981809  0  0  0.099957  0.07703  0  0.981774  0
H  H16  1  0.59702650  0.73688627  0.99508131  1  0  0.057133  0  0.957037  0  0  0.066484  0  1.034535  0  0  0.066864  0  1.035185  0  0  0.095389  0.066083  0  1.034259  0
H  H17  1  0.90297601  0.76311112  0.49507865  1  0  0.057119  0  0.95708  0  0  0.066464  0  1.034582  0  0  0.066846  0  1.035234  0  0  0.095386  0.066065  0  1.034306  0
H  H18  1  0.40296983  0.26311735  0.00492257  1  0  0.057125  0  0.957005  0  0  0.066501  0  1.034567  0  0  0.066882  0  1.03522  0  0  0.09538  0.066098  0  1.03429  0
H  H19  1  0.09702633  0.23688608  0.50491734  1  0  0.057103  0  0.956925  0  0  0.066473  0  1.034444  0  0  0.066853  0  1.035095  0  0  0.095376  0.066072  0  1.034172  0
C  C20  1  0.47313282  0.59855750  0.97183079  1  0  0.054986  0  3.63409  0  0  -6.6e-05  0  3.894716  0  0  0.003609  0  3.907825  0  0  -0.080605  -0.002393  0  3.885535  0
C  C21  1  0.02686957  0.90144212  0.47182931  1  0  0.054949  0  3.634338  0  0  -0.000133  0  3.894875  0  0  0.003543  0  3.907979  0  0  -0.080659  -0.002462  0  3.885708  0
C  C22  1  0.52685528  0.40144773  0.02817112  1  0  0.054955  0  3.63413  0  0  -0.000369  0  3.894935  0  0  0.003308  0  3.908034  0  0  -0.08078  -0.002705  0  3.885794  0
C  C23  1  0.97313071  0.09855508  0.52816799  1  0  0.054998  0  3.633899  0  0  -0.00017  0  3.89454  0  0  0.0035  0  3.907654  0  0  -0.08066  -0.002503  0  3.885387  0
S  S24  1  0.48919254  0.59314556  0.62481862  1  0  0.929183  0  4.406597  0  0  0.8273  0  4.911088  0  0  0.865834  0  4.891315  0  0  0.383506  0.80043  0  4.923987  0
S  S25  1  0.01080226  0.90685790  0.12481845  1  0  0.929081  0  4.406633  0  0  0.827208  0  4.911098  0  0  0.865745  0  4.891328  0  0  0.383499  0.800344  0  4.92398  0
S  S26  1  0.51080994  0.40685645  0.37518132  1  0  0.929172  0  4.406538  0  0  0.827304  0  4.911023  0  0  0.86584  0  4.891249  0  0  0.3835  0.800442  0  4.923915  0
S  S27  1  0.98918993  0.09314573  0.87518017  1  0  0.929229  0  4.406624  0  0  0.827342  0  4.911103  0  0  0.865873  0  4.891335  0  0  0.383525  0.800465  0  4.923993  0
N  N28  1  0.53129307  0.56152600  0.87770970  1  0  -0.653097  0  3.146586  0  0  -0.588194  0  3.408514  0  0  -0.609414  0  3.404096  0  0  -0.637755  -0.57333  0  3.411404  0
N  N29  1  0.96870694  0.93847427  0.37770778  1  0  -0.653026  0  3.14665  0  0  -0.588124  0  3.408637  0  0  -0.60935  0  3.404236  0  0  -0.637788  -0.573263  0  3.411532  0
N  N30  1  0.46872194  0.43848083  0.12229286  1  0  -0.65303  0  3.146614  0  0  -0.587962  0  3.408563  0  0  -0.609183  0  3.404157  0  0  -0.637745  -0.5731  0  3.411446  0
N  N31  1  0.03129747  0.06152293  0.62228952  1  0  -0.653243  0  3.146469  0  0  -0.588352  0  3.408484  0  0  -0.609578  0  3.404075  0  0  -0.637901  -0.573494  0  3.411384  0
O  O32  1  0.55134975  0.80735596  0.67640765  1  0  -0.731503  0  2.072082  0  0  -0.635716  0  2.364046  0  0  -0.661578  0  2.342502  0  0  -0.369567  -0.617747  0  2.378931  0
O  O33  1  0.94864534  0.69264695  0.17640697  1  0  -0.731423  0  2.072038  0  0  -0.635668  0  2.364026  0  0  -0.661541  0  2.342494  0  0  -0.369551  -0.617696  0  2.378902  0
O  O34  1  0.44865062  0.19264445  0.32359294  1  0  -0.731452  0  2.072092  0  0  -0.63569  0  2.364078  0  0  -0.661558  0  2.342541  0  0  -0.369545  -0.617726  0  2.378966  0
O  O35  1  0.05135296  0.30735346  0.82359231  1  0  -0.731521  0  2.072121  0  0  -0.635716  0  2.36407  0  0  -0.661595  0  2.342548  0  0  -0.369558  -0.61773  0  2.378942  0
O  O36  1  0.17327232  0.56461973  0.62969234  1  0  -0.71681  0  2.100477  0  0  -0.633848  0  2.414263  0  0  -0.660838  0  2.395738  0  0  -0.373955  -0.614712  0  2.426353  0
O  O37  1  0.32672043  0.93538375  0.12969562  1  0  -0.71676  0  2.100552  0  0  -0.63378  0  2.414316  0  0  -0.660763  0  2.395785  0  0  -0.373977  -0.614639  0  2.426397  0
O  O38  1  0.82673007  0.43537908  0.37030693  1  0  -0.716811  0  2.100458  0  0  -0.633862  0  2.414254  0  0  -0.660851  0  2.395723  0  0  -0.373963  -0.614727  0  2.426341  0
O  O39  1  0.67327176  0.06461988  0.87030497  1  0  -0.716796  0  2.100506  0  0  -0.633824  0  2.414285  0  0  -0.660801  0  2.395747  0  0  -0.373966  -0.614681  0  2.426371  0
O  O40  1  0.59174473  0.41094482  0.68459633  1  0  -0.724488  0  2.056827  0  0  -0.641216  0  2.369185  0  0  -0.667622  0  2.348771  0  0  -0.372732  -0.622437  0  2.38262  0
O  O41  1  0.90825022  0.08905843  0.18459757  1  0  -0.724476  0  2.056829  0  0  -0.641181  0  2.369114  0  0  -0.667582  0  2.348698  0  0  -0.372729  -0.622416  0  2.382576  0
O  O42  1  0.40825357  0.58905560  0.31540294  1  0  -0.724494  0  2.056836  0  0  -0.641203  0  2.369143  0  0  -0.667607  0  2.348728  0  0  -0.372725  -0.622421  0  2.382564  0
O  O43  1  0.09174602  0.91094198  0.81540302  1  0  -0.724513  0  2.056842  0  0  -0.641226  0  2.369146  0  0  -0.667624  0  2.348724  0  0  -0.372736  -0.622451  0  2.382591  0
