# generated using pymatgen
data_ZnH18C24(NO3)2
_symmetry_space_group_name_H-M   'P 1'
_cell_length_a   9.69610021
_cell_length_b   10.95875962
_cell_length_c   14.63250000
_cell_angle_alpha   104.36097289
_cell_angle_beta   95.67695754
_cell_angle_gamma   112.87850550
_symmetry_Int_Tables_number   1
_chemical_formula_structural   ZnH18C24(NO3)2
_chemical_formula_sum   'Zn2 H36 C48 N4 O12'
_cell_volume   1354.08597900
_cell_formula_units_Z   2
loop_
 _symmetry_equiv_pos_site_id
 _symmetry_equiv_pos_as_xyz
  1  'x, y, z'
loop_
 _atom_site_type_symbol
 _atom_site_label
 _atom_site_symmetry_multiplicity
 _atom_site_fract_x
 _atom_site_fract_y
 _atom_site_fract_z
 _atom_site_occupancy
 _atom_site_hle17_bader_spin_density
 _atom_site_hle17_ddec_charge
 _atom_site_hle17_ddec_spin_density
 _atom_site_hle17_ddec_sum_bond_order
 _atom_site_hle17_magmom
 _atom_site_hse06_10hf_bader_spin_density
 _atom_site_hse06_10hf_ddec_charge
 _atom_site_hse06_10hf_ddec_spin_density
 _atom_site_hse06_10hf_ddec_sum_bond_order
 _atom_site_hse06_10hf_magmom
 _atom_site_hse06_bader_spin_density
 _atom_site_hse06_ddec_charge
 _atom_site_hse06_ddec_spin_density
 _atom_site_hse06_ddec_sum_bond_order
 _atom_site_hse06_magmom
 _atom_site_pbe_bader_charge
 _atom_site_pbe_bader_spin_density
 _atom_site_pbe_cm5_charge
 _atom_site_pbe_ddec_charge
 _atom_site_pbe_ddec_spin_density
 _atom_site_pbe_ddec_sum_bond_order
 _atom_site_pbe_magmom
Zn  Zn0  1  0.25525937  0.68181421  0.94496556  1  0  1.029042  0  1.84994  0  0  0.848127  0  2.310791  0  0  0.896294  0  2.255159  0  1.300302  0  0.677603  0.814415  0  2.349098  0
Zn  Zn1  1  0.74474104  0.31818643  0.05503500  1  0  1.028965  0  1.850029  0  0  0.848027  0  2.310886  0  0  0.896196  0  2.255255  0  1.300217  0  0.677567  0.814323  0  2.349192  0
H  H2  1  0.99086106  0.64604229  0.87962873  1  0  0.40684  0  0.914395  0  0  0.374737  0  0.980801  0  0  0.386965  0  0.963112  0  0.640041  0  0.277408  0.366139  0  0.993219  0
H  H3  1  0.00914132  0.35396251  0.12037615  1  0  0.406892  0  0.914341  0  0  0.374763  0  0.980782  0  0  0.386989  0  0.963093  0  0.639656  0  0.277416  0.366163  0  0.993201  0
H  H4  1  0.92861736  0.50943672  0.91644896  1  0  0.427372  0  0.874624  0  0  0.397069  0  0.937965  0  0  0.407277  0  0.923098  0  0.62635  0  0.287182  0.389828  0  0.948516  0
H  H5  1  0.07138600  0.49057016  0.08355705  1  0  0.427381  0  0.874608  0  0  0.397083  0  0.937944  0  0  0.40729  0  0.923075  0  0.626314  0  0.287179  0.38984  0  0.948496  0
H  H6  1  0.03374962  0.37453587  0.84429504  1  0  0.074726  0  0.971543  0  0  0.081801  0  1.03949  0  0  0.083731  0  1.037964  0  0.103726  0  0.116305  0.080335  0  1.040645  0
H  H7  1  0.96624823  0.62546372  0.15570106  1  0  0.0748  0  0.971494  0  0  0.081838  0  1.039485  0  0  0.083768  0  1.03796  0  0.103544  0  0.116318  0.080374  0  1.040637  0
H  H8  1  0.05289812  0.15182810  0.76733919  1  0  0.102609  0  0.964712  0  0  0.110693  0  1.027723  0  0  0.112318  0  1.03006  0  0.094207  0  0.105387  0.109538  0  1.026188  0
H  H9  1  0.94709868  0.84817149  0.23265547  1  0  0.102469  0  0.964889  0  0  0.110601  0  1.027827  0  0  0.112226  0  1.030163  0  0.095321  0  0.105324  0.109444  0  1.026296  0
H  H10  1  0.31631415  0.15914430  0.77034602  1  0  0.089162  0  0.977995  0  0  0.099878  0  1.039125  0  0  0.100923  0  1.040381  0  0.089045  0  0.102949  0.098936  0  1.038505  0
H  H11  1  0.68368321  0.84085425  0.22964985  1  0  0.08912  0  0.978022  0  0  0.099855  0  1.039128  0  0  0.100902  0  1.040392  0  0.088865  0  0.102967  0.098913  0  1.038508  0
H  H12  1  0.54549658  0.38457023  0.84753429  1  0  0.122804  0  0.974764  0  0  0.130272  0  1.037699  0  0  0.133952  0  1.035948  0  0.139673  0  0.108607  0.12768  0  1.038989  0
H  H13  1  0.45450027  0.61542727  0.15246340  1  0  0.122792  0  0.974779  0  0  0.130287  0  1.037686  0  0  0.133969  0  1.03593  0  0.139689  0  0.108604  0.127695  0  1.038976  0
H  H14  1  0.72463353  0.58014019  0.90480853  1  0  0.121531  0  0.958201  0  0  0.132087  0  1.016973  0  0  0.135502  0  1.015329  0  0.108029  0  0.113865  0.129549  0  1.018434  0
H  H15  1  0.27536333  0.41985732  0.09518847  1  0  0.121559  0  0.958177  0  0  0.132106  0  1.016959  0  0  0.13552  0  1.015318  0  0.108052  0  0.113883  0.129571  0  1.018418  0
H  H16  1  0.92642098  0.82054467  0.97864247  1  0  0.103227  0  0.94321  0  0  0.114839  0  1.000425  0  0  0.117614  0  0.998274  0  0.110395  0  0.112052  0.112771  0  1.002069  0
H  H17  1  0.07357849  0.17945179  0.02135725  1  0  0.103248  0  0.943182  0  0  0.114847  0  1.000413  0  0  0.117622  0  0.998262  0  0.110399  0  0.112052  0.112781  0  1.002054  0
H  H18  1  0.84855836  0.01608480  0.04333923  1  0  0.109844  0  0.956341  0  0  0.119912  0  1.01485  0  0  0.122618  0  1.014642  0  0.132238  0  0.110233  0.117938  0  1.015187  0
H  H19  1  0.15144319  0.98391167  0.95666472  1  0  0.10983  0  0.956387  0  0  0.119892  0  1.014908  0  0  0.122595  0  1.014706  0  0.132369  0  0.11022  0.117936  0  1.015225  0
H  H20  1  0.57001797  0.95488041  0.03384630  1  0  0.089436  0  0.936183  0  0  0.09626  0  1.002618  0  0  0.098875  0  1.000309  0  0.137808  0  0.120647  0.094215  0  1.004493  0
H  H21  1  0.42998401  0.04511918  0.96615553  1  0  0.089468  0  0.936155  0  0  0.096267  0  1.002609  0  0  0.098872  0  1.000312  0  0.137752  0  0.12063  0.094221  0  1.004485  0
H  H22  1  0.28928167  0.02868301  0.20024351  1  0  0.107835  0  0.936912  0  0  0.11807  0  0.993485  0  0  0.12164  0  0.99103  0  0.093698  0  0.109465  0.115473  0  0.995305  0
H  H23  1  0.71072136  0.97131658  0.79975770  1  0  0.107854  0  0.936786  0  0  0.118074  0  0.993391  0  0  0.121644  0  0.990935  0  0.093662  0  0.109486  0.115476  0  0.995212  0
H  H24  1  0.28814284  0.15302088  0.36940810  1  0  0.119356  0  0.928381  0  0  0.133927  0  0.977959  0  0  0.137519  0  0.976544  0  0.086525  0  0.113723  0.131353  0  0.979121  0
H  H25  1  0.71185866  0.84697767  0.63059351  1  0  0.119406  0  0.928433  0  0  0.133967  0  0.978011  0  0  0.137559  0  0.976597  0  0.0865  0  0.113757  0.131394  0  0.97917  0
H  H26  1  0.22086125  0.78375097  0.44885499  1  0  0.117774  0  0.951929  0  0  0.130306  0  1.003657  0  0  0.133361  0  1.003556  0  0.092912  0  0.108787  0.128159  0  1.003817  0
H  H27  1  0.77913615  0.21624549  0.55114596  1  0  0.117733  0  0.951844  0  0  0.130274  0  1.003579  0  0  0.133328  0  1.003478  0  0.092967  0  0.10877  0.128127  0  1.003739  0
H  H28  1  0.22767027  0.66370356  0.28178030  1  0  0.106019  0  0.931337  0  0  0.11764  0  0.985339  0  0  0.121541  0  0.982083  0  0.103911  0  0.108872  0.114737  0  0.987783  0
H  H29  1  0.77232763  0.33629395  0.71822087  1  0  0.106068  0  0.931351  0  0  0.117696  0  0.985334  0  0  0.121596  0  0.982079  0  0.103928  0  0.108902  0.114797  0  0.987774  0
H  H30  1  0.98276386  0.92831188  0.54717366  1  0  0.115218  0  0.969378  0  0  0.120912  0  1.036158  0  0  0.124822  0  1.033959  0  0.095094  0  0.104314  0.118121  0  1.037775  0
H  H31  1  0.01723758  0.07168876  0.45282559  1  0  0.115206  0  0.969385  0  0  0.120899  0  1.036161  0  0  0.12481  0  1.033961  0  0.095156  0  0.104318  0.118108  0  1.037777  0
H  H32  1  0.93547979  0.81468191  0.67826680  1  0  0.0997  0  0.953746  0  0  0.107334  0  1.016634  0  0  0.111179  0  1.013293  0  0.096821  0  0.103644  0.104554  0  1.019035  0
H  H33  1  0.06452264  0.18532081  0.32173427  1  0  0.099674  0  0.953738  0  0  0.107309  0  1.016632  0  0  0.111152  0  1.013295  0  0.096711  0  0.103641  0.104527  0  1.019032  0
H  H34  1  0.41184870  0.90620584  0.74897441  1  0  0.105391  0  0.953686  0  0  0.113673  0  1.016273  0  0  0.117057  0  1.013891  0  0.109932  0  0.104593  0.111223  0  1.018011  0
H  H35  1  0.58815072  0.09379271  0.25102638  1  0  0.105371  0  0.95369  0  0  0.11365  0  1.01628  0  0  0.117034  0  1.013897  0  0.109882  0  0.104588  0.111185  0  1.018038  0
H  H36  1  0.46219903  0.02328527  0.62002546  1  0  0.109877  0  0.979182  0  0  0.116044  0  1.046902  0  0  0.117864  0  1.048637  0  0.121564  0  0.101031  0.114723  0  1.045849  0
H  H37  1  0.53780296  0.97671433  0.37997501  1  0  0.109848  0  0.979293  0  0  0.116006  0  1.04702  0  0  0.117826  0  1.048756  0  0.121548  0  0.101026  0.114684  0  1.045968  0
C  C38  1  0.14438921  0.37196785  0.84190023  1  0  0.145518  0  3.700464  0  0  0.114524  0  3.947815  0  0  0.121169  0  3.966668  0  0.477429  0  0.055119  0.110165  0  3.935166  0
C  C39  1  0.85560967  0.62803174  0.15809524  1  0  0.145376  0  3.700542  0  0  0.114391  0  3.947929  0  0  0.121036  0  3.966783  0  0.477586  0  0.05507  0.110033  0  3.935278  0
C  C40  1  0.15610245  0.24882901  0.79967714  1  0  -0.116729  0  3.724186  0  0  -0.12756  0  3.971392  0  0  -0.1352  0  3.994844  0  0.03134  0  -0.080475  -0.122726  0  3.955731  0
C  C41  1  0.84389539  0.75117058  0.20031826  1  0  -0.116584  0  3.724375  0  0  -0.127431  0  3.971539  0  0  -0.135067  0  3.994988  0  0.030316  0  -0.080414  -0.122597  0  3.955877  0
C  C42  1  0.30217160  0.25354696  0.80134492  1  0  0.006423  0  3.713745  0  0  -0.011948  0  3.959491  0  0  -0.007859  0  3.978695  0  -0.08172  0  -0.064429  -0.014421  0  3.946531  0
C  C43  1  0.69782471  0.74645159  0.19865019  1  0  0.006494  0  3.713784  0  0  -0.01193  0  3.959586  0  0  -0.007849  0  3.978799  0  -0.081457  0  -0.064446  -0.014403  0  3.946625  0
C  C44  1  0.43070799  0.38025475  0.84373537  1  0  -0.138483  0  3.669943  0  0  -0.156164  0  3.915139  0  0  -0.1635  0  3.935401  0  -0.004324  0  -0.077808  -0.15138  0  3.901426  0
C  C45  1  0.56928985  0.61974484  0.15626208  1  0  -0.138425  0  3.669935  0  0  -0.156123  0  3.915066  0  0  -0.16346  0  3.93533  0  -0.004687  0  -0.077774  -0.151341  0  3.901355  0
C  C46  1  0.40996359  0.50043041  0.88315537  1  0  0.183261  0  3.747522  0  0  0.17709  0  3.989967  0  0  0.183986  0  4.010565  0  0.466592  0  0.12353  0.172574  0  3.975919  0
C  C47  1  0.59003431  0.49956710  0.11684103  1  0  0.1831  0  3.747798  0  0  0.177024  0  3.990125  0  0  0.183921  0  4.010724  0  0.466415  0  0.123489  0.172509  0  3.976075  0
C  C48  1  0.53939716  0.64038076  0.92786157  1  0  0.165531  0  3.773958  0  0  0.162017  0  4.015756  0  0  0.167575  0  4.03761  0  0.490192  0  0.119021  0.158441  0  4.000815  0
C  C49  1  0.46060073  0.35961675  0.07213687  1  0  0.165578  0  3.773914  0  0  0.162004  0  4.015754  0  0  0.167562  0  4.037608  0  0.490532  0  0.11899  0.158436  0  4.000817  0
C  C50  1  0.69307577  0.66507359  0.93252352  1  0  -0.126969  0  3.67039  0  0  -0.146973  0  3.915864  0  0  -0.153891  0  3.937414  0  -0.006547  0  -0.07436  -0.14255  0  3.901557  0
C  C51  1  0.30692212  0.33492392  0.06747492  1  0  -0.127019  0  3.670294  0  0  -0.147014  0  3.9158  0  0  -0.15393  0  3.937347  0  -0.006631  0  -0.074366  -0.14259  0  3.901487  0
C  C52  1  0.80654435  0.80091803  0.97445419  1  0  0.003533  0  3.712341  0  0  -0.014357  0  3.959908  0  0  -0.011047  0  3.978876  0  -0.005889  0  -0.061467  -0.016291  0  3.946983  0
C  C53  1  0.19345562  0.19907948  0.02554643  1  0  0.003518  0  3.712317  0  0  -0.014364  0  3.959883  0  0  -0.011054  0  3.978849  0  -0.005847  0  -0.061491  -0.016297  0  3.946961  0
C  C54  1  0.76418221  0.90833595  0.01050763  1  0  -0.115642  0  3.709311  0  0  -0.128718  0  3.960133  0  0  -0.135854  0  3.981982  0  -0.047812  0  -0.077812  -0.124168  0  3.945549  0
C  C55  1  0.23581929  0.09166260  0.98949534  1  0  -0.11557  0  3.709478  0  0  -0.128643  0  3.960283  0  0  -0.135775  0  3.982132  0  -0.047909  0  -0.077747  -0.124108  0  3.945689  0
C  C56  1  0.60870594  0.87519253  0.00461733  1  0  0.153135  0  3.678358  0  0  0.119457  0  3.93564  0  0  0.126684  0  3.952772  0  0.467352  0  0.058644  0.114819  0  3.924093  0
C  C57  1  0.39129348  0.12480602  0.99538414  1  0  0.152995  0  3.678499  0  0  0.119352  0  3.935762  0  0  0.126586  0  3.952895  0  0.467362  0  0.058606  0.114723  0  3.924223  0
C  C58  1  0.26223964  0.76578004  0.13137203  1  0  0.638467  0  3.925147  0  0  0.589484  0  4.215294  0  0  0.623668  0  4.208576  0  1.54016  0  0.199991  0.56638  0  4.219048  0
C  C59  1  0.73776279  0.23422268  0.86862905  1  0  0.638434  0  3.925289  0  0  0.589407  0  4.215482  0  0  0.62359  0  4.208765  0  1.539864  0  0.199971  0.566305  0  4.219233  0
C  C60  1  0.25985293  0.83905152  0.23109594  1  0  -0.107918  0  3.80111  0  0  -0.088778  0  4.041809  0  0  -0.09919  0  4.065428  0  -0.008172  0  -0.033922  -0.082111  0  4.02584  0
C  C61  1  0.74014442  0.16094703  0.76890539  1  0  -0.107932  0  3.801008  0  0  -0.088768  0  4.041695  0  0  -0.09918  0  4.065314  0  -0.007976  0  -0.033915  -0.082104  0  4.025729  0
C  C62  1  0.27578599  0.97690930  0.25568118  1  0  -0.042021  0  3.752283  0  0  -0.062583  0  4.000462  0  0  -0.05877  0  4.017659  0  0.022192  0  -0.077684  -0.0648  0  3.988637  0
C  C63  1  0.72421349  0.02308716  0.74431991  1  0  -0.041958  0  3.752122  0  0  -0.062515  0  4.000299  0  0  -0.058701  0  4.017495  0  0.02212  0  -0.077689  -0.06473  0  3.988475  0
C  C64  1  0.27427507  0.04561026  0.34877225  1  0  -0.192443  0  3.748589  0  0  -0.21472  0  4.00708  0  0  -0.221388  0  4.025201  0  -0.077633  0  -0.102226  -0.210367  0  3.994804  0
C  C65  1  0.72572435  0.95438829  0.65122922  1  0  -0.192593  0  3.748817  0  0  -0.214862  0  4.007306  0  0  -0.221529  0  4.025425  0  -0.077236  0  -0.102271  -0.21051  0  3.99503  0
C  C66  1  0.25424467  0.97558619  0.41813070  1  0  0.289699  0  3.792479  0  0  0.276912  0  4.060638  0  0  0.290141  0  4.074568  0  0.411743  0  0.090368  0.267935  0  4.051077  0
C  C67  1  0.74575579  0.02441236  0.58187084  1  0  0.289782  0  3.792514  0  0  0.276997  0  4.060666  0  0  0.290226  0  4.074593  0  0.411411  0  0.090376  0.268022  0  4.051101  0
C  C68  1  0.23657345  0.83758766  0.39472642  1  0  -0.211324  0  3.769335  0  0  -0.22956  0  4.018801  0  0  -0.236719  0  4.038299  0  -0.056156  0  -0.109741  -0.224893  0  4.0056  0
C  C69  1  0.76342341  0.16240985  0.60527469  1  0  -0.211289  0  3.76922  0  0  -0.229537  0  4.0187  0  0  -0.236693  0  4.038197  0  -0.056191  0  -0.10972  -0.224869  0  4.0055  0
C  C70  1  0.24033096  0.77079201  0.30136825  1  0  -0.041679  0  3.762983  0  0  -0.064261  0  4.01261  0  0  -0.060636  0  4.030179  0  -0.043594  0  -0.079602  -0.066274  0  4.000519  0
C  C71  1  0.75966688  0.22920758  0.69863263  1  0  -0.041725  0  3.76297  0  0  -0.064317  0  4.012606  0  0  -0.060691  0  4.030173  0  -0.043761  0  -0.079627  -0.066335  0  4.000516  0
C  C72  1  0.22492892  0.98157198  0.57787048  1  0  0.263383  0  3.798725  0  0  0.254363  0  4.061717  0  0  0.264699  0  4.076732  0  0.367626  0  0.079373  0.247478  0  4.05129  0
C  C73  1  0.77507509  0.01842969  0.42213051  1  0  0.263289  0  3.79877  0  0  0.254242  0  4.061797  0  0  0.264577  0  4.076817  0  0.367673  0  0.07937  0.24736  0  4.051366  0
C  C74  1  0.07606198  0.92400056  0.59220375  1  0  -0.180097  0  3.750155  0  0  -0.200947  0  4.004113  0  0  -0.206684  0  4.023785  0  -0.040073  0  -0.099607  -0.197083  0  3.990665  0
C  C75  1  0.92394099  0.07600111  0.40779580  1  0  -0.180073  0  3.750134  0  0  -0.200922  0  4.004111  0  0  -0.206654  0  4.023773  0  -0.040118  0  -0.099631  -0.197056  0  3.99066  0
C  C76  1  0.04972280  0.86058620  0.66421267  1  0  -0.049887  0  3.755651  0  0  -0.071027  0  4.000667  0  0  -0.069739  0  4.021162  0  0.031835  0  -0.081722  -0.071563  0  3.986534  0
C  C77  1  0.95027810  0.13941548  0.33578811  1  0  -0.049823  0  3.75565  0  0  -0.070964  0  4.000664  0  0  -0.069676  0  4.021162  0  0.031906  0  -0.081699  -0.071493  0  3.986531  0
C  C78  1  0.17039279  0.85359321  0.72026263  1  0  -0.083908  0  3.774151  0  0  -0.063392  0  4.007558  0  0  -0.072902  0  4.032237  0  -0.049852  0  -0.025444  -0.057307  0  3.990936  0
C  C79  1  0.82960909  0.14641055  0.27973860  1  0  -0.08397  0  3.77418  0  0  -0.063458  0  4.007608  0  0  -0.072968  0  4.032286  0  -0.049786  0  -0.025495  -0.057383  0  3.990997  0
C  C80  1  0.31909128  0.91184235  0.70441290  1  0  -0.04829  0  3.738586  0  0  -0.071386  0  3.985572  0  0  -0.069828  0  4.005082  0  -0.014291  0  -0.081122  -0.072035  0  3.972176  0
C  C81  1  0.68090962  0.08815933  0.29558924  1  0  -0.048287  0  3.738529  0  0  -0.071382  0  3.985525  0  0  -0.069825  0  4.005035  0  -0.014248  0  -0.08112  -0.072018  0  3.972143  0
C  C82  1  0.34728534  0.97654125  0.63300953  1  0  -0.184984  0  3.756878  0  0  -0.204877  0  4.010581  0  0  -0.21045  0  4.030832  0  -0.099252  0  -0.099709  -0.201195  0  3.996776  0
C  C83  1  0.65271354  0.02345834  0.36699142  1  0  -0.184834  0  3.756864  0  0  -0.204707  0  4.010562  0  0  -0.210281  0  4.030817  0  -0.099239  0  -0.099662  -0.201025  0  3.996753  0
C  C84  1  0.13805686  0.78211820  0.79602406  1  0  0.646345  0  3.921531  0  0  0.598304  0  4.213362  0  0  0.632618  0  4.206482  0  1.565951  0  0.20764  0.575087  0  4.217253  0
C  C85  1  0.86194246  0.21788452  0.20397749  1  0  0.646293  0  3.921678  0  0  0.598235  0  4.213522  0  0  0.63255  0  4.206639  0  1.565938  0  0.207652  0.575022  0  4.21741  0
N  N86  1  0.26766145  0.49423087  0.88219464  1  0  -0.355839  0  3.286485  0  0  -0.279976  0  3.553626  0  0  -0.298642  0  3.567979  0  -1.245384  0  -0.320595  -0.267505  0  3.544055  0
N  N87  1  0.73233590  0.50576768  0.11780122  1  0  -0.355692  0  3.286729  0  0  -0.279845  0  3.553815  0  0  -0.29851  0  3.56817  0  -1.24537  0  -0.320499  -0.267372  0  3.54424  0
N  N88  1  0.49975427  0.74485844  0.96423390  1  0  -0.34931  0  3.264725  0  0  -0.279249  0  3.527497  0  0  -0.296928  0  3.543315  0  -1.257395  0  -0.316223  -0.267267  0  3.516601  0
N  N89  1  0.50024461  0.25514115  0.03576568  1  0  -0.349246  0  3.264689  0  0  -0.279188  0  3.527474  0  0  -0.296865  0  3.543289  0  -1.257359  0  -0.316213  -0.267232  0  3.516601  0
O  O90  1  0.24243295  0.63897632  0.10933597  1  0  -0.667456  0  1.992697  0  0  -0.610451  0  2.229306  0  0  -0.634635  0  2.216542  0  -1.205156  0  -0.32653  -0.593493  0  2.23762  0
O  O91  1  0.75757003  0.36102535  0.89066290  1  0  -0.667469  0  1.992797  0  0  -0.610435  0  2.229399  0  0  -0.634618  0  2.216638  0  -1.204802  0  -0.326586  -0.59348  0  2.237712  0
O  O92  1  0.28410832  0.83382477  0.07048684  1  0  -0.620845  0  2.009993  0  0  -0.557423  0  2.264511  0  0  -0.585651  0  2.25397  0  -1.172749  0  -0.322858  -0.537731  0  2.271012  0
O  O93  1  0.71589820  0.16618003  0.92951489  1  0  -0.620797  0  2.010023  0  0  -0.557356  0  2.264552  0  0  -0.585586  0  2.254015  0  -1.17282  0  -0.322798  -0.53766  0  2.271046  0
O  O94  1  0.25172087  0.05014366  0.50814691  1  0  -0.300714  0  2.325012  0  0  -0.234051  0  2.546951  0  0  -0.250954  0  2.546015  0  -1.104951  0  -0.157872  -0.221931  0  2.547027  0
O  O95  1  0.74828417  0.94985802  0.49185551  1  0  -0.30074  0  2.325008  0  0  -0.234073  0  2.546963  0  0  -0.250976  0  2.546026  0  -1.104922  0  -0.157881  -0.221953  0  2.547035  0
O  O96  1  0.25376189  0.77770783  0.84349365  1  0  -0.644278  0  2.053714  0  0  -0.577751  0  2.318372  0  0  -0.605681  0  2.303945  0  -1.180147  0  -0.330811  -0.558174  0  2.3276  0
O  O97  1  0.74623590  0.22229384  0.15650761  1  0  -0.644249  0  2.053764  0  0  -0.577707  0  2.318432  0  0  -0.60564  0  2.304009  0  -1.180169  0  -0.330818  -0.558127  0  2.327655  0
O  O98  1  0.00169398  0.73264392  0.80768192  1  0  -0.623014  0  1.948997  0  0  -0.572886  0  2.157883  0  0  -0.596653  0  2.147058  0  -1.183558  0  -0.327447  -0.556353  0  2.164841  0
O  O99  1  0.99830485  0.26735776  0.19231941  1  0  -0.622977  0  1.949017  0  0  -0.572836  0  2.157915  0  0  -0.596602  0  2.14709  0  -1.183512  0  -0.327452  -0.556299  0  2.164869  0
O  O100  1  0.01273552  0.60395094  0.93090554  1  0  -0.851223  0  1.894249  0  0  -0.786694  0  2.099199  0  0  -0.808791  0  2.064296  0  -1.270052  0  -0.590876  -0.770945  0  2.123267  0
O  O101  1  0.98726784  0.39605595  0.06909979  1  0  -0.851297  0  1.894279  0  0  -0.786719  0  2.099214  0  0  -0.808818  0  2.064322  0  -1.269594  0  -0.590869  -0.770992  0  2.123326  0
