# generated using pymatgen
data_CuH7C8N2O
_symmetry_space_group_name_H-M   'P 1'
_cell_length_a   7.23780080
_cell_length_b   8.88959351
_cell_length_c   11.84939773
_cell_angle_alpha   89.99999393
_cell_angle_beta   89.02106178
_cell_angle_gamma   89.99961063
_symmetry_Int_Tables_number   1
_chemical_formula_structural   CuH7C8N2O
_chemical_formula_sum   'Cu4 H28 C32 N8 O4'
_cell_volume   762.29208875
_cell_formula_units_Z   4
loop_
 _symmetry_equiv_pos_site_id
 _symmetry_equiv_pos_as_xyz
  1  'x, y, z'
loop_
 _atom_site_type_symbol
 _atom_site_label
 _atom_site_symmetry_multiplicity
 _atom_site_fract_x
 _atom_site_fract_y
 _atom_site_fract_z
 _atom_site_occupancy
 _atom_site_pbe_bader_spin_density
 _atom_site_pbe_cm5_charge
 _atom_site_pbe_ddec_charge
 _atom_site_pbe_ddec_spin_density
 _atom_site_pbe_ddec_sum_bond_order
 _atom_site_pbe_magmom
Cu  Cu0  1  0.87541436  0.90850923  0.53771349  1  0  0.484114  0.296565  0  2.835661  0
Cu  Cu1  1  0.62457933  0.40851182  0.46229217  1  0  0.484108  0.296589  0  2.835559  0
Cu  Cu2  1  0.12457071  0.09148973  0.46228972  1  0  0.484141  0.296628  0  2.835753  0
Cu  Cu3  1  0.37541408  0.59149051  0.53770849  1  0  0.484131  0.296549  0  2.835785  0
H  H4  1  0.93552805  0.61002521  0.64466691  1  0  0.118746  0.095159  0  1.018839  0
H  H5  1  0.56448066  0.11002816  0.35533280  1  0  0.118752  0.095173  0  1.018881  0
H  H6  1  0.06447230  0.38997374  0.35533205  1  0  0.118744  0.095161  0  1.018881  0
H  H7  1  0.43551135  0.88997529  0.64466871  1  0  0.118749  0.095185  0  1.018868  0
H  H8  1  0.16947605  0.68669449  0.97314909  1  0  0.111449  0.109382  0  1.010379  0
H  H9  1  0.33052162  0.18670277  0.02685668  1  0  0.111465  0.109383  0  1.010414  0
H  H10  1  0.83052427  0.31330221  0.02685155  1  0  0.111448  0.10934  0  1.010394  0
H  H11  1  0.66948985  0.81330068  0.97313887  1  0  0.111456  0.109412  0  1.010367  0
H  H12  1  0.84719471  0.40701504  0.71322509  1  0  0.092358  0.139169  0  1.045807  0
H  H13  1  0.65281293  0.90701374  0.28677463  1  0  0.092331  0.139123  0  1.04584  0
H  H14  1  0.15280986  0.59298616  0.28677048  1  0  0.092338  0.139157  0  1.045884  0
H  H15  1  0.34719014  0.09298971  0.71322685  1  0  0.092348  0.139158  0  1.045824  0
H  H16  1  0.89349479  0.26825377  0.81834495  1  0  0.100915  0.161976  0  1.008222  0
H  H17  1  0.60651268  0.76825726  0.18165139  1  0  0.100913  0.161957  0  1.00817  0
H  H18  1  0.10649588  0.73174855  0.18165488  1  0  0.100913  0.161978  0  1.008238  0
H  H19  1  0.39349320  0.23174619  0.81834755  1  0  0.100911  0.161943  0  1.008192  0
H  H20  1  0.04968243  0.29737559  0.70211987  1  0  0.104897  0.173956  0  1.003223  0
H  H21  1  0.45032411  0.79737713  0.29787997  1  0  0.104886  0.17395  0  1.003112  0
H  H22  1  0.95031785  0.70261436  0.29788245  1  0  0.104923  0.173979  0  1.003224  0
H  H23  1  0.54967761  0.20262408  0.70211983  1  0  0.10488  0.173935  0  1.003135  0
H  H24  1  0.13793102  0.96251372  0.93745245  1  0  0.109599  0.122347  0  1.014149  0
H  H25  1  0.36206852  0.46251957  0.06255332  1  0  0.109565  0.12227  0  1.014165  0
H  H26  1  0.86207206  0.03748524  0.06254818  1  0  0.109575  0.122309  0  1.014122  0
H  H27  1  0.63793598  0.53748389  0.93744562  1  0  0.109556  0.122309  0  1.014177  0
H  H28  1  0.00355923  0.04689744  0.75313049  1  0  0.114955  0.077297  0  1.03115  0
H  H29  1  0.49645346  0.54690436  0.24687270  1  0  0.114949  0.077252  0  1.031217  0
H  H30  1  0.99644245  0.95310151  0.24687099  1  0  0.114947  0.0773  0  1.031133  0
H  H31  1  0.50354826  0.45309909  0.75312709  1  0  0.11494  0.077255  0  1.031155  0
C  C32  1  0.98060865  0.68328152  0.71267011  1  0  0.056119  0.07682  0  3.882847  0
C  C33  1  0.51939943  0.18328361  0.28733045  1  0  0.056166  0.077004  0  3.882777  0
C  C34  1  0.01939030  0.31671856  0.28732969  1  0  0.056117  0.076856  0  3.882909  0
C  C35  1  0.48059676  0.81671534  0.71266936  1  0  0.056129  0.076935  0  3.882859  0
C  C36  1  0.69763095  0.60932732  0.47296561  1  0  -0.071975  -0.151328  0  3.963916  0
C  C37  1  0.80235676  0.10933903  0.52704766  1  0  -0.071795  -0.151143  0  3.964682  0
C  C38  1  0.30235971  0.39066713  0.52703421  1  0  -0.071888  -0.151273  0  3.963933  0
C  C39  1  0.19762947  0.89067567  0.47296652  1  0  -0.072033  -0.151514  0  3.963859  0
C  C40  1  0.06582410  0.46069458  0.83303447  1  0  0.169869  0.478323  0  3.930457  0
C  C41  1  0.43418243  0.96070524  0.16696790  1  0  0.169856  0.478179  0  3.930767  0
C  C42  1  0.93418040  0.53929987  0.16696446  1  0  0.169864  0.478267  0  3.930362  0
C  C43  1  0.56582347  0.03929821  0.83303019  1  0  0.169842  0.478211  0  3.930651  0
C  C44  1  0.11077671  0.72771678  0.89503984  1  0  -0.053687  -0.028682  0  3.908244  0
C  C45  1  0.38922756  0.22772922  0.10496423  1  0  -0.053774  -0.028651  0  3.908643  0
C  C46  1  0.88922775  0.27227429  0.10496079  1  0  -0.053751  -0.028644  0  3.908477  0
C  C47  1  0.61077976  0.77227535  0.89503133  1  0  -0.053763  -0.028676  0  3.908644  0
C  C48  1  0.95554322  0.35385145  0.76259202  1  0  -0.249172  -0.515072  0  3.873504  0
C  C49  1  0.54446077  0.85385527  0.23740433  1  0  -0.249157  -0.514987  0  3.873419  0
C  C50  1  0.04445849  0.64614976  0.23740777  1  0  -0.2492  -0.515087  0  3.873544  0
C  C51  1  0.45554094  0.14614818  0.76259546  1  0  -0.249151  -0.514967  0  3.873402  0
C  C52  1  0.05123663  0.62574717  0.81306254  1  0  -0.015954  -0.078957  0  3.965255  0
C  C53  1  0.44876577  0.12575588  0.18693899  1  0  -0.016009  -0.079239  0  3.965576  0
C  C54  1  0.94876372  0.37424729  0.18693641  1  0  -0.016015  -0.07909  0  3.965428  0
C  C55  1  0.55123737  0.87424982  0.81305826  1  0  -0.016009  -0.079242  0  3.965471  0
C  C56  1  0.09333961  0.88106580  0.87489658  1  0  -0.080716  -0.123875  0  3.954523  0
C  C57  1  0.40666611  0.38107477  0.12511001  1  0  -0.080608  -0.123653  0  3.954622  0
C  C58  1  0.90666482  0.11892977  0.12510573  1  0  -0.080638  -0.123761  0  3.954655  0
C  C59  1  0.59333977  0.61893094  0.87488892  1  0  -0.08057  -0.123702  0  3.954685  0
C  C60  1  0.02005492  0.92805692  0.77287903  1  0  0.051333  0.093697  0  3.932069  0
C  C61  1  0.47995323  0.42806545  0.22712503  1  0  0.051331  0.093741  0  3.93214  0
C  C62  1  0.97994402  0.07193753  0.22712161  1  0  0.051315  0.093679  0  3.932101  0
C  C63  1  0.52004849  0.57193688  0.77287476  1  0  0.051362  0.093754  0  3.932049  0
N  N64  1  0.96602103  0.83132770  0.69243317  1  0  -0.346554  -0.197336  0  3.613401  0
N  N65  1  0.53398443  0.33133196  0.30756824  1  0  -0.346555  -0.197414  0  3.613345  0
N  N66  1  0.03397517  0.16867125  0.30756580  1  0  -0.346495  -0.197342  0  3.613356  0
N  N67  1  0.46601452  0.66866924  0.69243156  1  0  -0.346561  -0.197383  0  3.613488  0
N  N68  1  0.76921609  0.72851142  0.47919895  1  0  -0.433815  -0.292729  0  3.602415  0
N  N69  1  0.73078455  0.22850329  0.52080922  1  0  -0.433871  -0.292769  0  3.603479  0
N  N70  1  0.23077184  0.27149203  0.52079919  1  0  -0.433871  -0.292699  0  3.602464  0
N  N71  1  0.26922119  0.77148554  0.47919647  1  0  -0.433764  -0.292587  0  3.602124  0
O  O72  1  0.16857966  0.41273371  0.90730634  1  0  -0.262528  -0.436804  0  2.132556  0
O  O73  1  0.33142306  0.91274271  0.09269857  1  0  -0.262482  -0.436644  0  2.132687  0
O  O74  1  0.83142342  0.58726299  0.09269429  1  0  -0.262473  -0.436704  0  2.132553  0
O  O75  1  0.66858699  0.08726074  0.90729866  1  0  -0.262468  -0.436656  0  2.132588  0
