# generated using pymatgen
data_Dy2H30C45(SO8)3
_symmetry_space_group_name_H-M   'P 1'
_cell_length_a   9.23499923
_cell_length_b   15.59204936
_cell_length_c   21.81171274
_cell_angle_alpha   102.84966815
_cell_angle_beta   101.60101974
_cell_angle_gamma   104.70021073
_symmetry_Int_Tables_number   1
_chemical_formula_structural   Dy2H30C45(SO8)3
_chemical_formula_sum   'Dy4 H60 C90 S6 O48'
_cell_volume   2849.26057051
_cell_formula_units_Z   2
loop_
 _symmetry_equiv_pos_site_id
 _symmetry_equiv_pos_as_xyz
  1  'x, y, z'
loop_
 _atom_site_type_symbol
 _atom_site_label
 _atom_site_symmetry_multiplicity
 _atom_site_fract_x
 _atom_site_fract_y
 _atom_site_fract_z
 _atom_site_occupancy
 _atom_site_pbe_bader_charge
 _atom_site_pbe_bader_spin_density
 _atom_site_pbe_cm5_charge
 _atom_site_pbe_ddec_charge
 _atom_site_pbe_ddec_spin_density
 _atom_site_pbe_ddec_sum_bond_order
 _atom_site_pbe_magmom
Dy  Dy0  1  0.50701500  0.86338198  0.81600226  1  2.202062  0  1.575524  2.137821  0  2.231649  0
Dy  Dy1  1  0.03347161  0.90667686  0.85291399  1  2.194671  0  1.589248  2.142762  0  2.242368  0
Dy  Dy2  1  0.49297804  0.13661716  0.18399665  1  2.202072  0  1.575595  2.13787  0  2.231298  0
Dy  Dy3  1  0.96652955  0.09332089  0.14708493  1  2.194551  0  1.589204  2.142651  0  2.242669  0
H  H4  1  0.87569008  0.83610489  0.67543845  1  0.101776  0  0.110926  0.113876  0  1.002857  0
H  H5  1  0.73250029  0.84049734  0.56780303  1  0.096233  0  0.112479  0.130974  0  0.998394  0
H  H6  1  0.30635714  0.90244759  0.62208957  1  0.075669  0  0.113604  0.13306  0  1.004601  0
H  H7  1  0.65075090  0.78643597  0.45203267  1  0.102352  0  0.10522  0.122398  0  0.974917  0
H  H8  1  0.66820248  0.90531576  0.48883965  1  0.079287  0  0.095407  0.100628  0  1.036858  0
H  H9  1  0.67849080  0.86808920  0.40627529  1  0.058162  0  0.103585  0.115786  0  0.982527  0
H  H10  1  0.97307942  0.84413708  0.36448730  1  0.10937  0  0.115232  0.121448  0  0.995853  0
H  H11  1  0.95865699  0.91091423  0.26943771  1  0.107079  0  0.107626  0.110314  0  1.026311  0
H  H12  1  0.45704697  0.01580559  0.32069156  1  0.098397  0  0.111439  0.112886  0  1.021885  0
H  H13  1  0.47408635  0.95186031  0.41729348  1  0.116534  0  0.112027  0.117454  0  1.018055  0
H  H14  1  0.97526741  0.66742095  0.91512144  1  0.103146  0  0.109172  0.109891  0  1.027576  0
H  H15  1  0.89785740  0.50866713  0.92910500  1  0.112729  0  0.110597  0.120573  0  1.010133  0
H  H16  1  0.26045119  0.44773925  0.84647220  1  0.11927  0  0.111798  0.117616  0  1.016648  0
H  H17  1  0.33997798  0.60865885  0.83535497  1  0.131629  0  0.114464  0.121651  0  0.996742  0
H  H18  1  0.04884273  0.22873803  0.00945861  1  0.115435  0  0.12096  0.141634  0  0.986004  0
H  H19  1  0.48139769  0.16737603  0.02913298  1  0.085409  0  0.117855  0.11871  0  0.986242  0
H  H20  1  0.58289175  0.29036570  0.97983879  1  0.077325  0  0.110418  0.129506  0  1.001693  0
H  H21  1  0.66202791  0.44685714  0.98242958  1  0.090623  0  0.097261  0.102579  0  1.020844  0
H  H22  1  0.59216493  0.36403635  0.90258115  1  0.078904  0  0.098393  0.109986  0  1.022433  0
H  H23  1  0.58712422  0.48017187  0.91200074  1  0.072737  0  0.106685  0.121692  0  0.973688  0
H  H24  1  0.55890251  0.56277610  0.79456205  1  0.123424  0  0.114139  0.135083  0  0.993066  0
H  H25  1  0.00408691  0.55532416  0.69935994  1  0.077942  0  0.113026  0.127977  0  0.995228  0
H  H26  1  0.93113858  0.69860414  0.72395425  1  0.088222  0  0.11144  0.114836  0  1.009339  0
H  H27  1  0.95457560  0.39332712  0.64744418  1  0.084595  0  0.106417  0.121389  0  0.978716  0
H  H28  1  0.09643451  0.44354202  0.72636624  1  0.050769  0  0.096525  0.102676  0  1.017777  0
H  H29  1  0.99648681  0.32190300  0.69797003  1  0.095413  0  0.10471  0.119469  0  0.994297  0
H  H30  1  0.22972084  0.27319475  0.79233660  1  0.143017  0  0.110669  0.124148  0  1.025854  0
H  H31  1  0.19145317  0.15027120  0.84910297  1  0.13643  0  0.115358  0.121587  0  1.007569  0
H  H32  1  0.60773681  0.09665793  0.81518924  1  0.112638  0  0.115536  0.119878  0  1.017933  0
H  H33  1  0.64723572  0.21934047  0.75730331  1  0.123517  0  0.115348  0.124982  0  0.982545  0
H  H34  1  0.12431511  0.16389633  0.32456181  1  0.101745  0  0.110912  0.113883  0  1.002803  0
H  H35  1  0.26750158  0.15950597  0.43219820  1  0.09633  0  0.112483  0.130998  0  0.998368  0
H  H36  1  0.69364178  0.09755224  0.37790811  1  0.075584  0  0.113603  0.133061  0  1.004604  0
H  H37  1  0.34924620  0.21356456  0.54796772  1  0.102322  0  0.105217  0.122368  0  0.974971  0
H  H38  1  0.33179827  0.09468753  0.51116056  1  0.079283  0  0.095391  0.100577  0  1.036914  0
H  H39  1  0.32150812  0.13191271  0.59372410  1  0.058193  0  0.103605  0.115821  0  0.98254  0
H  H40  1  0.02692435  0.15585930  0.63551345  1  0.109432  0  0.115212  0.121402  0  0.995792  0
H  H41  1  0.04133905  0.08908214  0.73056285  1  0.107004  0  0.107637  0.110327  0  1.026323  0
H  H42  1  0.54295013  0.98419495  0.67930975  1  0.098334  0  0.111422  0.112889  0  1.021826  0
H  H43  1  0.52591370  0.04813952  0.58270659  1  0.116546  0  0.112028  0.117421  0  1.018147  0
H  H44  1  0.02473776  0.33258234  0.08487869  1  0.103348  0  0.10915  0.109865  0  1.027514  0
H  H45  1  0.10214445  0.49133825  0.07089793  1  0.112757  0  0.110595  0.120572  0  1.010148  0
H  H46  1  0.73954042  0.55225921  0.15353015  1  0.119399  0  0.11178  0.117527  0  1.016659  0
H  H47  1  0.66002282  0.39133821  0.16464335  1  0.131607  0  0.114419  0.121582  0  0.996868  0
H  H48  1  0.95115439  0.77126042  0.99054146  1  0.115429  0  0.12093  0.141582  0  0.986057  0
H  H49  1  0.51860052  0.83262242  0.97086580  1  0.085462  0  0.117861  0.118705  0  0.986266  0
H  H50  1  0.41710903  0.70963552  0.02016202  1  0.077295  0  0.110397  0.129486  0  1.00173  0
H  H51  1  0.33797064  0.55314616  0.01757183  1  0.090599  0  0.097253  0.10257  0  1.020803  0
H  H52  1  0.40783399  0.63596765  0.09742132  1  0.078818  0  0.098367  0.10997  0  1.022374  0
H  H53  1  0.41287029  0.51983005  0.08800057  1  0.072634  0  0.106673  0.121626  0  0.973609  0
H  H54  1  0.44109749  0.43722580  0.20543514  1  0.123189  0  0.114213  0.135251  0  0.993157  0
H  H55  1  0.99592053  0.44467499  0.30064202  1  0.077949  0  0.113033  0.127974  0  0.995155  0
H  H56  1  0.06886846  0.30139431  0.27604252  1  0.088195  0  0.111452  0.11491  0  1.009289  0
H  H57  1  0.04542558  0.60667064  0.35255658  1  0.08456  0  0.106403  0.121347  0  0.978717  0
H  H58  1  0.90356852  0.55645505  0.27363410  1  0.050635  0  0.09653  0.102653  0  1.017796  0
H  H59  1  0.00351694  0.67809546  0.30203060  1  0.095478  0  0.104701  0.119457  0  0.994289  0
H  H60  1  0.77027366  0.72680925  0.20766596  1  0.143138  0  0.110698  0.124193  0  1.025891  0
H  H61  1  0.80853988  0.84972793  0.15089548  1  0.136378  0  0.115367  0.121599  0  1.007509  0
H  H62  1  0.39225475  0.90334259  0.18481023  1  0.112575  0  0.11554  0.119907  0  1.017922  0
H  H63  1  0.35276319  0.78066353  0.24269870  1  0.123384  0  0.115407  0.125097  0  0.982583  0
C  C64  1  0.18619744  0.86466910  0.71990439  1  1.544007  0  0.237419  0.672931  0  4.144302  0
C  C65  1  0.10010448  0.86854373  0.65613682  1  -0.017183  0  -0.031116  -0.066211  0  4.012797  0
C  C66  1  0.93868108  0.85226823  0.64010377  1  -0.031011  0  -0.077706  -0.064837  0  3.984159  0
C  C67  1  0.85818219  0.85512961  0.57973814  1  -0.006709  0  -0.103278  -0.208123  0  3.989069  0
C  C68  1  0.93910730  0.87712777  0.53430704  1  0.57443  0  0.099073  0.197588  0  4.033531  0
C  C69  1  0.10235026  0.89633982  0.55203672  1  0.345781  0  0.066602  0.153019  0  4.033289  0
C  C70  1  0.18126890  0.89020654  0.61089622  1  0.079985  0  -0.086771  -0.175084  0  3.970963  0
C  C71  1  0.70710477  0.85880803  0.45500555  1  0.377373  0  -0.142513  -0.18035  0  3.874958  0
C  C72  1  0.22455345  0.89317564  0.39444252  1  -0.254768  0  -0.008134  -0.076295  0  3.979748  0
C  C73  1  0.07804502  0.88092839  0.35394266  1  0.071781  0  -0.072666  -0.084937  0  3.958987  0
C  C74  1  0.07042577  0.91795987  0.30140576  1  -0.028686  0  -0.070133  -0.062942  0  3.919294  0
C  C75  1  0.20727115  0.96566899  0.28929245  1  -0.038869  0  -0.004716  -0.030945  0  3.914714  0
C  C76  1  0.35255738  0.97770997  0.33080812  1  -0.000305  0  -0.070904  -0.075601  0  3.927252  0
C  C77  1  0.36228076  0.94193990  0.38403335  1  -0.000812  0  -0.075566  -0.082786  0  3.958765  0
C  C78  1  0.20062877  0.00624665  0.23290338  1  1.59089  0  0.246575  0.672459  0  4.132325  0
C  C79  1  0.20658308  0.74300927  0.86689603  1  1.599959  0  0.248539  0.675626  0  4.129623  0
C  C80  1  0.16308449  0.64753853  0.87536404  1  0.011293  0  -0.005724  -0.033112  0  3.921948  0
C  C81  1  0.03851143  0.61949949  0.90145764  1  -0.012005  0  -0.072967  -0.069275  0  3.934376  0
C  C82  1  0.99425139  0.53090419  0.90868251  1  -0.024985  0  -0.077988  -0.083444  0  3.962227  0
C  C83  1  0.07519539  0.47021967  0.88869349  1  -0.203492  0  -0.010607  -0.082842  0  3.982794  0
C  C84  1  0.20014021  0.49657331  0.86231894  1  0.018498  0  -0.075337  -0.084883  0  3.963441  0
C  C85  1  0.24402958  0.58586219  0.85608839  1  -0.066192  0  -0.071188  -0.079739  0  3.923449  0
C  C86  1  0.22452921  0.31391217  0.97794208  1  0.398258  0  0.063994  0.143684  0  4.037574  0
C  C87  1  0.16577703  0.24255433  0.00310181  1  -0.012267  0  -0.080122  -0.170931  0  3.957246  0
C  C88  1  0.25956978  0.19030625  0.02294946  1  0.076099  0  -0.02217  -0.060588  0  3.997645  0
C  C89  1  0.40956157  0.20873490  0.01424551  1  -0.017036  0  -0.069536  -0.045103  0  3.962624  0
C  C90  1  0.46682672  0.27812495  0.98688320  1  -0.006295  0  -0.104926  -0.211442  0  4.004129  0
C  C91  1  0.37523269  0.33249222  0.96858744  1  0.505094  0  0.090451  0.179919  0  4.052043  0
C  C92  1  0.20727134  0.12343041  0.05903150  1  1.574895  0  0.241753  0.661876  0  4.162439  0
C  C93  1  0.57561819  0.42370145  0.93461931  1  0.338227  0  -0.143465  -0.18186  0  3.860562  0
C  C94  1  0.70110348  0.72777601  0.77753693  1  1.524055  0  0.233169  0.656362  0  4.165235  0
C  C95  1  0.74014056  0.64069663  0.76057462  1  0.072676  0  -0.027474  -0.058058  0  4.009266  0
C  C96  1  0.65717518  0.56194845  0.77426159  1  -0.002359  0  -0.087318  -0.178061  0  3.978907  0
C  C97  1  0.70310066  0.48339799  0.76347063  1  0.34539  0  0.063415  0.143139  0  4.031455  0
C  C98  1  0.82815373  0.47825041  0.73615795  1  0.542681  0  0.094495  0.188613  0  4.048584  0
C  C99  1  0.90763687  0.55673682  0.72072865  1  0.063417  0  -0.102072  -0.206755  0  4.000753  0
C  C100  1  0.86571276  0.63711256  0.73410112  1  -0.089892  0  -0.076196  -0.063735  0  3.972304  0
C  C101  1  0.98583925  0.39011305  0.69799520  1  0.357565  0  -0.137689  -0.174652  0  3.860133  0
C  C102  1  0.43913499  0.25147120  0.77144805  1  -0.239561  0  -0.012061  -0.084774  0  4.002103  0
C  C103  1  0.31121001  0.23391487  0.79694532  1  0.001163  0  -0.080637  -0.098486  0  3.972451  0
C  C104  1  0.29065767  0.16568454  0.82902917  1  -0.001736  0  -0.069859  -0.072055  0  3.938824  0
C  C105  1  0.39748500  0.11636407  0.83525847  1  -0.061449  0  -0.00472  -0.039759  0  3.925458  0
C  C106  1  0.52597823  0.13564401  0.80960462  1  -0.001475  0  -0.067536  -0.068241  0  3.912986  0
C  C107  1  0.54770818  0.20329950  0.77719771  1  0.003318  0  -0.072929  -0.076698  0  3.960345  0
C  C108  1  0.37102943  0.04005378  0.86707441  1  1.57041  0  0.245674  0.664352  0  4.154067  0
C  C109  1  0.81380001  0.13533211  0.28009522  1  1.543836  0  0.237379  0.672857  0  4.144392  0
C  C110  1  0.89989960  0.13145749  0.34386243  1  -0.01717  0  -0.031089  -0.066161  0  4.012864  0
C  C111  1  0.06131787  0.14772952  0.35989450  1  -0.031039  0  -0.077722  -0.06493  0  3.984224  0
C  C112  1  0.14181931  0.14487091  0.42026078  1  -0.006824  0  -0.103239  -0.208027  0  3.988967  0
C  C113  1  0.06089384  0.12287206  0.46569221  1  0.5745  0  0.099013  0.197462  0  4.033336  0
C  C114  1  0.89764867  0.10366001  0.44796234  1  0.345935  0  0.066673  0.153146  0  4.032963  0
C  C115  1  0.81872711  0.10978982  0.38910113  1  0.080007  0  -0.086803  -0.175177  0  3.970916  0
C  C116  1  0.29289341  0.14119457  0.54499480  1  0.377402  0  -0.142523  -0.180304  0  3.875087  0
C  C117  1  0.77545103  0.10682421  0.60555885  1  -0.255028  0  -0.008107  -0.076354  0  3.979925  0
C  C118  1  0.92195618  0.11906730  0.64605777  1  0.072281  0  -0.072764  -0.084921  0  3.959061  0
C  C119  1  0.92957468  0.08203650  0.69859471  1  -0.028584  0  -0.07005  -0.062906  0  3.919238  0
C  C120  1  0.79272154  0.03432945  0.71070725  1  -0.03885  0  -0.004756  -0.031055  0  3.914764  0
C  C121  1  0.64744301  0.02229264  0.66919288  1  -0.000459  0  -0.070889  -0.075548  0  3.927194  0
C  C122  1  0.63772077  0.05805854  0.61596525  1  -0.000791  0  -0.07554  -0.082737  0  3.958919  0
C  C123  1  0.79938419  0.99375251  0.76709813  1  1.590287  0  0.246621  0.672478  0  4.132246  0
C  C124  1  0.79341108  0.25698987  0.13310389  1  1.599786  0  0.248421  0.675231  0  4.129943  0
C  C125  1  0.83691411  0.35245854  0.12463501  1  0.011327  0  -0.00574  -0.033087  0  3.922027  0
C  C126  1  0.96148858  0.38050450  0.09854309  1  -0.012232  0  -0.072882  -0.069133  0  3.934304  0
C  C127  1  0.00575231  0.46910049  0.09131909  1  -0.025061  0  -0.0781  -0.083562  0  3.962384  0
C  C128  1  0.92479990  0.52977948  0.11130975  1  -0.203193  0  -0.010502  -0.082854  0  3.982811  0
C  C129  1  0.79985913  0.50342515  0.13768268  1  0.018233  0  -0.075293  -0.084652  0  3.963339  0
C  C130  1  0.75596903  0.41413488  0.14391249  1  -0.066337  0  -0.071188  -0.079774  0  3.923658  0
C  C131  1  0.77546974  0.68608767  0.02205882  1  0.398176  0  0.064062  0.143829  0  4.037561  0
C  C132  1  0.83422046  0.75744273  0.99689761  1  -0.012127  0  -0.080151  -0.170943  0  3.957415  0
C  C133  1  0.74043065  0.80969220  0.97705043  1  0.076419  0  -0.022156  -0.060653  0  3.997593  0
C  C134  1  0.59043702  0.79126216  0.98575263  1  -0.017433  0  -0.069548  -0.045108  0  3.96269  0
C  C135  1  0.53316963  0.72187627  0.01311632  1  -0.005873  0  -0.104893  -0.211391  0  4.004048  0
C  C136  1  0.62476773  0.66750832  0.03141414  1  0.504726  0  0.090446  0.179908  0  4.051957  0
C  C137  1  0.79273278  0.87656666  0.94096802  1  1.575435  0  0.241906  0.662221  0  4.162382  0
C  C138  1  0.42438734  0.57630254  0.06538142  1  0.338481  0  -0.143401  -0.181723  0  3.860635  0
C  C139  1  0.29891273  0.27222520  0.22245876  1  1.52379  0  0.233216  0.656325  0  4.165194  0
C  C140  1  0.25986351  0.35930458  0.23942233  1  0.07252  0  -0.027535  -0.058061  0  4.009353  0
C  C141  1  0.34282629  0.43805206  0.22573320  1  -0.001809  0  -0.087434  -0.178375  0  3.979191  0
C  C142  1  0.29690272  0.51660186  0.23653064  1  0.345113  0  0.063469  0.143313  0  4.031182  0
C  C143  1  0.17184963  0.52174943  0.26384194  1  0.542568  0  0.094528  0.188658  0  4.048402  0
C  C144  1  0.09237018  0.44326163  0.27927088  1  0.063638  0  -0.102085  -0.206731  0  4.000571  0
C  C145  1  0.13429649  0.36288588  0.26589630  1  -0.08986  0  -0.076154  -0.063796  0  3.972294  0
C  C146  1  0.01416303  0.60988471  0.30200519  1  0.357687  0  -0.137699  -0.174607  0  3.860172  0
C  C147  1  0.56086061  0.74853279  0.22855413  1  -0.239667  0  -0.012136  -0.084661  0  4.002111  0
C  C148  1  0.68878632  0.76608842  0.20305544  1  0.001256  0  -0.080645  -0.09866  0  3.97226  0
C  C149  1  0.70933720  0.83431806  0.17097182  1  -0.001751  0  -0.069815  -0.071929  0  3.938894  0
C  C150  1  0.60250549  0.88363229  0.16473933  1  -0.061339  0  -0.004759  -0.039871  0  3.925346  0
C  C151  1  0.47401151  0.86435513  0.19039585  1  -0.001785  0  -0.067557  -0.0683  0  3.912724  0
C  C152  1  0.45228674  0.79669895  0.22280401  1  0.003661  0  -0.072962  -0.076838  0  3.960592  0
C  C153  1  0.62895735  0.95994813  0.13292808  1  1.570479  0  0.245713  0.664456  0  4.15396  0
S  S154  1  0.23499381  0.84643179  0.46141549  1  2.987554  0  0.555538  1.106525  0  5.89971  0
S  S155  1  0.01533955  0.35722663  0.89733806  1  2.956192  0  0.557805  1.109332  0  5.879349  0
S  S156  1  0.46325981  0.33803860  0.73089140  1  2.951201  0  0.550752  1.103469  0  5.918766  0
S  S157  1  0.76501251  0.15356737  0.53858546  1  2.987471  0  0.555813  1.106867  0  5.899727  0
S  S158  1  0.98465903  0.64277668  0.10266702  1  2.955671  0  0.557734  1.109073  0  5.879503  0
S  S159  1  0.53673985  0.66196471  0.26911057  1  2.95119  0  0.5508  1.103526  0  5.918893  0
O  O160  1  0.12005897  0.86799496  0.76601886  1  -1.216691  0  -0.433077  -0.735195  0  2.407842  0
O  O161  1  0.32389393  0.85879209  0.72688947  1  -1.198822  0  -0.41591  -0.689189  0  2.229307  0
O  O162  1  0.87382191  0.88131137  0.47447906  1  -1.089435  0  -0.174549  -0.139167  0  2.604128  0
O  O163  1  0.18479419  0.92499892  0.50900533  1  -1.123391  0  -0.177266  -0.322315  0  2.513303  0
O  O164  1  0.11621377  0.75858707  0.44495432  1  -1.278852  0  -0.294563  -0.509546  0  2.151035  0
O  O165  1  0.39458810  0.85644773  0.49141459  1  -1.295485  0  -0.299899  -0.518627  0  2.174732  0
O  O166  1  0.06844884  0.99789010  0.19659538  1  -1.198141  0  -0.398339  -0.68218  0  2.271653  0
O  O167  1  0.33022685  0.04742415  0.22499416  1  -1.210533  0  -0.418341  -0.710993  0  2.37613  0
O  O168  1  0.12190377  0.79313121  0.88092680  1  -1.202686  0  -0.405293  -0.690879  0  2.294485  0
O  O169  1  0.32554085  0.76825883  0.84646192  1  -1.20897  0  -0.41277  -0.70675  0  2.340231  0
O  O170  1  0.86432957  0.33944487  0.90916093  1  -1.287479  0  -0.29731  -0.511439  0  2.175088  0
O  O171  1  0.04564210  0.29116977  0.84794552  1  -1.283791  0  -0.289542  -0.503541  0  2.186404  0
O  O172  1  0.14062139  0.37536651  0.96815507  1  -1.123339  0  -0.180229  -0.330623  0  2.520051  0
O  O173  1  0.46268393  0.99179780  0.86728584  1  -1.185395  0  -0.40951  -0.675656  0  2.323541  0
O  O174  1  0.25475591  0.02519334  0.89103607  1  -1.199172  0  -0.423545  -0.692026  0  2.28683  0
O  O175  1  0.06556875  0.09957146  0.06083580  1  -1.205368  0  -0.416642  -0.6805  0  2.243852  0
O  O176  1  0.31013474  0.09571387  0.09016011  1  -1.206222  0  -0.426535  -0.709585  0  2.336185  0
O  O177  1  0.34490984  0.38262531  0.73491066  1  -1.288969  0  -0.30095  -0.52168  0  2.167216  0
O  O178  1  0.62866369  0.40748246  0.78272682  1  -1.109657  0  -0.178354  -0.324211  0  2.498058  0
O  O179  1  0.56459831  0.72635750  0.78158541  1  -1.188668  0  -0.398178  -0.665926  0  2.18353  0
O  O180  1  0.42034086  0.40217239  0.94228747  1  -1.071016  0  -0.175334  -0.146746  0  2.617419  0
O  O181  1  0.80978484  0.80394127  0.78909510  1  -1.218229  0  -0.435548  -0.743278  0  2.411588  0
O  O182  1  0.86306170  0.39839249  0.72824464  1  -1.06377  0  -0.177111  -0.142022  0  2.597098  0
O  O183  1  0.49114737  0.30525227  0.66864775  1  -1.275809  0  -0.293544  -0.509453  0  2.166517  0
O  O184  1  0.87994987  0.13200694  0.23397723  1  -1.216487  0  -0.433055  -0.735181  0  2.407558  0
O  O185  1  0.67611713  0.14120982  0.27310864  1  -1.198819  0  -0.415861  -0.689091  0  2.229643  0
O  O186  1  0.12617849  0.11868915  0.52552070  1  -1.089433  0  -0.174534  -0.139157  0  2.604071  0
O  O187  1  0.81519959  0.07499951  0.49099170  1  -1.123463  0  -0.17735  -0.322362  0  2.513316  0
O  O188  1  0.88379663  0.24140932  0.55504562  1  -1.278877  0  -0.294637  -0.509624  0  2.151238  0
O  O189  1  0.60541819  0.14355766  0.50859101  1  -1.295343  0  -0.300029  -0.518808  0  2.174603  0
O  O190  1  0.93154644  0.00210697  0.80340340  1  -1.198284  0  -0.398274  -0.682083  0  2.272067  0
O  O191  1  0.66976736  0.95257085  0.77500741  1  -1.209969  0  -0.418479  -0.711097  0  2.375616  0
O  O192  1  0.87811613  0.20687070  0.11906976  1  -1.202208  0  -0.405293  -0.690773  0  2.29404  0
O  O193  1  0.67446587  0.23173060  0.15352973  1  -1.209284  0  -0.412645  -0.706468  0  2.340725  0
O  O194  1  0.13566752  0.66055983  0.09084516  1  -1.287288  0  -0.297253  -0.511283  0  2.175101  0
O  O195  1  0.95434983  0.70883353  0.15205717  1  -1.283297  0  -0.28956  -0.503473  0  2.18663  0
O  O196  1  0.85938086  0.62463542  0.03184735  1  -1.123461  0  -0.180223  -0.330631  0  2.519955  0
O  O197  1  0.53731284  0.00819788  0.13271238  1  -1.185619  0  -0.409539  -0.675725  0  2.323786  0
O  O198  1  0.74524411  0.97481066  0.10896603  1  -1.198936  0  -0.423524  -0.692004  0  2.28656  0
O  O199  1  0.93442211  0.90042560  0.93916260  1  -1.205857  0  -0.416656  -0.680578  0  2.244197  0
O  O200  1  0.68985939  0.90428734  0.90983876  1  -1.20623  0  -0.426645  -0.709826  0  2.335946  0
O  O201  1  0.65509350  0.61737869  0.26509217  1  -1.288891  0  -0.300932  -0.521707  0  2.16725  0
O  O202  1  0.37134148  0.59252084  0.21727377  1  -1.109804  0  -0.178415  -0.324309  0  2.498058  0
O  O203  1  0.43540685  0.27364580  0.21841335  1  -1.188669  0  -0.398159  -0.665847  0  2.183832  0
O  O204  1  0.57965476  0.59782952  0.05771394  1  -1.071133  0  -0.175383  -0.146846  0  2.61775  0
O  O205  1  0.19021966  0.19605441  0.21090332  1  -1.218123  0  -0.435562  -0.743273  0  2.411319  0
O  O206  1  0.13694426  0.60160805  0.27175879  1  -1.063718  0  -0.177129  -0.142059  0  2.597032  0
O  O207  1  0.50884976  0.69474619  0.33135415  1  -1.275682  0  -0.293599  -0.509495  0  2.166563  0
