# generated using pymatgen
data_Cu5H56C48(N6Cl)2
_symmetry_space_group_name_H-M   'P 1'
_cell_length_a   8.70354823
_cell_length_b   16.57328887
_cell_length_c   16.57325430
_cell_angle_alpha   89.99995485
_cell_angle_beta   89.99998524
_cell_angle_gamma   89.99975617
_symmetry_Int_Tables_number   1
_chemical_formula_structural   Cu5H56C48(N6Cl)2
_chemical_formula_sum   'Cu10 H112 C96 N24 Cl4'
_cell_volume   2390.63258324
_cell_formula_units_Z   2
loop_
 _symmetry_equiv_pos_site_id
 _symmetry_equiv_pos_as_xyz
  1  'x, y, z'
loop_
 _atom_site_type_symbol
 _atom_site_label
 _atom_site_symmetry_multiplicity
 _atom_site_fract_x
 _atom_site_fract_y
 _atom_site_fract_z
 _atom_site_occupancy
 _atom_site_pbe_bader_charge
 _atom_site_pbe_bader_spin_density
 _atom_site_pbe_cm5_charge
 _atom_site_pbe_ddec_charge
 _atom_site_pbe_ddec_spin_density
 _atom_site_pbe_ddec_sum_bond_order
 _atom_site_pbe_magmom
Cu  Cu0  1  0.25000041  0.24999949  0.25000027  1  0.942386  0.560191  0.721985  0.608584  0.722962  2.352134  0.559
Cu  Cu1  1  0.74999779  0.75000148  0.75000082  1  0.942289  0.560183  0.722014  0.608533  0.722956  2.352303  0.559
Cu  Cu2  1  0.25000174  0.74999968  0.60654321  1  0.600719  0.002717  0.47597  0.31344  0.003267  2.205783  0.003
Cu  Cu3  1  0.24999883  0.89345275  0.74999838  1  0.600686  0.002718  0.475938  0.313429  0.003268  2.205787  0.003
Cu  Cu4  1  0.25000167  0.74999957  0.89345367  1  0.600718  0.002721  0.476001  0.313529  0.003271  2.205845  0.003
Cu  Cu5  1  0.25000458  0.60654530  0.75000031  1  0.600761  0.002718  0.475989  0.31346  0.003268  2.205791  0.003
Cu  Cu6  1  0.74999875  0.25000128  0.39345728  1  0.600726  0.002717  0.476035  0.313517  0.003267  2.205926  0.003
Cu  Cu7  1  0.74999707  0.10655063  0.25000090  1  0.600706  0.00272  0.475956  0.313431  0.003271  2.205897  0.003
Cu  Cu8  1  0.75000227  0.25000079  0.10654501  1  0.600753  0.002719  0.475954  0.313403  0.003269  2.205783  0.003
Cu  Cu9  1  0.74999936  0.39345084  0.25000079  1  0.600768  0.002719  0.475952  0.313438  0.00327  2.2059  0.003
H  H10  1  0.03869246  0.49515137  0.39765134  1  0.112913  0.001168  0.106361  0.117843  0.000593  1.018046  0.001
H  H11  1  0.03868712  0.10234819  0.49515075  1  0.112891  0.001168  0.106332  0.1178  0.000593  1.018052  0.001
H  H12  1  0.03868877  0.00484748  0.10234562  1  0.112852  0.001168  0.106355  0.11786  0.000593  1.018014  0.001
H  H13  1  0.03869066  0.39765066  0.00484922  1  0.112925  0.001168  0.106339  0.117796  0.000593  1.018055  0.001
H  H14  1  0.46130983  0.49515222  0.10235083  1  0.112839  0.001168  0.106368  0.117862  0.000593  1.018097  0.001
H  H15  1  0.46131586  0.39765060  0.49515121  1  0.112841  0.001168  0.106329  0.117828  0.000593  1.018062  0.001
H  H16  1  0.46131173  0.00484809  0.39765030  1  0.112865  0.001168  0.106364  0.117845  0.000593  1.018053  0.001
H  H17  1  0.46131374  0.10234851  0.00484871  1  0.112864  0.001168  0.106323  0.117798  0.000593  1.018059  0.001
H  H18  1  0.96130804  0.50485382  0.60234976  1  0.113003  0.001168  0.106371  0.117858  0.000593  1.018051  0.001
H  H19  1  0.96130073  0.89764735  0.50484673  1  0.112972  0.001168  0.106382  0.117916  0.000593  1.018064  0.001
H  H20  1  0.96131517  0.99514685  0.89765186  1  0.112938  0.001169  0.106328  0.117792  0.000593  1.018023  0.001
H  H21  1  0.96131098  0.60235453  0.99515308  1  0.112853  0.001168  0.106357  0.117893  0.000593  1.018095  0.001
H  H22  1  0.53869066  0.50485297  0.89765208  1  0.112973  0.001169  0.106349  0.117823  0.000593  1.01801  0.001
H  H23  1  0.53868003  0.60235339  0.50485109  1  0.112902  0.001169  0.106336  0.117833  0.000593  1.017991  0.001
H  H24  1  0.53867957  0.99514986  0.60234597  1  0.112825  0.001168  0.106331  0.117821  0.000593  1.018114  0.001
H  H25  1  0.53869135  0.89764703  0.99515299  1  0.112832  0.001168  0.106358  0.117895  0.000593  1.018073  0.001
H  H26  1  0.04971256  0.38833192  0.29298696  1  0.127096  0.002328  0.099565  0.068845  0.00107  1.075604  0.002
H  H27  1  0.04971327  0.20701422  0.38833282  1  0.127053  0.002327  0.09956  0.068837  0.001069  1.075664  0.002
H  H28  1  0.04970566  0.11166690  0.20700939  1  0.127045  0.002327  0.099555  0.06886  0.00107  1.075639  0.002
H  H29  1  0.04971644  0.29298761  0.11166896  1  0.127106  0.002326  0.099569  0.068891  0.001069  1.075651  0.002
H  H30  1  0.45029174  0.38833392  0.20701468  1  0.127016  0.002328  0.099542  0.068804  0.00107  1.075668  0.002
H  H31  1  0.45028978  0.29298464  0.38833337  1  0.127011  0.002327  0.09953  0.06879  0.001069  1.075676  0.002
H  H32  1  0.45028824  0.11166762  0.29298584  1  0.127061  0.002328  0.09955  0.068821  0.00107  1.075651  0.002
H  H33  1  0.45028560  0.20701147  0.11166776  1  0.127101  0.002326  0.09957  0.068886  0.001069  1.075634  0.002
H  H34  1  0.95028564  0.61167266  0.70701353  1  0.127088  0.002328  0.09955  0.068809  0.00107  1.075663  0.002
H  H35  1  0.95028148  0.79298554  0.61166646  1  0.12714  0.002327  0.099548  0.068793  0.001069  1.075679  0.002
H  H36  1  0.95028679  0.88832743  0.79298929  1  0.127174  0.002325  0.099543  0.068851  0.001068  1.075749  0.002
H  H37  1  0.95029095  0.70701818  0.88833455  1  0.126985  0.002329  0.099518  0.068783  0.001071  1.075665  0.002
H  H38  1  0.54971565  0.61167308  0.79298882  1  0.127186  0.002326  0.099555  0.068824  0.001069  1.075753  0.002
H  H39  1  0.54970382  0.70701753  0.61167075  1  0.127037  0.002326  0.099513  0.068765  0.001069  1.075645  0.002
H  H40  1  0.54970077  0.88832912  0.70700922  1  0.127007  0.002327  0.099521  0.068813  0.001069  1.075708  0.002
H  H41  1  0.54971030  0.79298346  0.88833515  1  0.127022  0.00233  0.099532  0.068802  0.001071  1.075636  0.002
H  H42  1  0.19333699  0.60529229  0.38232418  1  0.022017  1.6e-05  0.09133  0.088731  9e-06  1.013728  0.0
H  H43  1  0.19333316  0.11767323  0.60529446  1  0.02206  1.6e-05  0.09135  0.088726  9e-06  1.013804  0.0
H  H44  1  0.19333819  0.89470326  0.11767357  1  0.022064  1.6e-05  0.091322  0.08869  9e-06  1.01388  0.0
H  H45  1  0.19333201  0.38232668  0.89470644  1  0.022073  1.6e-05  0.091355  0.088718  9e-06  1.013813  0.0
H  H46  1  0.30666441  0.60529649  0.11767428  1  0.021755  1.6e-05  0.091308  0.088666  9e-06  1.013887  0.0
H  H47  1  0.30666403  0.38232486  0.60529676  1  0.021751  1.6e-05  0.091302  0.088653  9e-06  1.013903  0.0
H  H48  1  0.30666547  0.89470665  0.38232346  1  0.022011  1.6e-05  0.091341  0.088746  9e-06  1.013729  0.0
H  H49  1  0.30666847  0.11767118  0.89470533  1  0.022115  1.6e-05  0.091337  0.088709  9e-06  1.013818  0.0
H  H50  1  0.80666925  0.39470687  0.61767571  1  0.021713  1.6e-05  0.091341  0.088744  9e-06  1.013754  0.0
H  H51  1  0.80666159  0.88232834  0.39470543  1  0.022005  1.6e-05  0.091299  0.088652  9e-06  1.013755  0.0
H  H52  1  0.80666805  0.10529107  0.88232692  1  0.022052  1.6e-05  0.091346  0.088715  9e-06  1.01377  0.0
H  H53  1  0.80666159  0.61767368  0.10529466  1  0.022053  1.6e-05  0.091305  0.088659  9e-06  1.013872  0.0
H  H54  1  0.69333609  0.39470810  0.88232440  1  0.022024  1.6e-05  0.091321  0.088705  9e-06  1.013743  0.0
H  H55  1  0.69333417  0.61767369  0.39470614  1  0.022059  1.6e-05  0.091346  0.088711  9e-06  1.013709  0.0
H  H56  1  0.69333158  0.10529492  0.61767523  1  0.021754  1.6e-05  0.091349  0.088735  9e-06  1.013813  0.0
H  H57  1  0.69333777  0.88232677  0.10529396  1  0.02205  1.6e-05  0.091322  0.088671  9e-06  1.013815  0.0
H  H58  1  0.27187126  0.69342013  0.42398464  1  0.048453  -5e-06  0.091446  0.088076  -7e-06  1.031963  0.0
H  H59  1  0.27187024  0.07601089  0.69342140  1  0.048484  -5e-06  0.091446  0.088074  -7e-06  1.031972  0.0
H  H60  1  0.27187435  0.80657645  0.07601189  1  0.046597  -5e-06  0.091415  0.088047  -7e-06  1.031943  0.0
H  H61  1  0.27187110  0.42398825  0.80657949  1  0.048366  -5e-06  0.091418  0.088044  -7e-06  1.03193  0.0
H  H62  1  0.22813057  0.69342334  0.07601134  1  0.048456  -5e-06  0.091437  0.088083  -7e-06  1.031927  0.0
H  H63  1  0.22812805  0.42398955  0.69342308  1  0.046638  -5e-06  0.091427  0.088071  -7e-06  1.031918  0.0
H  H64  1  0.22813117  0.80657877  0.42398520  1  0.046662  -5e-06  0.091447  0.088093  -7e-06  1.031903  0.0
H  H65  1  0.22812828  0.07601210  0.80657721  1  0.046514  -5e-06  0.091425  0.088084  -7e-06  1.031919  0.0
H  H66  1  0.72812693  0.30658083  0.57601465  1  0.048369  -5e-06  0.091391  0.088061  -7e-06  1.031949  0.0
H  H67  1  0.72811762  0.92398706  0.30657909  1  0.048238  -5e-06  0.091424  0.088059  -7e-06  1.031977  0.0
H  H68  1  0.72812845  0.19341909  0.92398739  1  0.046575  -5e-06  0.091378  0.088072  -7e-06  1.031883  0.0
H  H69  1  0.72812020  0.57601393  0.19342100  1  0.048254  -5e-06  0.091432  0.088076  -7e-06  1.03197  0.0
H  H70  1  0.77187681  0.30658125  0.92398734  1  0.04827  -5e-06  0.091395  0.088077  -7e-06  1.031927  0.0
H  H71  1  0.77187819  0.57601323  0.30657922  1  0.046479  -5e-06  0.091438  0.088093  -7e-06  1.031991  0.0
H  H72  1  0.77187277  0.19342219  0.57601288  1  0.046631  -5e-06  0.091415  0.088059  -7e-06  1.031888  0.0
H  H73  1  0.77188026  0.92398344  0.19342207  1  0.046543  -5e-06  0.091436  0.088047  -7e-06  1.031975  0.0
H  H74  1  0.00175375  0.71821698  0.37657150  1  0.003711  -6e-06  0.082251  0.109843  -5e-06  1.002789  0.0
H  H75  1  0.00175032  0.12342483  0.71821979  1  0.003712  -6e-06  0.08224  0.109841  -6e-06  1.002742  0.0
H  H76  1  0.00175471  0.78178020  0.12342687  1  0.003698  -6e-06  0.082265  0.109847  -6e-06  1.002914  0.0
H  H77  1  0.00175388  0.37657492  0.78178053  1  0.003743  -6e-06  0.082244  0.109844  -5e-06  1.002779  0.0
H  H78  1  0.49825018  0.71821773  0.12342686  1  0.003704  -6e-06  0.082265  0.109871  -6e-06  1.002768  0.0
H  H79  1  0.49825140  0.37657378  0.71822086  1  0.003655  -6e-06  0.082266  0.109868  -5e-06  1.002891  0.0
H  H80  1  0.49825101  0.78178196  0.37657266  1  0.003694  -6e-06  0.082266  0.10986  -5e-06  1.002763  0.0
H  H81  1  0.49824781  0.12342364  0.78177879  1  0.003721  -6e-06  0.082265  0.109867  -6e-06  1.002745  0.0
H  H82  1  0.99824559  0.28177795  0.62342356  1  0.003727  -6e-06  0.082285  0.109912  -5e-06  1.002838  0.0
H  H83  1  0.99823639  0.87657674  0.28177648  1  0.003674  -6e-06  0.082225  0.109847  -5e-06  1.002826  0.0
H  H84  1  0.99824693  0.21821835  0.87657483  1  0.003743  -6e-06  0.082258  0.109864  -5e-06  1.002799  0.0
H  H85  1  0.99823972  0.62342424  0.21822298  1  0.003716  -6e-06  0.082271  0.109902  -5e-06  1.002883  0.0
H  H86  1  0.50175836  0.28178022  0.87657363  1  0.00373  -6e-06  0.082261  0.109868  -5e-06  1.002839  0.0
H  H87  1  0.50175943  0.62342417  0.28177601  1  0.003719  -6e-06  0.082275  0.1099  -6e-06  1.002855  0.0
H  H88  1  0.50175064  0.21822142  0.62342482  1  0.003684  -6e-06  0.082267  0.109872  -5e-06  1.00283  0.0
H  H89  1  0.50176073  0.87657491  0.21822231  1  0.003711  -6e-06  0.082266  0.109886  -6e-06  1.002897  0.0
H  H90  1  0.93378428  0.64011132  0.44113816  1  0.040991  7e-06  0.082918  0.114435  -1.2e-05  1.039734  0.0
H  H91  1  0.93378197  0.05885847  0.64011319  1  0.041174  7e-06  0.082902  0.114449  -1.2e-05  1.039727  0.0
H  H92  1  0.93378464  0.85988740  0.05886131  1  0.040942  7e-06  0.082895  0.114367  -1.2e-05  1.039829  0.0
H  H93  1  0.93378152  0.44114099  0.85988581  1  0.041137  7e-06  0.0829  0.11443  -1.2e-05  1.03978  0.0
H  H94  1  0.56621820  0.64011007  0.05886142  1  0.040891  7e-06  0.082911  0.114422  -1.2e-05  1.039725  0.0
H  H95  1  0.56621655  0.44113968  0.64011306  1  0.041151  7e-06  0.082914  0.114446  -1.2e-05  1.039751  0.0
H  H96  1  0.56621835  0.85988947  0.44113930  1  0.040895  7e-06  0.082911  0.114419  -1.2e-05  1.039724  0.0
H  H97  1  0.56621803  0.05885759  0.85988538  1  0.041205  7e-06  0.082891  0.114422  -1.2e-05  1.039789  0.0
H  H98  1  0.06621737  0.35988362  0.55885811  1  0.041241  7e-06  0.082891  0.114407  -1.2e-05  1.039807  0.0
H  H99  1  0.06620933  0.94114249  0.35988248  1  0.041313  7e-06  0.082925  0.114421  -1.2e-05  1.039889  0.0
H  H100  1  0.06621700  0.14011236  0.94114099  1  0.041123  7e-06  0.0829  0.114416  -1.2e-05  1.03977  0.0
H  H101  1  0.06620978  0.55885877  0.14011649  1  0.041232  7e-06  0.082924  0.114436  -1.2e-05  1.039843  0.0
H  H102  1  0.43378690  0.35988607  0.94114028  1  0.040977  7e-06  0.082909  0.114407  -1.2e-05  1.039835  0.0
H  H103  1  0.43378625  0.55885888  0.35988200  1  0.041231  7e-06  0.082923  0.114435  -1.2e-05  1.039828  0.0
H  H104  1  0.43378329  0.14011451  0.55885878  1  0.04116  7e-06  0.082885  0.114384  -1.2e-05  1.039835  0.0
H  H105  1  0.43378936  0.94114036  0.14011632  1  0.041231  7e-06  0.082933  0.114457  -1.2e-05  1.03982  0.0
H  H106  1  0.01214600  0.72901563  0.48349075  1  0.01896  1.2e-05  0.080964  0.104833  8e-06  1.049549  0.0
H  H107  1  0.01214651  0.01650517  0.72901735  1  0.018836  1.2e-05  0.080974  0.104789  8e-06  1.049605  0.0
H  H108  1  0.01214480  0.77098274  0.01650762  1  0.018957  1.2e-05  0.080935  0.104752  8e-06  1.049488  0.0
H  H109  1  0.01214576  0.48349394  0.77098116  1  0.018922  1.2e-05  0.080981  0.104811  8e-06  1.049533  0.0
H  H110  1  0.48786015  0.72901588  0.01650761  1  0.018921  1.2e-05  0.080974  0.104831  8e-06  1.049633  0.0
H  H111  1  0.48785521  0.48349282  0.72901713  1  0.018949  1.2e-05  0.080963  0.104778  8e-06  1.049522  0.0
H  H112  1  0.48785641  0.77098444  0.48349192  1  0.018935  1.2e-05  0.080965  0.10481  8e-06  1.049629  0.0
H  H113  1  0.48785593  0.01650462  0.77098011  1  0.01886  1.2e-05  0.080991  0.104821  8e-06  1.049628  0.0
H  H114  1  0.98784646  0.27098172  0.51650551  1  0.018822  1.2e-05  0.080982  0.104797  8e-06  1.049624  0.0
H  H115  1  0.98784020  0.98349579  0.27097952  1  0.018782  1.2e-05  0.080973  0.104801  8e-06  1.049652  0.0
H  H116  1  0.98785339  0.22901581  0.98349408  1  0.01886  1.2e-05  0.080971  0.104793  8e-06  1.049524  0.0
H  H117  1  0.98784439  0.51650582  0.22901933  1  0.018826  1.2e-05  0.080973  0.104781  8e-06  1.049605  0.0
H  H118  1  0.51215183  0.27098267  0.98349289  1  0.018868  1.2e-05  0.080971  0.104777  8e-06  1.049527  0.0
H  H119  1  0.51215563  0.51650573  0.27097974  1  0.018792  1.2e-05  0.080977  0.104789  8e-06  1.049616  0.0
H  H120  1  0.51214523  0.22901834  0.51650496  1  0.018892  1.2e-05  0.080961  0.10478  8e-06  1.049598  0.0
H  H121  1  0.51215720  0.98349333  0.22901918  1  0.018829  1.2e-05  0.080974  0.104804  8e-06  1.049554  0.0
C  C122  1  0.25000500  0.51899608  0.51899622  1  0.058438  0.000275  -0.045959  -0.191851  0.000103  4.068725  0.0
C  C123  1  0.24999969  0.98100396  0.51899544  1  0.058297  0.000275  -0.045965  -0.191803  0.000103  4.068695  0.0
C  C124  1  0.25000186  0.98100136  0.98100247  1  0.058466  0.000275  -0.046022  -0.191939  0.000103  4.068607  0.0
C  C125  1  0.25000028  0.51899711  0.98100506  1  0.058029  0.000275  -0.046013  -0.19197  0.000103  4.068555  0.0
C  C126  1  0.74999779  0.48100790  0.48100729  1  0.058495  0.000275  -0.046142  -0.192164  0.000103  4.068883  0.0
C  C127  1  0.74999506  0.01899580  0.48100325  1  0.058468  0.000275  -0.046031  -0.191938  0.000103  4.068668  0.0
C  C128  1  0.75000323  0.01899176  0.01899682  1  0.058007  0.000275  -0.046034  -0.191899  0.000103  4.06859  0.0
C  C129  1  0.75000137  0.48100748  0.01899603  1  0.058319  0.000275  -0.045982  -0.191878  0.000103  4.068651  0.0
C  C130  1  0.25000527  0.45690523  0.45690645  1  -0.03733  -0.003335  0.012213  0.14527  -0.003705  4.030493  -0.002
C  C131  1  0.24999889  0.04309418  0.45690540  1  -0.037224  -0.003335  0.012242  0.145223  -0.003705  4.030557  -0.002
C  C132  1  0.25000130  0.04309254  0.04309229  1  -0.037082  -0.003335  0.012215  0.145368  -0.003705  4.030269  -0.002
C  C133  1  0.24999848  0.45690720  0.04309454  1  -0.037131  -0.003335  0.012268  0.145355  -0.003705  4.030332  -0.002
C  C134  1  0.74999293  0.54309755  0.54309284  1  -0.037427  -0.003335  0.012339  0.145567  -0.003705  4.030566  -0.002
C  C135  1  0.74999241  0.95690497  0.54309207  1  -0.03727  -0.003335  0.012221  0.145316  -0.003705  4.030357  -0.002
C  C136  1  0.75000953  0.95690481  0.95690881  1  -0.037121  -0.003335  0.012239  0.145352  -0.003705  4.030456  -0.002
C  C137  1  0.74999857  0.54309678  0.95690656  1  -0.037324  -0.003334  0.012242  0.145373  -0.003705  4.030209  -0.002
C  C138  1  0.21909199  0.60214739  0.50931010  1  0.418804  -0.000303  0.085315  0.152584  -0.000319  3.988317  0.0
C  C139  1  0.21908580  0.99068822  0.60214748  1  0.418841  -0.000303  0.085345  0.152547  -0.000319  3.988214  0.0
C  C140  1  0.21908951  0.89784952  0.99068799  1  0.418855  -0.000303  0.085391  0.1526  -0.000319  3.988247  0.0
C  C141  1  0.21908651  0.50931171  0.89785182  1  0.418873  -0.000303  0.08539  0.152658  -0.000319  3.988145  0.0
C  C142  1  0.28091377  0.60214954  0.99068931  1  0.41911  -0.000303  0.085415  0.152684  -0.000319  3.988129  0.0
C  C143  1  0.28091540  0.50930995  0.60214827  1  0.418884  -0.000303  0.08535  0.152555  -0.000319  3.988258  0.0
C  C144  1  0.28091270  0.89785205  0.50930878  1  0.41877  -0.000303  0.085328  0.152544  -0.000319  3.988312  0.0
C  C145  1  0.28091452  0.99068682  0.89784921  1  0.418876  -0.000303  0.085385  0.152562  -0.000319  3.988283  0.0
C  C146  1  0.78090966  0.39785418  0.49069039  1  0.418871  -0.000303  0.085341  0.152624  -0.000319  3.988136  0.0
C  C147  1  0.78090551  0.00931215  0.39785060  1  0.418722  -0.000303  0.085312  0.152468  -0.000319  3.988338  0.0
C  C148  1  0.78091443  0.10214722  0.00931251  1  0.418931  -0.000303  0.085318  0.152436  -0.000319  3.988139  0.0
C  C149  1  0.78090939  0.49068926  0.10214928  1  0.418913  -0.000303  0.085377  0.152565  -0.000319  3.9883  0.0
C  C150  1  0.71908902  0.39785384  0.00930998  1  0.418823  -0.000303  0.085312  0.152495  -0.000319  3.988319  0.0
C  C151  1  0.71908969  0.49068861  0.39785162  1  0.418915  -0.000303  0.085301  0.15251  -0.000319  3.988153  0.0
C  C152  1  0.71908549  0.10214952  0.49068870  1  0.418939  -0.000303  0.085401  0.152707  -0.000319  3.988141  0.0
C  C153  1  0.71909287  0.00931233  0.10215128  1  0.419206  -0.000303  0.085424  0.152652  -0.000319  3.988003  0.0
C  C154  1  0.13511537  0.45330199  0.39711796  1  -0.095965  0.00597  -0.087782  -0.178397  0.003923  3.920808  0.005
C  C155  1  0.13511447  0.10288209  0.45330139  1  -0.095982  0.005969  -0.087796  -0.178404  0.003922  3.920819  0.005
C  C156  1  0.13511135  0.04669603  0.10287959  1  -0.096188  0.00597  -0.087826  -0.178506  0.003923  3.920824  0.005
C  C157  1  0.13511684  0.39711956  0.04669978  1  -0.095988  0.005968  -0.087802  -0.178343  0.003921  3.920885  0.005
C  C158  1  0.36489185  0.45330427  0.10288364  1  -0.095969  0.00597  -0.087882  -0.178621  0.003923  3.92084  0.005
C  C159  1  0.36488969  0.39711733  0.45330247  1  -0.09612  0.005969  -0.087843  -0.178515  0.003922  3.920967  0.005
C  C160  1  0.36488882  0.04669807  0.39711629  1  -0.095973  0.005969  -0.087858  -0.178491  0.003923  3.920983  0.005
C  C161  1  0.36488639  0.10288018  0.04669686  1  -0.096109  0.005968  -0.087807  -0.17847  0.003922  3.920808  0.005
C  C162  1  0.86488397  0.54670320  0.60288253  1  -0.096072  0.005969  -0.087838  -0.178538  0.003923  3.920815  0.005
C  C163  1  0.86488028  0.89711647  0.54669488  1  -0.095899  0.005969  -0.087865  -0.178646  0.003922  3.920839  0.005
C  C164  1  0.86488570  0.95329709  0.89712453  1  -0.096235  0.005966  -0.087743  -0.178261  0.003921  3.920946  0.005
C  C165  1  0.86489285  0.60288623  0.95330554  1  -0.095844  0.005972  -0.087833  -0.178643  0.003925  3.920554  0.005
C  C166  1  0.63511669  0.54670213  0.89712229  1  -0.096184  0.005969  -0.087786  -0.178383  0.003922  3.920671  0.005
C  C167  1  0.63511425  0.60288182  0.54669923  1  -0.096059  0.005967  -0.087784  -0.1785  0.003922  3.920868  0.005
C  C168  1  0.63510363  0.95330048  0.60287877  1  -0.096209  0.005969  -0.087818  -0.178453  0.003922  3.92091  0.005
C  C169  1  0.63511066  0.89711415  0.95330725  1  -0.095794  0.005972  -0.087858  -0.17869  0.003925  3.920654  0.005
C  C170  1  0.13936792  0.39351666  0.33870821  1  0.505737  -0.000652  0.039277  0.098465  -0.000922  3.941623  0.0
C  C171  1  0.13936309  0.16129356  0.39351709  1  0.505683  -0.000652  0.039285  0.098468  -0.000922  3.941488  0.0
C  C172  1  0.13935993  0.10648196  0.16128994  1  0.50575  -0.000652  0.039344  0.098478  -0.000921  3.941565  0.0
C  C173  1  0.13936360  0.33870868  0.10648287  1  0.505688  -0.000652  0.039284  0.09837  -0.000922  3.941529  0.0
C  C174  1  0.36063749  0.39351829  0.16129404  1  0.505607  -0.000651  0.039378  0.098606  -0.000922  3.941481  0.0
C  C175  1  0.36063995  0.33870590  0.39351821  1  0.505667  -0.000651  0.039375  0.098609  -0.000922  3.941337  0.0
C  C176  1  0.36063516  0.10648285  0.33870771  1  0.505677  -0.000651  0.039356  0.098551  -0.000921  3.941667  0.0
C  C177  1  0.36063729  0.16129162  0.10648111  1  0.505699  -0.000652  0.039314  0.098466  -0.000922  3.941454  0.0
C  C178  1  0.86063143  0.60648612  0.66129168  1  0.505708  -0.000651  0.039342  0.09861  -0.000921  3.941705  0.0
C  C179  1  0.86062936  0.83870499  0.60647978  1  0.505526  -0.000651  0.039386  0.098684  -0.000922  3.941349  0.0
C  C180  1  0.86064286  0.89351417  0.83870995  1  0.505685  -0.000652  0.039281  0.09832  -0.000922  3.941501  0.0
C  C181  1  0.86063574  0.66129893  0.89351642  1  0.505592  -0.000652  0.03943  0.098614  -0.000922  3.941421  0.0
C  C182  1  0.63936300  0.60648751  0.83870827  1  0.505818  -0.000653  0.039292  0.098428  -0.000923  3.941577  0.0
C  C183  1  0.63935595  0.66129567  0.60648349  1  0.505655  -0.000652  0.039388  0.098666  -0.000923  3.941127  0.0
C  C184  1  0.63935270  0.89351510  0.66128856  1  0.505727  -0.000652  0.039338  0.098466  -0.000922  3.941627  0.0
C  C185  1  0.63937009  0.83870392  0.89351817  1  0.505698  -0.000651  0.039428  0.098644  -0.000922  3.941677  0.0
C  C186  1  0.18325472  0.64710715  0.43347405  1  -0.001242  2.9e-05  -0.164085  -0.173215  2.2e-05  4.012469  0.0
C  C187  1  0.18325470  0.06652526  0.64710763  1  -0.001474  2.9e-05  -0.164119  -0.173236  2.2e-05  4.012423  0.0
C  C188  1  0.18325743  0.85289204  0.06652612  1  -0.001303  2.9e-05  -0.164058  -0.173152  2.2e-05  4.012406  0.0
C  C189  1  0.18325317  0.43347528  0.85289206  1  -0.00137  2.9e-05  -0.164113  -0.173219  2.2e-05  4.012443  0.0
C  C190  1  0.31674750  0.64710775  0.06652740  1  -0.00116  2.9e-05  -0.16409  -0.173191  2.2e-05  4.012404  0.0
C  C191  1  0.31674705  0.43347280  0.64710808  1  -0.001157  2.9e-05  -0.164051  -0.173117  2.2e-05  4.01247  0.0
C  C192  1  0.31674887  0.85289235  0.43347335  1  -0.001442  2.9e-05  -0.164111  -0.173268  2.2e-05  4.012473  0.0
C  C193  1  0.31674848  0.06652322  0.85289039  1  -0.001346  2.9e-05  -0.16409  -0.173223  2.2e-05  4.012534  0.0
C  C194  1  0.81674808  0.35289261  0.56652645  1  -0.001035  2.9e-05  -0.164076  -0.173272  2.2e-05  4.012479  0.0
C  C195  1  0.81673660  0.93347691  0.35289044  1  -0.00125  2.9e-05  -0.164041  -0.173074  2.2e-05  4.012435  0.0
C  C196  1  0.81674651  0.14710651  0.93347558  1  -0.001171  2.9e-05  -0.16407  -0.173205  2.2e-05  4.012328  0.0
C  C197  1  0.81674043  0.56652569  0.14710964  1  -0.001342  2.9e-05  -0.164059  -0.17309  2.2e-05  4.012472  0.0
C  C198  1  0.68325645  0.35289382  0.93347551  1  -0.001089  2.9e-05  -0.164052  -0.173193  2.2e-05  4.012458  0.0
C  C199  1  0.68325574  0.56652455  0.35288939  1  -0.001308  2.9e-05  -0.164108  -0.173225  2.2e-05  4.012409  0.0
C  C200  1  0.68325278  0.14710801  0.56652593  1  -0.001152  2.9e-05  -0.164104  -0.173266  2.2e-05  4.01245  0.0
C  C201  1  0.68326006  0.93347352  0.14711011  1  -0.00145  2.9e-05  -0.164086  -0.173101  2.2e-05  4.012413  0.0
C  C202  1  0.02346341  0.68596625  0.43344206  1  -0.056456  -6e-06  -0.247765  -0.343296  -9e-06  3.938908  0.0
C  C203  1  0.02346009  0.06655740  0.68596543  1  -0.056347  -6e-06  -0.247749  -0.343255  -9e-06  3.938817  0.0
C  C204  1  0.02346299  0.81403331  0.06655993  1  -0.056385  -6e-06  -0.247717  -0.343126  -9e-06  3.938827  0.0
C  C205  1  0.02346088  0.43344168  0.81403428  1  -0.056433  -6e-06  -0.247739  -0.343234  -9e-06  3.938856  0.0
C  C206  1  0.47654079  0.68596709  0.06655694  1  -0.056184  -6e-06  -0.247756  -0.343277  -9e-06  3.938792  0.0
C  C207  1  0.47653935  0.43344062  0.68596647  1  -0.056415  -6e-06  -0.247782  -0.343292  -9e-06  3.938915  0.0
C  C208  1  0.47653903  0.81403386  0.43344319  1  -0.056194  -6e-06  -0.247767  -0.343258  -9e-06  3.938916  0.0
C  C209  1  0.47653964  0.06655624  0.81403259  1  -0.056455  -6e-06  -0.247764  -0.34325  -9e-06  3.938926  0.0
C  C210  1  0.97653594  0.31403231  0.56655783  1  -0.056415  -6e-06  -0.247783  -0.343275  -9e-06  3.939058  0.0
C  C211  1  0.97653351  0.93344296  0.31403204  1  -0.056305  -6e-06  -0.247708  -0.343209  -9e-06  3.939007  0.0
C  C212  1  0.97653981  0.18596464  0.93344177  1  -0.056537  -6e-06  -0.247743  -0.343237  -9e-06  3.938817  0.0
C  C213  1  0.97653732  0.56655868  0.18596681  1  -0.056362  -6e-06  -0.24779  -0.343306  -9e-06  3.939014  0.0
C  C214  1  0.52346545  0.31403388  0.93344114  1  -0.05631  -6e-06  -0.247755  -0.343226  -9e-06  3.938988  0.0
C  C215  1  0.52346230  0.56655853  0.31403222  1  -0.056378  -6e-06  -0.247778  -0.343263  -9e-06  3.938965  0.0
C  C216  1  0.52346032  0.18596711  0.56655791  1  -0.056393  -6e-06  -0.247718  -0.343171  -9e-06  3.938917  0.0
C  C217  1  0.52346430  0.93344050  0.18596730  1  -0.056362  -6e-06  -0.2478  -0.343344  -9e-06  3.93901  0.0
N  N218  1  0.25000004  0.33676316  0.33676413  1  -1.262299  0.094176  -0.351314  -0.222075  0.062322  3.604047  0.081
N  N219  1  0.25000189  0.16323574  0.33676420  1  -1.262308  0.094173  -0.351359  -0.222075  0.06232  3.604104  0.081
N  N220  1  0.24999504  0.16323461  0.16323521  1  -1.262177  0.094177  -0.351381  -0.222111  0.062322  3.604057  0.081
N  N221  1  0.25000468  0.33676564  0.16323876  1  -1.262331  0.094177  -0.351374  -0.222049  0.062322  3.603924  0.081
N  N222  1  0.74999816  0.66323901  0.66323817  1  -1.262419  0.094175  -0.351358  -0.222144  0.06232  3.604094  0.081
N  N223  1  0.74999286  0.83676281  0.66323328  1  -1.262248  0.094171  -0.351358  -0.222075  0.062319  3.6041  0.081
N  N224  1  0.74999397  0.83675852  0.83676830  1  -1.26243  0.094177  -0.351459  -0.222059  0.062322  3.604261  0.081
N  N225  1  0.75000501  0.66324075  0.83676837  1  -1.262391  0.094187  -0.351435  -0.222  0.062328  3.604293  0.081
N  N226  1  0.23362842  0.63913276  0.58162238  1  -0.780887  1.4e-05  -0.321663  -0.210364  -4.4e-05  3.683331  0.0
N  N227  1  0.23362498  0.91837605  0.63913119  1  -0.780819  1.4e-05  -0.321654  -0.210236  -4.4e-05  3.683174  0.0
N  N228  1  0.23362628  0.86086532  0.91837571  1  -0.758499  1.5e-05  -0.321668  -0.210328  -4.4e-05  3.683378  0.0
N  N229  1  0.23362628  0.58162324  0.86086689  1  -0.780946  1.4e-05  -0.321667  -0.210314  -4.4e-05  3.683296  0.0
N  N230  1  0.26637589  0.63913380  0.91837700  1  -0.758419  1.5e-05  -0.321688  -0.210382  -4.4e-05  3.683363  0.0
N  N231  1  0.26637735  0.58162329  0.63913253  1  -0.758355  1.5e-05  -0.321612  -0.210231  -4.4e-05  3.683298  0.0
N  N232  1  0.26637509  0.86086662  0.58162108  1  -0.758375  1.5e-05  -0.321553  -0.210204  -4.4e-05  3.683248  0.0
N  N233  1  0.26637478  0.91837471  0.86086616  1  -0.781006  1.4e-05  -0.321659  -0.210279  -4.4e-05  3.683355  0.0
N  N234  1  0.76637323  0.36086640  0.41837751  1  -0.758363  1.5e-05  -0.321612  -0.210288  -4.4e-05  3.683291  0.0
N  N235  1  0.76637092  0.08162552  0.36086749  1  -0.780764  1.4e-05  -0.321625  -0.210223  -4.4e-05  3.683022  0.0
N  N236  1  0.76637421  0.13913444  0.08162539  1  -0.78095  1.4e-05  -0.321633  -0.210202  -4.4e-05  3.683129  0.0
N  N237  1  0.76637307  0.41837712  0.13913360  1  -0.758418  1.5e-05  -0.321655  -0.210351  -4.4e-05  3.683352  0.0
N  N238  1  0.73362690  0.36086777  0.08162229  1  -0.780854  1.4e-05  -0.321609  -0.2102  -4.4e-05  3.683196  0.0
N  N239  1  0.73362660  0.41837526  0.36086555  1  -0.780911  1.4e-05  -0.321641  -0.210254  -4.4e-05  3.683082  0.0
N  N240  1  0.73362311  0.13913494  0.41837760  1  -0.758508  1.5e-05  -0.321678  -0.210388  -4.4e-05  3.683359  0.0
N  N241  1  0.73362687  0.08162505  0.13913615  1  -0.758505  1.5e-05  -0.321637  -0.210318  -4.4e-05  3.683232  0.0
Cl  Cl242  1  0.43182180  0.75000003  0.75000144  1  -0.693878  -0.002063  -0.295395  -0.547536  -0.002685  1.474147  -0.001
Cl  Cl243  1  0.06817012  0.75000164  0.74999845  1  -0.681184  -0.002048  -0.295399  -0.547535  -0.002685  1.474043  -0.001
Cl  Cl244  1  0.56817639  0.24999973  0.25000025  1  -0.693911  -0.002063  -0.295384  -0.547497  -0.002686  1.474049  -0.001
Cl  Cl245  1  0.93182693  0.25000053  0.25000023  1  -0.681174  -0.002048  -0.295392  -0.547511  -0.002686  1.474067  -0.001
