# generated using pymatgen
data_MnH10C16(NO)4
_symmetry_space_group_name_H-M   'P 1'
_cell_length_a   10.16324788
_cell_length_b   10.92533564
_cell_length_c   11.37767121
_cell_angle_alpha   107.11001758
_cell_angle_beta   93.96054123
_cell_angle_gamma   95.02390042
_symmetry_Int_Tables_number   1
_chemical_formula_structural   MnH10C16(NO)4
_chemical_formula_sum   'Mn3 H30 C48 N12 O12'
_cell_volume   1196.80743104
_cell_formula_units_Z   3
loop_
 _symmetry_equiv_pos_site_id
 _symmetry_equiv_pos_as_xyz
  1  'x, y, z'
loop_
 _atom_site_type_symbol
 _atom_site_label
 _atom_site_symmetry_multiplicity
 _atom_site_fract_x
 _atom_site_fract_y
 _atom_site_fract_z
 _atom_site_occupancy
 _atom_site_hle17_bader_charge
 _atom_site_hle17_bader_spin_density
 _atom_site_hle17_ddec_charge
 _atom_site_hle17_ddec_spin_density
 _atom_site_hle17_ddec_sum_bond_order
 _atom_site_hle17_magmom
 _atom_site_hse06_10hf_ddec_charge
 _atom_site_hse06_10hf_ddec_spin_density
 _atom_site_hse06_10hf_ddec_sum_bond_order
 _atom_site_hse06_10hf_magmom
 _atom_site_hse06_ddec_charge
 _atom_site_hse06_ddec_spin_density
 _atom_site_hse06_ddec_sum_bond_order
 _atom_site_hse06_magmom
 _atom_site_pbe_cm5_charge
 _atom_site_pbe_ddec_charge
 _atom_site_pbe_ddec_spin_density
 _atom_site_pbe_ddec_sum_bond_order
 _atom_site_pbe_magmom
Mn  Mn0  1  0.49999955  0.50000047  0.50000075  1  1.51854  1.25581  1.084212  1.248717  2.519481  1.262  1.021011  1.25774  3.053391  1.225  1.047253  1.087329  2.986593  1.079  0.652657  0.99447  1.391557  3.098309  1.346
Mn  Mn1  1  0.37375553  0.30714411  0.18896391  1  1.551734  4.681951  1.106541  4.796044  1.876464  4.648  0.941058  4.692942  2.389074  4.502  1.003234  4.759266  2.31573  4.573  0.615023  0.894116  4.619426  2.444012  4.421
Mn  Mn2  1  0.62624362  0.69284910  0.81103461  1  1.551665  4.681957  1.106535  4.796051  1.876562  4.648  0.941022  4.692947  2.389192  4.502  1.003193  4.759276  2.315848  4.573  0.614978  0.894077  4.619426  2.444137  4.421
H  H3  1  0.48316616  0.95556892  0.63613247  1  0.02608  9.6e-05  0.116533  -7.1e-05  0.938921  0.0  0.12864  3e-05  0.993731  0.0  0.131963  -9e-06  0.992105  0.0  0.108233  0.126272  2.4e-05  0.995149  0.0
H  H4  1  0.51683608  0.04442523  0.36386475  1  0.026178  9.6e-05  0.116476  -7.1e-05  0.938959  0.0  0.128579  2.9e-05  0.993784  0.0  0.131902  -9e-06  0.992157  0.0  0.108206  0.126209  2.4e-05  0.995201  0.0
H  H5  1  0.54329084  0.16076269  0.58449159  1  -0.001602  5.7e-05  0.097134  -8.6e-05  0.95391  0.0  0.106379  -0.000161  1.016351  0.0  0.110119  -0.000147  1.013924  0.0  0.101144  0.103714  -0.000167  1.01805  0.0
H  H6  1  0.45671524  0.83923045  0.41550385  1  -0.001537  5.7e-05  0.097104  -8.7e-05  0.953879  0.0  0.106348  -0.000161  1.016337  0.0  0.11009  -0.000147  1.013908  0.0  0.101169  0.103682  -0.000167  1.01804  0.0
H  H7  1  0.46169006  0.39203704  0.94449786  1  0.041257  0.000576  0.123733  -7e-06  0.952798  0.0  0.131772  -6.9e-05  1.017257  0.0  0.135999  -0.000158  1.013777  0.0  0.111527  0.128791  2.8e-05  1.019743  0.0
H  H8  1  0.53830651  0.60795901  0.05549510  1  0.042159  0.000578  0.123693  -7e-06  0.95281  0.0  0.131744  -6.9e-05  1.017266  0.0  0.135973  -0.000158  1.013781  0.0  0.111497  0.128763  2.8e-05  1.01975  0.0
H  H9  1  0.99655000  0.89735189  0.73996288  1  0.082091  0.000119  0.085049  -6.8e-05  0.940616  0.0  0.093719  -0.000297  1.005153  0.0  0.095447  -0.000207  1.003176  0.0  0.131634  0.092233  -0.000312  1.006717  0.0
H  H10  1  0.00345401  0.10264142  0.26004653  1  0.081897  0.000118  0.084938  -6.9e-05  0.940769  0.0  0.093574  -0.000298  1.005353  0.0  0.095295  -0.000207  1.003382  0.0  0.131561  0.092088  -0.000312  1.006918  0.0
H  H11  1  0.12254043  0.84670634  0.55110711  1  0.48118  -2.9e-05  0.310215  -5.1e-05  0.854734  0.0  0.303706  -8e-05  0.896532  0.0  0.309833  -5.4e-05  0.893262  0.0  0.338487  0.29942  -3.3e-05  0.898831  0.0
H  H12  1  0.87747095  0.15329080  0.44890384  1  0.481227  -2.9e-05  0.310203  -5.1e-05  0.854783  0.0  0.303713  -8e-05  0.896569  0.0  0.30984  -5.4e-05  0.893296  0.0  0.338482  0.299424  -3.3e-05  0.898866  0.0
H  H13  1  0.10128187  0.35684842  0.74744575  1  -0.00022  -5.8e-05  0.103175  -7.2e-05  0.94746  0.0  0.113657  -3.5e-05  1.00567  0.0  0.116354  -1.6e-05  1.005162  0.0  0.100459  0.111625  -3.4e-05  1.006165  0.0
H  H14  1  0.89869977  0.64314678  0.25255125  1  -0.00011  -5.9e-05  0.103153  -7.2e-05  0.947472  0.0  0.113696  -3.6e-05  1.005606  0.0  0.11639  -1.6e-05  1.005103  0.0  0.100512  0.111664  -3.4e-05  1.006101  0.0
H  H15  1  0.23097564  0.40453191  0.58466735  1  0.055783  7.6e-05  0.107268  -0.000262  1.005588  0.0  0.113202  -0.000166  1.073807  0.0  0.117247  -0.000153  1.071766  0.0  0.104743  0.110103  -0.000133  1.075483  0.0
H  H16  1  0.76900820  0.59546525  0.41533296  1  0.055722  7.6e-05  0.107212  -0.000262  1.005561  0.0  0.113126  -0.000165  1.073843  0.0  0.117178  -0.000153  1.071765  0.0  0.104717  0.110026  -0.000133  1.07552  0.0
H  H17  1  0.25206015  0.00087676  0.40634440  1  0.031325  0.000254  0.116019  5.3e-05  0.949281  0.0  0.123939  -2.7e-05  1.013487  0.0  0.127854  2e-06  1.010562  0.0  0.10556  0.120995  -6.4e-05  1.015657  0.0
H  H18  1  0.74794641  0.99912138  0.59366826  1  0.031251  0.000255  0.115949  5.4e-05  0.949321  0.0  0.12388  -2.7e-05  1.013529  0.0  0.127797  2e-06  1.010602  0.0  0.105542  0.120942  -6.4e-05  1.01569  0.0
H  H19  1  0.31464729  0.99180195  0.05142321  1  0.107108  -7.3e-05  0.094944  -0.000289  0.917711  0.0  0.108283  -1.5e-05  0.973642  0.0  0.110634  -8.8e-05  0.970612  0.0  0.142665  0.106238  -5.4e-05  0.976563  0.0
H  H20  1  0.68536525  0.00819604  0.94857838  1  0.106598  -7.3e-05  0.095024  -0.000289  0.917627  0.0  0.108361  -1.5e-05  0.973546  0.0  0.110711  -8.8e-05  0.970519  0.0  0.142679  0.106315  -5.4e-05  0.976466  0.0
H  H21  1  0.12892862  0.41618629  0.38571951  1  0.052992  -0.000202  0.124171  -0.00039  0.958098  0.0  0.13244  -0.000255  1.019527  0.0  0.136826  -0.000321  1.016705  0.0  0.11232  0.12898  -0.000147  1.02209  0.0
H  H22  1  0.87107666  0.58381647  0.61427587  1  0.053032  -0.000202  0.124153  -0.00039  0.958124  0.0  0.132443  -0.000256  1.01953  0.0  0.136826  -0.00032  1.016712  0.0  0.112305  0.128985  -0.000147  1.022092  0.0
H  H23  1  0.89856269  0.41574416  0.45354313  1  0.035687  0.000268  0.096964  9.3e-05  0.966992  0.0  0.106559  1.3e-05  1.031557  0.0  0.11016  1.7e-05  1.029448  0.0  0.102144  0.103771  2.3e-05  1.03362  0.0
H  H24  1  0.10144199  0.58425380  0.54645265  1  0.035898  0.000268  0.096932  9.3e-05  0.966996  0.0  0.106527  1.3e-05  1.031564  0.0  0.110126  1.7e-05  1.029458  0.0  0.102116  0.103742  2.3e-05  1.033625  0.0
H  H25  1  0.72370276  0.27117877  0.07526513  1  0.005581  0.000471  0.119128  5.1e-05  0.94483  0.001  0.129616  -0.00043  1.003315  0.0  0.133499  -0.000331  1.000679  0.0  0.1107  0.126597  -0.000211  1.005487  0.0
H  H26  1  0.27629726  0.72883750  0.92473182  1  0.005543  0.000471  0.119047  5.1e-05  0.944961  0.001  0.129555  -0.000431  1.003418  0.0  0.13343  -0.000331  1.000793  0.0  0.110686  0.126536  -0.000211  1.005586  0.0
H  H27  1  0.38763077  0.87279098  0.83553564  1  0.56898  0.000308  0.312242  -0.000266  0.953377  0.0  0.287013  -0.000104  1.023874  0.0  0.295857  -0.000239  1.017842  0.0  0.305609  0.281037  2.2e-05  1.027841  0.0
H  H28  1  0.61237673  0.12720607  0.16446536  1  0.569183  0.000308  0.312137  -0.000266  0.953522  0.0  0.286916  -0.000103  1.024018  0.0  0.295753  -0.000239  1.017985  0.0  0.30558  0.28095  2.2e-05  1.027976  0.0
H  H29  1  0.18596330  0.26221258  0.93535258  1  0.099136  9.7e-05  0.089446  -0.00028  0.961077  0.0  0.095665  -7.1e-05  1.02933  0.0  0.098331  -5e-05  1.025623  0.0  0.138662  0.094192  4.4e-05  1.030857  0.0
H  H30  1  0.81403853  0.73778638  0.06464505  1  0.09891  9.7e-05  0.089436  -0.00028  0.961071  0.0  0.095651  -7.1e-05  1.029364  0.0  0.098318  -4.9e-05  1.025655  0.0  0.138647  0.094177  4.4e-05  1.03089  0.0
H  H31  1  0.94497459  0.21433077  0.90440602  1  0.563423  0.000332  0.313363  0.000276  0.880255  0.0  0.293217  0.000471  0.942787  0.0  0.302825  0.000335  0.934201  0.0  0.322076  0.286606  0.000531  0.948632  0.0
H  H32  1  0.05502484  0.78568070  0.09559134  1  0.563262  0.000332  0.313355  0.000275  0.880224  0.0  0.293243  0.000471  0.94271  0.0  0.302851  0.000334  0.934134  0.0  0.322101  0.28664  0.000531  0.948551  0.0
C  C33  1  0.42914731  0.18402174  0.90598903  1  0.335197  0.005681  0.12473  0.004146  3.840578  0.005  0.1248  0.004073  4.089832  0.004  0.125672  0.003334  4.115201  0.004  0.08066  0.123998  0.004446  4.073051  0.005
C  C34  1  0.57085147  0.81597624  0.09400548  1  0.335007  0.00568  0.124852  0.004145  3.840745  0.005  0.124993  0.004072  4.089853  0.004  0.125867  0.003333  4.115229  0.004  0.080828  0.124191  0.004446  4.073067  0.005
C  C35  1  0.43250040  0.06203759  0.81779439  1  0.271592  -0.004213  0.156938  -0.005211  3.786976  -0.003  0.146619  -0.001839  4.034635  -0.001  0.152351  -0.001031  4.056326  0.0  0.092272  0.143386  -0.001221  4.019727  -0.001
C  C36  1  0.56750109  0.93795849  0.18220331  1  0.271585  -0.004213  0.15695  -0.005211  3.787042  -0.003  0.146682  -0.001836  4.034646  -0.001  0.152393  -0.001031  4.056341  0.0  0.092307  0.143461  -0.001221  4.01974  -0.001
C  C37  1  0.47738663  0.04972427  0.70187416  1  0.075749  0.004368  -0.146597  0.003355  3.754322  0.003  -0.166071  0.000872  4.013603  0.001  -0.169969  0.000826  4.033005  0.001  -0.095477  -0.163848  0.000572  4.000465  0.001
C  C38  1  0.52261375  0.95027085  0.29812320  1  0.075807  0.004367  -0.146633  0.003354  3.754296  0.003  -0.166115  0.000871  4.013561  0.001  -0.170013  0.000826  4.032971  0.001  -0.095494  -0.163888  0.000572  4.000418  0.001
C  C39  1  0.51198935  0.16347292  0.67474133  1  0.096801  -0.00493  -0.07847  -0.005482  3.768303  -0.003  -0.105427  -0.0014  4.025661  -0.001  -0.105411  -0.001082  4.046805  0.0  -0.091525  -0.104668  -0.000425  4.010938  0.0
C  C40  1  0.48801375  0.83652026  0.32525568  1  0.096567  -0.004928  -0.078316  -0.00548  3.768074  -0.003  -0.105265  -0.0014  4.025484  -0.001  -0.10525  -0.001082  4.046627  0.0  -0.091536  -0.104506  -0.000425  4.010768  0.0
C  C41  1  0.50498999  0.28606694  0.76047563  1  0.005252  0.003823  -0.070512  0.002116  3.788186  0.004  -0.050254  -0.000489  4.024518  0.001  -0.058189  0.000145  4.048045  0.001  -0.025433  -0.0452  -0.001403  4.009245  0.0
C  C42  1  0.49501250  0.71392909  0.23951772  1  0.005328  0.00382  -0.070688  0.002114  3.788106  0.004  -0.050499  -0.000489  4.024568  0.001  -0.058435  0.000144  4.048092  0.001  -0.025485  -0.045444  -0.001403  4.009298  0.0
C  C43  1  0.46632474  0.29767380  0.87854001  1  0.087737  -0.009124  -0.148047  -0.010271  3.712286  -0.006  -0.177986  -0.004312  3.960971  -0.003  -0.178384  -0.00264  3.979567  -0.001  -0.086702  -0.178551  -0.006866  3.949351  -0.004
C  C44  1  0.53367418  0.70232511  0.12145125  1  0.086884  -0.009124  -0.148025  -0.01027  3.712312  -0.006  -0.177972  -0.004315  3.960972  -0.003  -0.178372  -0.002639  3.979568  -0.001  -0.086738  -0.178535  -0.006866  3.949348  -0.004
C  C45  1  0.52962561  0.40530933  0.72314234  1  1.527677  -0.013532  0.655251  -0.017041  3.859165  -0.009  0.610216  -0.000929  4.147999  0.003  0.647682  0.001794  4.142369  0.005  0.22207  0.583525  -0.001558  4.151007  0.002
C  C46  1  0.47037796  0.59468771  0.27685575  1  1.527843  -0.013532  0.655374  -0.017041  3.859047  -0.009  0.610359  -0.000929  4.147883  0.003  0.647825  0.001793  4.142253  0.005  0.222089  0.583669  -0.00156  4.150892  0.002
C  C47  1  0.15461751  0.05103159  0.57684850  1  0.26521  0.001704  0.148539  0.001419  3.798049  0.001  0.141984  0.000849  4.047813  0.001  0.14441  0.000606  4.06999  0.001  0.088687  0.140062  0.000966  4.03348  0.002
C  C48  1  0.84537906  0.94897327  0.42315828  1  0.26567  0.001704  0.148623  0.00142  3.797902  0.001  0.142136  0.000853  4.047672  0.001  0.144563  0.000606  4.069848  0.001  0.08878  0.140225  0.000967  4.033325  0.002
C  C49  1  0.10774287  0.14979938  0.67142470  1  0.353177  -0.002769  0.137578  -0.00314  3.837778  -0.002  0.137599  -0.003797  4.089515  -0.002  0.142338  -0.001906  4.111957  -0.001  0.07845  0.134006  -0.006363  4.0751  -0.004
C  C50  1  0.89224807  0.85019972  0.32858101  1  0.35433  -0.002771  0.137617  -0.003142  3.83753  -0.002  0.137547  -0.003801  4.089425  -0.002  0.142285  -0.001906  4.111869  -0.001  0.078464  0.133948  -0.006366  4.075011  -0.004
C  C51  1  0.04309413  0.97010014  0.70373776  1  1.085835  -0.002565  0.26494  -0.003091  3.697511  -0.002  0.203598  -0.004393  3.993465  -0.002  0.221752  -0.001948  4.001119  -0.001  0.152746  0.191564  -0.007176  3.988071  -0.004
C  C52  1  0.95690556  0.02989796  0.29626827  1  1.08616  -0.002564  0.265085  -0.003091  3.697585  -0.002  0.203799  -0.004395  3.993535  -0.002  0.221961  -0.001949  4.001188  -0.001  0.152775  0.191763  -0.007178  3.988139  -0.004
C  C53  1  0.13514461  0.27917951  0.67552853  1  0.055866  0.001534  -0.152943  0.001195  3.763707  0.001  -0.170318  -0.000326  4.020123  0.0  -0.174642  0.000385  4.040418  0.0  -0.100893  -0.167738  -0.001079  4.007055  0.0
C  C54  1  0.86484108  0.72081667  0.32447164  1  0.056323  0.001537  -0.153009  0.001197  3.763681  0.001  -0.17041  -0.000324  4.020122  0.0  -0.174735  0.000384  4.040417  0.0  -0.100866  -0.167827  -0.001079  4.007057  0.0
C  C55  1  0.20641502  0.30556388  0.58447150  1  0.058463  -0.001664  -0.079759  -0.002102  3.745089  -0.001  -0.113298  -0.001416  4.00961  0.0  -0.112674  -0.001057  4.029308  0.0  -0.095866  -0.11364  -0.001799  3.996933  0.0
C  C56  1  0.79356967  0.69443234  0.41553125  1  0.05837  -0.001668  -0.079573  -0.002107  3.745188  -0.001  -0.113151  -0.001415  4.009748  0.0  -0.112508  -0.001057  4.029435  0.0  -0.095928  -0.113495  -0.001801  3.997074  0.0
C  C57  1  0.24758799  0.20635174  0.48780627  1  -0.012078  0.001385  -0.062977  0.000433  3.776958  0.001  -0.043886  -0.000683  4.024218  0.001  -0.050384  0.000309  4.043051  0.001  -0.023268  -0.040429  -0.00193  4.012717  0.0
C  C58  1  0.75240517  0.79364927  0.51219924  1  -0.012858  0.001388  -0.063167  0.000436  3.777143  0.001  -0.044042  -0.000686  4.024407  0.001  -0.050541  0.00031  4.043243  0.001  -0.02326  -0.040582  -0.001929  4.012908  0.0
C  C59  1  0.22187333  0.07635803  0.48257898  1  0.138943  -0.00449  -0.153867  -0.005037  3.720661  -0.003  -0.18528  -0.007108  3.976178  -0.004  -0.183605  -0.002917  3.991631  -0.001  -0.090335  -0.186794  -0.011724  3.966457  -0.006
C  C60  1  0.77812869  0.92364296  0.51742799  1  0.138687  -0.004495  -0.153737  -0.005042  3.720865  -0.003  -0.185181  -0.007109  3.97637  -0.004  -0.183507  -0.002918  3.991826  -0.001  -0.090312  -0.186705  -0.011729  3.966641  -0.006
C  C61  1  0.35335507  0.03806028  0.98658330  1  1.030913  0.005441  0.261938  0.003833  3.6729  0.004  0.196657  0.007384  3.954696  0.007  0.214618  0.006984  3.964412  0.007  0.161408  0.184156  0.007593  3.949038  0.007
C  C62  1  0.64665134  0.96193578  0.01341560  1  1.031174  0.005441  0.261861  0.003833  3.672971  0.004  0.196609  0.007383  3.954782  0.007  0.214557  0.006984  3.964493  0.007  0.161434  0.184122  0.007592  3.949129  0.007
C  C63  1  0.30657658  0.23943936  0.38412190  1  1.466067  -0.001124  0.634899  -0.001638  3.83075  0.001  0.582841  -0.011695  4.123088  -0.006  0.621309  -0.006228  4.115406  -0.003  0.212706  0.555169  -0.014208  4.12765  -0.008
C  C64  1  0.69341731  0.76055973  0.61588402  1  1.466318  -0.001125  0.635041  -0.00164  3.830364  0.001  0.582929  -0.011702  4.122744  -0.006  0.621392  -0.006229  4.115063  -0.003  0.212708  0.555254  -0.014217  4.127315  -0.008
C  C65  1  0.04116003  0.38454503  0.31919984  1  0.102354  0.005343  -0.143259  0.004084  3.734491  0.004  -0.161717  0.000462  3.989054  0.001  -0.163971  0.000555  4.005951  0.001  -0.090808  -0.16016  -0.000775  3.979025  0.0
C  C66  1  0.95884274  0.61546162  0.68079819  1  0.102079  0.005347  -0.143339  0.004086  3.734467  0.004  -0.161766  0.000462  3.989091  0.001  -0.164019  0.000556  4.00599  0.001  -0.090795  -0.160209  -0.000775  3.979063  0.0
C  C67  1  0.91354955  0.38362757  0.35574108  1  -0.001726  -0.005845  -0.099582  -0.006287  3.77455  -0.004  -0.12712  -0.001558  4.035042  -0.001  -0.127452  -0.001029  4.054182  -0.001  -0.098624  -0.127854  3.8e-05  4.023314  0.0
C  C68  1  0.08645288  0.61637619  0.64425614  1  -0.001707  -0.005848  -0.099544  -0.00629  3.774555  -0.004  -0.127095  -0.00156  4.035024  -0.001  -0.127417  -0.001031  4.054161  -0.001  -0.098586  -0.127835  3.8e-05  4.023307  0.0
C  C69  1  0.79982377  0.34179244  0.26880144  1  -0.045344  0.002829  -0.07135  0.001001  3.797469  0.004  -0.053418  -0.00214  4.044504  0.001  -0.059503  -0.000361  4.062859  0.001  -0.027741  -0.049997  -0.003986  4.032684  -0.001
C  C70  1  0.20017739  0.65821711  0.73119726  1  -0.045048  0.002832  -0.071279  0.001003  3.797293  0.004  -0.053256  -0.002141  4.044238  0.001  -0.059356  -0.00036  4.062602  0.001  -0.027684  -0.049833  -0.003987  4.032419  -0.001
C  C71  1  0.81206885  0.29919763  0.14128009  1  0.193684  -0.017422  -0.16803  -0.019543  3.732881  -0.012  -0.197129  -0.01091  3.983847  -0.006  -0.194778  -0.004266  3.998716  -0.002  -0.094349  -0.198006  -0.010023  3.974193  -0.006
C  C72  1  0.18792918  0.70081868  0.85871937  1  0.193549  -0.017432  -0.168086  -0.019555  3.7328  -0.012  -0.197214  -0.010914  3.983768  -0.006  -0.194846  -0.004269  3.998637  -0.002  -0.094397  -0.198091  -0.010028  3.974113  -0.006
C  C73  1  0.66441710  0.34476351  0.31060609  1  1.510774  -0.021145  0.639878  -0.026948  3.842991  -0.014  0.586802  -0.017321  4.139963  -0.008  0.627238  -0.011134  4.127947  -0.005  0.216397  0.557977  -0.012056  4.147831  -0.005
C  C74  1  0.33558658  0.65523450  0.68939316  1  1.510276  -0.021158  0.639893  -0.026964  3.842801  -0.014  0.586781  -0.017327  4.139811  -0.008  0.627229  -0.011138  4.127786  -0.005  0.216387  0.557952  -0.012063  4.147683  -0.005
C  C75  1  0.05430551  0.34230890  0.19225708  1  0.302762  -0.006801  0.152611  -0.008726  3.802232  -0.005  0.151774  -0.002798  4.045619  0.0  0.157097  -0.00048  4.067201  0.001  0.090071  0.146555  0.000256  4.032531  0.002
C  C76  1  0.94569553  0.65769970  0.80774224  1  0.302742  -0.006806  0.152829  -0.008732  3.802214  -0.005  0.151824  -0.002798  4.045859  0.0  0.157146  -0.000479  4.067437  0.001  0.090143  0.146606  0.000255  4.032771  0.002
C  C77  1  0.94001824  0.29990518  0.10492697  1  0.263342  0.005636  0.14785  0.004555  3.809777  0.005  0.142908  0.00151  4.05275  0.002  0.145134  0.000951  4.075212  0.001  0.090729  0.140841  0.001688  4.038657  0.002
C  C78  1  0.05998042  0.70010825  0.89507351  1  0.263245  0.005639  0.147753  0.004557  3.809732  0.005  0.142823  0.001509  4.052803  0.002  0.145057  0.00095  4.075262  0.001  0.090632  0.14076  0.001688  4.038712  0.002
C  C79  1  0.12400356  0.28542029  0.01075712  1  1.126189  -0.000839  0.266879  -0.001925  3.679655  0.0  0.204507  0.006363  3.957094  0.006  0.225347  0.007957  3.963144  0.007  0.16608  0.193181  0.006166  3.950199  0.006
C  C80  1  0.87599592  0.71458347  0.98923901  1  1.126368  -0.000842  0.26689  -0.001929  3.679728  0.0  0.20449  0.006361  3.957188  0.006  0.225336  0.007955  3.963238  0.007  0.166109  0.193171  0.006165  3.950292  0.006
N  N81  1  0.03734119  0.09585882  0.74809227  1  -1.188008  0.001004  -0.442361  0.000854  2.996178  0.001  -0.40906  0.000526  3.272964  0.001  -0.424503  0.000376  3.282315  0.001  -0.345106  -0.399121  0.000404  3.267004  0.001
N  N82  1  0.96265052  0.90413832  0.25191033  1  -1.189232  0.001005  -0.442441  0.000855  2.996269  0.001  -0.409121  0.000525  3.273061  0.001  -0.424561  0.000377  3.282407  0.001  -0.345143  -0.399182  0.000404  3.267107  0.001
N  N83  1  0.11306258  0.93805493  0.60254039  1  -1.26185  -0.000166  -0.350073  -0.000154  3.393987  0.0  -0.295371  -0.000534  3.635562  0.0  -0.312558  -0.000106  3.648234  0.0  -0.381852  -0.283781  -0.000982  3.626583  -0.001
N  N84  1  0.88694424  0.06194509  0.39746841  1  -1.262262  -0.000166  -0.350128  -0.000154  3.394174  0.0  -0.29549  -0.000536  3.635773  0.0  -0.312677  -0.000106  3.64844  0.0  -0.381892  -0.283902  -0.000982  3.626787  -0.001
N  N85  1  0.38005130  0.16513530  0.01148998  1  -1.220023  0.04167  -0.451863  0.029684  3.196565  0.011  -0.388516  0.034485  3.495055  0.009  -0.411423  0.030779  3.506656  0.006  -0.354266  -0.372048  0.036429  3.487372  0.01
N  N86  1  0.61995007  0.83485980  0.98850656  1  -1.219906  0.041664  -0.451935  0.029687  3.196901  0.011  -0.388582  0.034487  3.495307  0.009  -0.411494  0.030781  3.506918  0.006  -0.354311  -0.372111  0.036431  3.487617  0.01
N  N87  1  0.38281593  0.97255005  0.87218618  1  -1.309624  0.003812  -0.356431  0.00241  3.406917  0.003  -0.296271  0.003657  3.651747  0.004  -0.315601  0.002894  3.665682  0.003  -0.378721  -0.283427  0.004436  3.642502  0.005
N  N88  1  0.61719024  0.02744409  0.12781218  1  -1.309639  0.003813  -0.356297  0.002411  3.40696  0.003  -0.296246  0.003657  3.651899  0.004  -0.315525  0.002894  3.665796  0.003  -0.378722  -0.283438  0.004436  3.642685  0.005
N  N89  1  0.16764565  0.33145276  0.12984828  1  -1.242746  0.03991  -0.434058  0.02926  3.144561  0.014  -0.375381  0.032539  3.434103  0.011  -0.396065  0.028909  3.440779  0.009  -0.340717  -0.361079  0.034724  3.429612  0.013
N  N90  1  0.83235568  0.66855004  0.87014860  1  -1.242772  0.039904  -0.434159  0.029259  3.144627  0.014  -0.375417  0.032539  3.434229  0.011  -0.396095  0.028909  3.440897  0.009  -0.340762  -0.361115  0.034723  3.429736  0.013
N  N91  1  0.98949695  0.26572736  0.99051874  1  -1.355822  0.001463  -0.340272  0.000665  3.393402  0.001  -0.277352  0.002712  3.624898  0.002  -0.294545  0.00251  3.633816  0.002  -0.377208  -0.26512  0.002533  3.61778  0.002
N  N92  1  0.01050272  0.73428602  0.00947828  1  -1.355421  0.001462  -0.340133  0.000665  3.39345  0.001  -0.277205  0.002712  3.624944  0.002  -0.294417  0.00251  3.633884  0.002  -0.377165  -0.264989  0.002533  3.617829  0.002
O  O93  1  0.52813167  0.38982730  0.60722361  1  -1.159567  -0.010488  -0.585878  -0.013856  2.162737  -0.007  -0.542273  0.005437  2.435484  0.004  -0.576955  0.004002  2.428744  0.003  -0.297933  -0.516023  0.006149  2.43846  0.005
O  O94  1  0.47187004  0.61017072  0.39277639  1  -1.159565  -0.010491  -0.58592  -0.013859  2.162694  -0.007  -0.542302  0.005439  2.435422  0.004  -0.57699  0.004005  2.428694  0.003  -0.297938  -0.516052  0.006152  2.438404  0.005
O  O95  1  0.54603645  0.51330554  0.80868058  1  -1.235201  0.050146  -0.64975  0.035606  2.067937  0.022  -0.586136  0.044142  2.342284  0.026  -0.620385  0.039708  2.327334  0.021  -0.322595  -0.560025  0.049695  2.351614  0.031
O  O96  1  0.45396501  0.48669060  0.19132240  1  -1.235254  0.050144  -0.649783  0.035601  2.067882  0.022  -0.586193  0.04414  2.342256  0.026  -0.620441  0.039705  2.3273  0.021  -0.322622  -0.560084  0.049693  2.351588  0.031
O  O97  1  0.36109036  0.35593098  0.39608192  1  -1.183437  0.04037  -0.636142  0.0301  2.177697  0.016  -0.56662  0.048066  2.463372  0.035  -0.601585  0.044465  2.447479  0.032  -0.300562  -0.538565  0.049456  2.47197  0.035
O  O98  1  0.63890385  0.64406229  0.60391979  1  -1.18346  0.040379  -0.636246  0.030111  2.177478  0.016  -0.566621  0.048073  2.463111  0.035  -0.601573  0.04447  2.447206  0.032  -0.300565  -0.538565  0.049463  2.471713  0.035
O  O99  1  0.29410977  0.15681483  0.27745887  1  -1.206931  0.028512  -0.618109  0.018593  1.924916  0.012  -0.570096  0.018187  2.173527  0.01  -0.602027  0.017526  2.164882  0.01  -0.311058  -0.544873  0.019323  2.177575  0.011
O  O100  1  0.70588757  0.84318807  0.72254568  1  -1.206602  0.028507  -0.618122  0.018593  1.924898  0.012  -0.570127  0.018184  2.173553  0.01  -0.602059  0.017523  2.164916  0.01  -0.311058  -0.544902  0.019318  2.177599  0.011
O  O101  1  0.57061445  0.26693682  0.23788006  1  -1.235071  0.034683  -0.64551  0.026294  2.149721  0.016  -0.57387  0.030296  2.408187  0.017  -0.603534  0.028676  2.393047  0.016  -0.308957  -0.552061  0.031576  2.419328  0.018
O  O102  1  0.42939132  0.73306215  0.76211958  1  -1.235114  0.034681  -0.645533  0.026293  2.149579  0.016  -0.573908  0.030296  2.408074  0.017  -0.603573  0.028677  2.392929  0.016  -0.308901  -0.552098  0.031575  2.419217  0.018
O  O103  1  0.64991599  0.42627372  0.41383081  1  -1.156016  0.015672  -0.564175  0.011828  2.18999  0.007  -0.516741  0.011481  2.473107  0.012  -0.546553  0.010978  2.462511  0.012  -0.289576  -0.493256  0.012414  2.476976  0.011
O  O104  1  0.35008573  0.57372428  0.58616654  1  -1.15557  0.015676  -0.564175  0.011833  2.190043  0.007  -0.516758  0.011483  2.473196  0.012  -0.546572  0.010979  2.462598  0.012  -0.289621  -0.493272  0.012417  2.477068  0.011
