# generated using pymatgen
data_Ag3H10C10S2(NO4)3
_symmetry_space_group_name_H-M   'P 1'
_cell_length_a   5.22008822
_cell_length_b   11.92562092
_cell_length_c   14.22885678
_cell_angle_alpha   99.44735070
_cell_angle_beta   90.00011246
_cell_angle_gamma   90.00016278
_symmetry_Int_Tables_number   1
_chemical_formula_structural   Ag3H10C10S2(NO4)3
_chemical_formula_sum   'Ag6 H20 C20 S4 N6 O24'
_cell_volume   873.77202849
_cell_formula_units_Z   2
loop_
 _symmetry_equiv_pos_site_id
 _symmetry_equiv_pos_as_xyz
  1  'x, y, z'
loop_
 _atom_site_type_symbol
 _atom_site_label
 _atom_site_symmetry_multiplicity
 _atom_site_fract_x
 _atom_site_fract_y
 _atom_site_fract_z
 _atom_site_occupancy
 _atom_site_hle17_bader_spin_density
 _atom_site_hle17_ddec_charge
 _atom_site_hle17_ddec_spin_density
 _atom_site_hle17_ddec_sum_bond_order
 _atom_site_hle17_magmom
 _atom_site_hse06_10hf_bader_spin_density
 _atom_site_hse06_10hf_ddec_charge
 _atom_site_hse06_10hf_ddec_spin_density
 _atom_site_hse06_10hf_ddec_sum_bond_order
 _atom_site_hse06_10hf_magmom
 _atom_site_hse06_bader_spin_density
 _atom_site_hse06_ddec_charge
 _atom_site_hse06_ddec_spin_density
 _atom_site_hse06_ddec_sum_bond_order
 _atom_site_hse06_magmom
 _atom_site_pbe_bader_spin_density
 _atom_site_pbe_cm5_charge
 _atom_site_pbe_ddec_charge
 _atom_site_pbe_ddec_spin_density
 _atom_site_pbe_ddec_sum_bond_order
 _atom_site_pbe_magmom
Ag  Ag0  1  0.91544901  0.99495397  0.49431237  1  0  0.694679  0  1.174386  0  0  0.5834  0  1.592157  0  0  0.615333  0  1.53591  0  0  0.445111  0.560423  0  1.631725  0
Ag  Ag1  1  0.08455260  0.49494717  0.99430832  1  0  0.694655  0  1.17443  0  0  0.583368  0  1.592211  0  0  0.615299  0  1.535966  0  0  0.445096  0.560397  0  1.63178  0
Ag  Ag2  1  0.24126592  0.76311644  0.41672777  1  0  0.716707  0  1.150501  0  0  0.61215  0  1.563859  0  0  0.644075  0  1.506404  0  0  0.446824  0.588764  0  1.604494  0
Ag  Ag3  1  0.75871644  0.26311310  0.91672540  1  0  0.716767  0  1.150523  0  0  0.612154  0  1.563938  0  0  0.644075  0  1.506486  0  0  0.446831  0.588762  0  1.604593  0
Ag  Ag4  1  0.80716167  0.58212076  0.34654486  1  0  0.705447  0  1.185665  0  0  0.599949  0  1.59742  0  0  0.632151  0  1.540687  0  0  0.447177  0.576386  0  1.637469  0
Ag  Ag5  1  0.19281524  0.08211416  0.84654514  1  0  0.705365  0  1.185684  0  0  0.599866  0  1.59742  0  0  0.632069  0  1.540687  0  0  0.447128  0.576294  0  1.637471  0
H  H6  1  0.33524593  0.48202649  0.34701700  1  0  0.408437  0  0.909538  0  0  0.375204  0  0.97876  0  0  0.386517  0  0.962458  0  0  0.27805  0.367218  0  0.990224  0
H  H7  1  0.66473953  0.98202365  0.84701899  1  0  0.408514  0  0.909442  0  0  0.375252  0  0.978715  0  0  0.386565  0  0.962413  0  0  0.278043  0.367268  0  0.990174  0
H  H8  1  0.28817392  0.54396459  0.25624728  1  0  0.420009  0  0.887777  0  0  0.388185  0  0.952687  0  0  0.399288  0  0.93669  0  0  0.28686  0.380362  0  0.963915  0
H  H9  1  0.71181760  0.04396295  0.75625000  1  0  0.420037  0  0.887763  0  0  0.388218  0  0.952654  0  0  0.399319  0  0.936665  0  0  0.286903  0.380397  0  0.963879  0
H  H10  1  0.22004143  0.80650273  0.83836504  1  0  0.305903  0  0.914991  0  0  0.281967  0  0.9835  0  0  0.292019  0  0.97519  0  0  0.307766  0.274875  0  0.989463  0
H  H11  1  0.77996575  0.30649345  0.33836465  1  0  0.305911  0  0.915068  0  0  0.281936  0  0.983574  0  0  0.291984  0  0.975273  0  0  0.307784  0.274844  0  0.989532  0
H  H12  1  0.28620721  0.76175768  0.99290407  1  0  0.311741  0  0.934095  0  0  0.28782  0  1.000522  0  0  0.298303  0  0.992233  0  0  0.306174  0.2805  0  1.006277  0
H  H13  1  0.71379085  0.26175602  0.49290813  1  0  0.311814  0  0.934004  0  0  0.287847  0  1.000531  0  0  0.298327  0  0.992242  0  0  0.306233  0.280535  0  1.006278  0
H  H14  1  0.48393432  0.58256530  0.70644376  1  0  0.104226  0  0.943251  0  0  0.115172  0  1.004246  0  0  0.117318  0  1.002905  0  0  0.109377  0.113551  0  1.005261  0
H  H15  1  0.51609553  0.08258283  0.20644310  1  0  0.104206  0  0.943267  0  0  0.115053  0  1.004385  0  0  0.117184  0  1.003035  0  0  0.109338  0.113433  0  1.005393  0
H  H16  1  0.64253160  0.56587549  0.86737193  1  0  0.146741  0  0.951389  0  0  0.154983  0  1.012362  0  0  0.159431  0  1.010059  0  0  0.111988  0.151751  0  1.014381  0
H  H17  1  0.35752001  0.06590137  0.36737714  1  0  0.146859  0  0.951316  0  0  0.155053  0  1.01236  0  0  0.159511  0  1.010069  0  0  0.112016  0.151819  0  1.01437  0
H  H18  1  0.08259325  0.82849154  0.68430921  1  0  0.121302  0  0.955493  0  0  0.128218  0  1.019862  0  0  0.13155  0  1.016225  0  0  0.129349  0.125744  0  1.022512  0
H  H19  1  0.91739990  0.32848158  0.18430743  1  0  0.121266  0  0.955632  0  0  0.128192  0  1.020011  0  0  0.131521  0  1.016359  0  0  0.12937  0.125718  0  1.022661  0
H  H20  1  0.01381964  0.97712283  0.14484130  1  0  0.104679  0  0.940731  0  0  0.115488  0  1.001981  0  0  0.117499  0  1.000914  0  0  0.110051  0.113962  0  1.002816  0
H  H21  1  0.98616669  0.47711052  0.64484357  1  0  0.104531  0  0.940822  0  0  0.115423  0  1.001966  0  0  0.117437  0  1.000896  0  0  0.110015  0.113896  0  1.002805  0
H  H22  1  0.88250288  0.00122801  0.98354191  1  0  0.13181  0  0.974693  0  0  0.139023  0  1.039821  0  0  0.143398  0  1.037269  0  0  0.106748  0.135838  0  1.041996  0
H  H23  1  0.11750289  0.50121762  0.48354523  1  0  0.131839  0  0.974622  0  0  0.139085  0  1.039731  0  0  0.143463  0  1.037194  0  0  0.106742  0.135902  0  1.0419  0
H  H24  1  0.39069367  0.73837287  0.14930481  1  0  0.119705  0  0.937199  0  0  0.126561  0  1.000703  0  0  0.130053  0  0.997193  0  0  0.130885  0.123955  0  1.003307  0
H  H25  1  0.60929293  0.23836682  0.64930478  1  0  0.119725  0  0.937407  0  0  0.12661  0  1.000855  0  0  0.130104  0  0.997339  0  0  0.1309  0.124003  0  1.003454  0
C  C26  1  0.77171145  0.70734145  0.68277997  1  0  -0.204201  0  3.740637  0  0  -0.177089  0  3.999502  0  0  -0.192703  0  4.021614  0  0  -0.032482  -0.167242  0  3.984947  0
C  C27  1  0.22827510  0.20734843  0.18277984  1  0  -0.203902  0  3.740445  0  0  -0.176704  0  3.99918  0  0  -0.192308  0  4.021286  0  0  -0.032406  -0.166857  0  3.984618  0
C  C28  1  0.64803525  0.63274793  0.73632203  1  0  0.031184  0  3.707035  0  0  -0.001701  0  3.963802  0  0  0.008629  0  3.978437  0  0  -0.064076  -0.008119  0  3.953793  0
C  C29  1  0.35199702  0.13276860  0.23631883  1  0  0.031151  0  3.706813  0  0  -0.001664  0  3.963567  0  0  0.008685  0  3.978189  0  0  -0.063977  -0.008093  0  3.953559  0
C  C30  1  0.73543051  0.62284189  0.82553662  1  0  -0.226827  0  3.638547  0  0  -0.246578  0  3.902377  0  0  -0.259366  0  3.918621  0  0  -0.094697  -0.23861  0  3.891795  0
C  C31  1  0.26458298  0.12285063  0.32553814  1  0  -0.227019  0  3.638266  0  0  -0.24682  0  3.902006  0  0  -0.259629  0  3.918262  0  0  -0.094892  -0.238844  0  3.891407  0
C  C32  1  0.95076820  0.68766347  0.86577025  1  0  0.558715  0  3.818731  0  0  0.515841  0  4.096379  0  0  0.544247  0  4.100344  0  0  0.222338  0.496891  0  4.093002  0
C  C33  1  0.04923446  0.18767274  0.36576887  1  0  0.558748  0  3.819072  0  0  0.51599  0  4.096451  0  0  0.544392  0  4.100423  0  0  0.222479  0.497041  0  4.093067  0
C  C34  1  0.97749756  0.77040055  0.72171362  1  0  0.168517  0  3.624391  0  0  0.116791  0  3.876398  0  0  0.130441  0  3.890008  0  0  0.060352  0.107939  0  3.867261  0
C  C35  1  0.02248771  0.27039274  0.22170650  1  0  0.168557  0  3.624436  0  0  0.116691  0  3.876464  0  0  0.130363  0  3.890035  0  0  0.060272  0.10784  0  3.867327  0
C  C36  1  0.71348175  0.85440652  0.15968490  1  0  -0.203489  0  3.754489  0  0  -0.174968  0  4.012957  0  0  -0.19049  0  4.035274  0  0  -0.030122  -0.165213  0  3.998292  0
C  C37  1  0.28651146  0.35438902  0.65968525  1  0  -0.203249  0  3.754357  0  0  -0.174839  0  4.012928  0  0  -0.190275  0  4.035146  0  0  -0.030153  -0.165102  0  3.998277  0
C  C38  1  0.85128224  0.92930026  0.11075343  1  0  0.031948  0  3.704611  0  0  -0.000732  0  3.959346  0  0  0.009331  0  3.974255  0  0  -0.063021  -0.006965  0  3.949145  0
C  C39  1  0.14871508  0.42928435  0.61075950  1  0  0.031998  0  3.704092  0  0  -0.000666  0  3.958828  0  0  0.00937  0  3.973711  0  0  -0.062886  -0.006896  0  3.948641  0
C  C40  1  0.77912045  0.94252911  0.02054098  1  0  -0.21757  0  3.636408  0  0  -0.23555  0  3.89513  0  0  -0.24827  0  3.911964  0  0  -0.094407  -0.227583  0  3.884143  0
C  C41  1  0.22088609  0.44251663  0.52054333  1  0  -0.217567  0  3.63574  0  0  -0.235666  0  3.894576  0  0  -0.2484  0  3.911421  0  0  -0.094421  -0.227693  0  3.883591  0
C  C42  1  0.56802082  0.88023008  0.97428744  1  0  0.563072  0  3.805306  0  0  0.520676  0  4.079771  0  0  0.548867  0  4.083368  0  0  0.224358  0.50186  0  4.07677  0
C  C43  1  0.43200096  0.38022550  0.47429160  1  0  0.563071  0  3.805148  0  0  0.520729  0  4.079604  0  0  0.548929  0  4.083188  0  0  0.224268  0.501898  0  4.076619  0
C  C44  1  0.50845425  0.79559650  0.11535962  1  0  0.169351  0  3.627199  0  0  0.11571  0  3.881382  0  0  0.128897  0  3.895711  0  0  0.060248  0.107207  0  3.871757  0
C  C45  1  0.49154982  0.29558094  0.61535828  1  0  0.16913  0  3.627099  0  0  0.115554  0  3.881219  0  0  0.12871  0  3.895527  0  0  0.060246  0.107058  0  3.871591  0
S  S46  1  0.68263604  0.71145103  0.56367928  1  0  1.30722  0  5.663271  0  0  1.208758  0  6.166383  0  0  1.258323  0  6.147649  0  0  0.500533  1.174493  0  6.178003  0
S  S47  1  0.31735377  0.21145123  0.06367132  1  0  1.307071  0  5.662849  0  0  1.208493  0  6.166035  0  0  1.258051  0  6.147312  0  0  0.500455  1.174231  0  6.177648  0
S  S48  1  0.79182742  0.84207215  0.27811189  1  0  1.29889  0  5.671488  0  0  1.200344  0  6.173375  0  0  1.249606  0  6.15546  0  0  0.503355  1.166318  0  6.184408  0
S  S49  1  0.20816054  0.34205534  0.77810806  1  0  1.299078  0  5.671708  0  0  1.200536  0  6.173592  0  0  1.249768  0  6.155675  0  0  0.503401  1.166517  0  6.184624  0
N  N50  1  0.06047493  0.75974962  0.81001458  1  0  -0.346545  0  3.349623  0  0  -0.275252  0  3.581502  0  0  -0.29638  0  3.590589  0  0  -0.363496  -0.261254  0  3.575172  0
N  N51  1  0.93953561  0.25975078  0.31001707  1  0  -0.346733  0  3.349895  0  0  -0.275281  0  3.581557  0  0  -0.296404  0  3.590639  0  0  -0.363549  -0.261282  0  3.575224  0
N  N52  1  0.44293793  0.80889527  0.02595460  1  0  -0.341624  0  3.349599  0  0  -0.269837  0  3.578462  0  0  -0.291416  0  3.588731  0  0  -0.359287  -0.255595  0  3.57143  0
N  N53  1  0.55707153  0.30888573  0.52595267  1  0  -0.341637  0  3.349635  0  0  -0.269878  0  3.578535  0  0  -0.291452  0  3.588792  0  0  -0.359353  -0.255628  0  3.571496  0
N  N54  1  0.42088144  0.01097929  0.61417500  1  0  0.705173  0  4.10145  0  0  0.730959  0  4.390807  0  0  0.760814  0  4.399482  0  0  0.099656  0.710793  0  4.384295  0
N  N55  1  0.57912064  0.51098047  0.11417244  1  0  0.705193  0  4.101538  0  0  0.730978  0  4.390904  0  0  0.760829  0  4.399586  0  0  0.099719  0.71081  0  4.384396  0
O  O56  1  0.84722351  0.79648732  0.53001035  1  0  -0.712166  0  2.162854  0  0  -0.655197  0  2.478866  0  0  -0.679551  0  2.457424  0  0  -0.344777  -0.637825  0  2.493018  0
O  O57  1  0.15274182  0.29648478  0.03000472  1  0  -0.711988  0  2.162675  0  0  -0.654993  0  2.478709  0  0  -0.679349  0  2.457275  0  0  -0.34469  -0.637627  0  2.492865  0
O  O58  1  0.73074389  0.59488787  0.51301834  1  0  -0.680832  0  2.067918  0  0  -0.614843  0  2.344581  0  0  -0.641416  0  2.331246  0  0  -0.339822  -0.595821  0  2.352991  0
O  O59  1  0.26925827  0.09488469  0.01301623  1  0  -0.6809  0  2.068031  0  0  -0.614861  0  2.344685  0  0  -0.641433  0  2.331351  0  0  -0.339836  -0.595838  0  2.353091  0
O  O60  1  0.40778447  0.74125050  0.56581700  1  0  -0.659586  0  2.036131  0  0  -0.592794  0  2.308903  0  0  -0.620224  0  2.296501  0  0  -0.339573  -0.57329  0  2.316795  0
O  O61  1  0.59221514  0.24125285  0.06581586  1  0  -0.65966  0  2.036106  0  0  -0.592767  0  2.308836  0  0  -0.620194  0  2.296433  0  0  -0.339544  -0.573262  0  2.316724  0
O  O62  1  0.04363429  0.68393216  0.94783537  1  0  -0.605839  0  2.050165  0  0  -0.547459  0  2.300267  0  0  -0.573861  0  2.291392  0  0  -0.315407  -0.528844  0  2.305707  0
O  O63  1  0.95639173  0.18393926  0.44783582  1  0  -0.605842  0  2.050304  0  0  -0.54751  0  2.300349  0  0  -0.573911  0  2.291471  0  0  -0.31548  -0.528898  0  2.305786  0
O  O64  1  0.73959704  0.95454545  0.33433605  1  0  -0.658414  0  2.043892  0  0  -0.595177  0  2.317458  0  0  -0.620829  0  2.303581  0  0  -0.332696  -0.576914  0  2.326325  0
O  O65  1  0.26039966  0.45453042  0.83433389  1  0  -0.658456  0  2.043924  0  0  -0.595198  0  2.317488  0  0  -0.620846  0  2.303615  0  0  -0.332714  -0.576941  0  2.326366  0
O  O66  1  0.06619015  0.81090397  0.27648507  1  0  -0.670864  0  2.04435  0  0  -0.60758  0  2.321336  0  0  -0.633697  0  2.305911  0  0  -0.340411  -0.588941  0  2.331234  0
O  O67  1  0.93378993  0.31089491  0.77648209  1  0  -0.670938  0  2.04433  0  0  -0.607686  0  2.321433  0  0  -0.633805  0  2.30602  0  0  -0.340412  -0.58904  0  2.331325  0
O  O68  1  0.62444302  0.75155820  0.30343836  1  0  -0.700399  0  2.158973  0  0  -0.632465  0  2.463596  0  0  -0.658738  0  2.444484  0  0  -0.346529  -0.613716  0  2.476078  0
O  O69  1  0.37555210  0.25155180  0.80343600  1  0  -0.700442  0  2.15901  0  0  -0.632488  0  2.463611  0  0  -0.658763  0  2.444511  0  0  -0.346493  -0.613735  0  2.476087  0
O  O70  1  0.49229777  0.88533238  0.88957642  1  0  -0.625249  0  2.012354  0  0  -0.564659  0  2.238891  0  0  -0.590445  0  2.231097  0  0  -0.310003  -0.546565  0  2.243773  0
O  O71  1  0.50770830  0.38533293  0.38957568  1  0  -0.625262  0  2.01211  0  0  -0.564649  0  2.238542  0  0  -0.590444  0  2.230748  0  0  -0.309983  -0.546569  0  2.243484  0
O  O72  1  0.36972496  0.00132158  0.52603289  1  0  -0.472702  0  1.885386  0  0  -0.456218  0  2.162256  0  0  -0.475172  0  2.148724  0  0  -0.176722  -0.442782  0  2.171188  0
O  O73  1  0.63027086  0.50131605  0.02603091  1  0  -0.472676  0  1.885336  0  0  -0.456216  0  2.16224  0  0  -0.47517  0  2.148717  0  0  -0.176729  -0.442759  0  2.171132  0
O  O74  1  0.65168995  0.03548959  0.64052838  1  0  -0.467793  0  1.874051  0  0  -0.431384  0  2.103217  0  0  -0.451993  0  2.093611  0  0  -0.174072  -0.417242  0  2.109808  0
O  O75  1  0.34830860  0.53549214  0.14052441  1  0  -0.467759  0  1.87405  0  0  -0.431316  0  2.103166  0  0  -0.451936  0  2.093598  0  0  -0.17405  -0.417178  0  2.109773  0
O  O76  1  0.25063120  0.99723248  0.67384019  1  0  -0.448269  0  1.841181  0  0  -0.427934  0  2.085556  0  0  -0.444448  0  2.073773  0  0  -0.172225  -0.416469  0  2.093659  0
O  O77  1  0.74936882  0.49723504  0.17383919  1  0  -0.448323  0  1.841329  0  0  -0.428009  0  2.085716  0  0  -0.444523  0  2.073939  0  0  -0.172271  -0.416537  0  2.093815  0
O  O78  1  0.24715373  0.54845285  0.32531555  1  0  -0.883083  0  2.005631  0  0  -0.809779  0  2.246462  0  0  -0.837081  0  2.2066  0  0  -0.593383  -0.789837  0  2.273833  0
O  O79  1  0.75283625  0.04845209  0.82531632  1  0  -0.883135  0  2.005506  0  0  -0.809822  0  2.246441  0  0  -0.837127  0  2.206566  0  0  -0.593386  -0.789884  0  2.273806  0
