# generated using pymatgen
data_TbH14C24O10F9
_symmetry_space_group_name_H-M   'P 1'
_cell_length_a   8.80617478
_cell_length_b   11.92910524
_cell_length_c   13.64368641
_cell_angle_alpha   114.17898271
_cell_angle_beta   96.60161624
_cell_angle_gamma   99.74960980
_symmetry_Int_Tables_number   1
_chemical_formula_structural   TbH14C24O10F9
_chemical_formula_sum   'Tb2 H28 C48 O20 F18'
_cell_volume   1261.27045602
_cell_formula_units_Z   2
loop_
 _symmetry_equiv_pos_site_id
 _symmetry_equiv_pos_as_xyz
  1  'x, y, z'
loop_
 _atom_site_type_symbol
 _atom_site_label
 _atom_site_symmetry_multiplicity
 _atom_site_fract_x
 _atom_site_fract_y
 _atom_site_fract_z
 _atom_site_occupancy
 _atom_site_hle17_bader_spin_density
 _atom_site_hle17_ddec_charge
 _atom_site_hle17_ddec_spin_density
 _atom_site_hle17_ddec_sum_bond_order
 _atom_site_hle17_magmom
 _atom_site_hse06_10hf_bader_charge
 _atom_site_hse06_10hf_bader_spin_density
 _atom_site_hse06_10hf_ddec_charge
 _atom_site_hse06_10hf_ddec_spin_density
 _atom_site_hse06_10hf_ddec_sum_bond_order
 _atom_site_hse06_10hf_magmom
 _atom_site_hse06_bader_spin_density
 _atom_site_hse06_ddec_charge
 _atom_site_hse06_ddec_spin_density
 _atom_site_hse06_ddec_sum_bond_order
 _atom_site_hse06_magmom
 _atom_site_pbe_bader_spin_density
 _atom_site_pbe_cm5_charge
 _atom_site_pbe_ddec_charge
 _atom_site_pbe_ddec_spin_density
 _atom_site_pbe_ddec_sum_bond_order
 _atom_site_pbe_magmom
Tb  Tb0  1  0.22908184  0.07100604  0.03250997  1  0  2.318594  0  1.660025  0  2.236595  0  2.246311  0  2.00155  0  0  2.29295  0  1.957273  0  0  1.5342  2.144995  0  2.156694  0
Tb  Tb1  1  0.77091485  0.92898694  0.96748714  1  0  2.318624  0  1.659757  0  2.236731  0  2.246339  0  2.001255  0  0  2.29298  0  1.95698  0  0  1.534269  2.145004  0  2.156447  0
H  H2  1  0.12012979  0.25011561  0.41745217  1  0  0.147371  0  0.920665  0  0.142254  0  0.154623  0  0.980959  0  0  0.159236  0  0.977104  0  0  0.116583  0.151201  0  0.984143  0
H  H3  1  0.87986498  0.74988681  0.58254087  1  0  0.147999  0  0.919947  0  0.142424  0  0.154623  0  0.980947  0  0  0.159237  0  0.977092  0  0  0.116555  0.151205  0  0.984116  0
H  H4  1  0.37750234  0.15274448  0.30011854  1  0  0.157079  0  0.964683  0  0.16153  0  0.159805  0  1.033545  0  0  0.164857  0  1.029083  0  0  0.119951  0.156442  0  1.036047  0
H  H5  1  0.62250514  0.84725426  0.69988290  1  0  0.157263  0  0.96403  0  0.161433  0  0.159753  0  1.033517  0  0  0.164808  0  1.029048  0  0  0.119931  0.156386  0  1.036038  0
H  H6  1  0.15383044  0.30925667  0.86443641  1  0  0.147837  0  0.925118  0  0.128761  0  0.156773  0  0.982149  0  0  0.160727  0  0.979584  0  0  0.121404  0.15378  0  0.984462  0
H  H7  1  0.84616619  0.69074006  0.13556864  1  0  0.147906  0  0.92503  0  0.128726  0  0.156807  0  0.982101  0  0  0.16076  0  0.979535  0  0  0.121418  0.153815  0  0.984412  0
H  H8  1  0.46453138  0.30568303  0.76189593  1  0  0.098736  0  0.93847  0  0.090379  0  0.111042  0  1.008331  0  0  0.112874  0  1.006144  0  0  0.097996  0.109635  0  1.009987  0
H  H9  1  0.53547116  0.69431850  0.23810248  1  0  0.098954  0  0.937945  0  0.09042  0  0.111012  0  1.008346  0  0  0.112845  0  1.006159  0  0  0.097982  0.109605  0  1.009999  0
H  H10  1  0.39367969  0.44227212  0.83770606  1  0  0.104435  0  0.944794  0  0.069077  0  0.119326  0  1.009489  0  0  0.120834  0  1.008162  0  0  0.103058  0.118089  0  1.010639  0
H  H11  1  0.60631976  0.55772654  0.16229403  1  0  0.104441  0  0.94474  0  0.069194  0  0.119323  0  1.009445  0  0  0.120832  0  1.008119  0  0  0.103044  0.118086  0  1.010594  0
H  H12  1  0.44999367  0.34663822  0.90239545  1  0  0.107703  0  0.942405  0  0.091155  0  0.119295  0  1.011004  0  0  0.12146  0  1.008609  0  0  0.102155  0.117582  0  1.012944  0
H  H13  1  0.54999985  0.65335568  0.09759956  1  0  0.107681  0  0.942418  0  0.091296  0  0.119286  0  1.010982  0  0  0.121449  0  1.008588  0  0  0.102151  0.117573  0  1.012925  0
H  H14  1  0.99149786  0.06040879  0.62647649  1  0  0.11016  0  0.956888  0  0.111771  0  0.119321  0  1.028221  0  0  0.121504  0  1.025723  0  0  0.099964  0.117629  0  1.030115  0
H  H15  1  0.00850603  0.93959746  0.37352813  1  0  0.110119  0  0.956888  0  0.111755  0  0.119297  0  1.028201  0  0  0.12148  0  1.025703  0  0  0.099964  0.11761  0  1.030094  0
H  H16  1  0.80397568  0.06506502  0.66637204  1  0  0.090428  0  0.948121  0  0.068898  0  0.10535  0  1.013919  0  0  0.105437  0  1.014738  0  0  0.092534  0.105115  0  1.013636  0
H  H17  1  0.19602908  0.93494031  0.33362864  1  0  0.090495  0  0.948094  0  0.068903  0  0.105381  0  1.013842  0  0  0.105469  0  1.014659  0  0  0.092576  0.10515  0  1.013559  0
H  H18  1  0.90804119  0.19237042  0.64309581  1  0  0.083116  0  0.967901  0  0.021986  0  0.093714  0  1.041097  0  0  0.094187  0  1.041113  0  0  0.088312  0.093285  0  1.041165  0
H  H19  1  0.09196499  0.80763585  0.35690825  1  0  0.083066  0  0.967886  0  0.021991  0  0.093635  0  1.04111  0  0  0.094107  0  1.041126  0  0  0.088284  0.09321  0  1.041175  0
H  H20  1  0.44828818  0.47723812  0.30165866  1  0  0.107391  0  0.932291  0  0.075505  0  0.120593  0  0.999929  0  0  0.122304  0  0.998  0  0  0.107674  0.119262  0  1.001416  0
H  H21  1  0.55170829  0.52276618  0.69834324  1  0  0.107235  0  0.932521  0  0.075499  0  0.120537  0  0.99995  0  0  0.122247  0  0.998024  0  0  0.107668  0.119209  0  1.001434  0
H  H22  1  0.61522289  0.55157073  0.41369044  1  0  0.093839  0  0.950844  0  0.108569  0  0.105076  0  1.022323  0  0  0.106242  0  1.020582  0  0  0.095403  0.104167  0  1.023609  0
H  H23  1  0.38477824  0.44842985  0.58630753  1  0  0.092736  0  0.95201  0  0.108565  0  0.105051  0  1.022373  0  0  0.10622  0  1.020634  0  0  0.095402  0.104142  0  1.023661  0
H  H24  1  0.46998697  0.41682987  0.40081416  1  0  0.096968  0  0.943054  0  0.087158  0  0.110668  0  1.012715  0  0  0.111293  0  1.012142  0  0  0.099614  0.110106  0  1.013312  0
H  H25  1  0.53000976  0.58317538  0.59918664  1  0  0.097035  0  0.94278  0  0.087142  0  0.110685  0  1.012695  0  0  0.11131  0  1.012123  0  0  0.099629  0.110125  0  1.01329  0
H  H26  1  0.49351559  0.30013222  0.14039167  1  0  0.439129  0  0.852043  0  0.648453  0  0.402709  0  0.924765  0  0  0.41328  0  0.909034  0  0  0.310716  0.394998  0  0.936003  0
H  H27  1  0.50648333  0.69986455  0.85960770  1  0  0.439106  0  0.852067  0  0.648403  0  0.402691  0  0.924777  0  0  0.413261  0  0.909047  0  0  0.310719  0.394975  0  0.936023  0
H  H28  1  0.36413788  0.35173832  0.09240857  1  0  0.433029  0  0.853592  0  0.643748  0  0.398636  0  0.925067  0  0  0.408829  0  0.909742  0  0  0.30956  0.391108  0  0.936094  0
H  H29  1  0.63585679  0.64825558  0.90759019  1  0  0.433016  0  0.8536  0  0.643698  0  0.398636  0  0.925056  0  0  0.40883  0  0.909729  0  0  0.30957  0.391114  0  0.936074  0
C  C30  1  0.04877995  0.17500195  0.19782306  1  0  0.725679  0  3.855898  0  1.660613  0  0.676131  0  4.157873  0  0  0.712395  0  4.143456  0  0  0.221948  0.651787  0  4.159282  0
C  C31  1  0.95120378  0.82499375  0.80216822  1  0  0.725455  0  3.856341  0  1.660808  0  0.675927  0  4.158269  0  0  0.71219  0  4.143853  0  0  0.221845  0.651579  0  4.159668  0
C  C32  1  0.96032352  0.24395320  0.28089084  1  0  -0.108075  0  3.74649  0  0.01139  0  -0.107238  0  4.012131  0  0  -0.112352  0  4.028199  0  0  -0.018636  -0.104662  0  4.003074  0
C  C33  1  0.03967382  0.75605018  0.71910566  1  0  -0.107829  0  3.746293  0  0.011601  0  -0.107016  0  4.011878  0  0  -0.112126  0  4.027946  0  0  -0.018623  -0.104445  0  4.002838  0
C  C34  1  0.82676323  0.27996129  0.25130260  1  0  0.214865  0  3.729507  0  0.52253  0  0.17295  0  4.038495  0  0  0.182828  0  4.047098  0  0  0.097932  0.165794  0  4.033711  0
C  C35  1  0.17323128  0.72004018  0.74869081  1  0  0.214934  0  3.729493  0  0.522434  0  0.17298  0  4.038521  0  0  0.182855  0  4.047133  0  0  0.097997  0.165823  0  4.033743  0
C  C36  1  0.74255397  0.34812791  0.32779769  1  0  0.096072  0  3.828396  0  0.587997  0  0.065665  0  4.109741  0  0  0.072687  0  4.125714  0  0  0.077394  0.060537  0  4.099806  0
C  C37  1  0.25744001  0.65187166  0.67219793  1  0  0.096032  0  3.828444  0  0.58775  0  0.065614  0  4.10983  0  0  0.072635  0  4.125801  0  0  0.077303  0.060456  0  4.099909  0
C  C38  1  0.79698731  0.37503889  0.43766713  1  0  0.097747  0  3.791885  0  0.604915  0  0.070203  0  4.09213  0  0  0.075327  0  4.104859  0  0  0.078563  0.066485  0  4.083924  0
C  C39  1  0.20300667  0.62496068  0.56232775  1  0  0.097841  0  3.791817  0  0.605259  0  0.070264  0  4.092141  0  0  0.075387  0  4.104869  0  0  0.078556  0.066541  0  4.083948  0
C  C40  1  0.93105424  0.33866333  0.46763418  1  0  0.202312  0  3.849609  0  0.486264  0  0.171995  0  4.162292  0  0  0.179868  0  4.173721  0  0  0.076875  0.166336  0  4.154898  0
C  C41  1  0.06894203  0.66133627  0.53235942  1  0  0.202196  0  3.849923  0  0.48589  0  0.171845  0  4.16254  0  0  0.179722  0  4.17397  0  0  0.076795  0.166193  0  4.155139  0
C  C42  1  0.01482638  0.27583405  0.39189427  1  0  -0.161673  0  3.731887  0  0.073373  0  -0.207582  0  4.010697  0  0  -0.207832  0  4.02478  0  0  -0.099544  -0.207556  0  4.002221  0
C  C43  1  0.98516839  0.72416837  0.60809877  1  0  -0.161661  0  3.731204  0  0.073196  0  -0.207738  0  4.010642  0  0  -0.207985  0  4.024708  0  0  -0.09958  -0.2077  0  4.002143  0
C  C44  1  0.56646785  0.05547894  0.28495970  1  0  -0.144595  0  3.754508  0  0.059341  0  -0.143064  0  4.014879  0  0  -0.150707  0  4.034682  0  0  -0.026669  -0.138793  0  4.003733  0
C  C45  1  0.43353550  0.94452541  0.71504419  1  0  -0.144604  0  3.754623  0  0.072764  0  -0.14315  0  4.014953  0  0  -0.150772  0  4.034728  0  0  -0.026728  -0.138865  0  4.003797  0
C  C46  1  0.46585874  0.12558463  0.34295114  1  0  -0.173145  0  3.748601  0  0.120514  0  -0.217121  0  4.027934  0  0  -0.217937  0  4.043865  0  0  -0.102835  -0.216591  0  4.018078  0
C  C47  1  0.53414752  0.87441787  0.65705010  1  0  -0.172202  0  3.745693  0  0.11991  0  -0.217161  0  4.027734  0  0  -0.217983  0  4.043666  0  0  -0.102823  -0.21664  0  4.017864  0
C  C48  1  0.48293317  0.16219222  0.45403197  1  0  0.202674  0  3.839172  0  0.418334  0  0.174411  0  4.1458  0  0  0.183347  0  4.153434  0  0  0.074595  0.16788  0  4.141216  0
C  C49  1  0.51707193  0.83781028  0.54596698  1  0  0.205962  0  3.835672  0  0.418308  0  0.174565  0  4.145936  0  0  0.183499  0  4.15357  0  0  0.074588  0.168046  0  4.141338  0
C  C50  1  0.59842756  0.13261821  0.51214641  1  0  0.09742  0  3.794323  0  0.516059  0  0.071925  0  4.093534  0  0  0.078756  0  4.102959  0  0  0.075385  0.067072  0  4.087644  0
C  C51  1  0.40158260  0.86738999  0.48785936  1  0  0.098157  0  3.791841  0  0.515934  0  0.071784  0  4.093773  0  0  0.078615  0  4.103187  0  0  0.075341  0.066924  0  4.087889  0
C  C52  1  0.69935398  0.06081393  0.45728434  1  0  0.070972  0  3.87092  0  0.674237  0  0.043795  0  4.153458  0  0  0.050313  0  4.168734  0  0  0.068003  0.039061  0  4.143433  0
C  C53  1  0.30065590  0.93919332  0.54271961  1  0  0.071058  0  3.871463  0  0.674357  0  0.04394  0  4.153533  0  0  0.050468  0  4.168798  0  0  0.068002  0.039207  0  4.143516  0
C  C54  1  0.67759109  0.02228712  0.34281906  1  0  0.21095  0  3.735333  0  0.460555  0  0.18021  0  4.030368  0  0  0.190215  0  4.040533  0  0  0.096446  0.173053  0  4.024653  0
C  C55  1  0.32241745  0.97771541  0.65718162  1  0  0.210805  0  3.735636  0  0.447903  0  0.180154  0  4.030486  0  0  0.190148  0  4.040645  0  0  0.096452  0.172992  0  4.024771  0
C  C56  1  0.94868452  0.17550819  0.92660466  1  0  0.743929  0  3.831622  0  1.66858  0  0.69919  0  4.129312  0  0  0.735602  0  4.115054  0  0  0.235278  0.673711  0  4.134722  0
C  C57  1  0.05129082  0.82447797  0.07339064  1  0  0.743894  0  3.831809  0  1.668749  0  0.699137  0  4.129535  0  0  0.73555  0  4.115278  0  0  0.235149  0.673662  0  4.134937  0
C  C58  1  0.92085579  0.27949999  0.89650415  1  0  -0.130962  0  3.750124  0  0.053244  0  -0.1301  0  4.013552  0  0  -0.137384  0  4.032734  0  0  -0.024931  -0.126086  0  4.002697  0
C  C59  1  0.07914481  0.72049867  0.10350042  1  0  -0.130867  0  3.750077  0  0.053234  0  -0.130003  0  4.013479  0  0  -0.137288  0  4.032662  0  0  -0.024917  -0.125992  0  4.002623  0
C  C60  1  0.78052770  0.31981386  0.89944352  1  0  0.212698  0  3.734883  0  0.529361  0  0.175922  0  4.034054  0  0  0.186143  0  4.043972  0  0  0.095496  0.168607  0  4.028458  0
C  C61  1  0.21946947  0.68018476  0.10056371  1  0  0.212728  0  3.735154  0  0.529301  0  0.175988  0  4.034294  0  0  0.18621  0  4.044206  0  0  0.095531  0.168675  0  4.028692  0
C  C62  1  0.75885283  0.41736158  0.87059649  1  0  0.073587  0  3.841599  0  0.630029  0  0.044657  0  4.126823  0  0  0.049944  0  4.141715  0  0  0.067725  0.040997  0  4.11634  0
C  C63  1  0.24114575  0.58263800  0.12940973  1  0  0.07351  0  3.841841  0  0.630172  0  0.044584  0  4.12702  0  0  0.049872  0  4.141917  0  0  0.067796  0.040927  0  4.116532  0
C  C64  1  0.88329807  0.47261862  0.83687898  1  0  0.130172  0  3.784952  0  0.539588  0  0.096832  0  4.088728  0  0  0.10631  0  4.095647  0  0  0.088217  0.091146  0  4.08376  0
C  C65  1  0.11669883  0.52737906  0.16312570  1  0  0.130209  0  3.785093  0  0.539589  0  0.096815  0  4.088933  0  0  0.106283  0  4.09586  0  0  0.088152  0.091132  0  4.083965  0
C  C66  1  0.02419374  0.43413629  0.83512622  1  0  0.200278  0  3.850368  0  0.44234  0  0.172147  0  4.157751  0  0  0.18021  0  4.166706  0  0  0.081121  0.166552  0  4.151286  0
C  C67  1  0.97580404  0.56586045  0.16487965  1  0  0.200328  0  3.850214  0  0.442406  0  0.172222  0  4.157561  0  0  0.180288  0  4.16652  0  0  0.081158  0.166618  0  4.151109  0
C  C68  1  0.04392023  0.33944699  0.86520686  1  0  -0.171475  0  3.770717  0  0.095174  0  -0.211083  0  4.042391  0  0  -0.212166  0  4.060097  0  0  -0.097238  -0.210432  0  4.031415  0
C  C69  1  0.95607835  0.66055259  0.13479790  1  0  -0.171701  0  3.770591  0  0.095073  0  -0.21128  0  4.042255  0  0  -0.212363  0  4.059959  0  0  -0.097294  -0.210625  0  4.03128  0
C  C70  1  0.55941028  0.03150641  0.16702689  1  0  0.760376  0  3.840914  0  1.693892  0  0.71332  0  4.139378  0  0  0.750056  0  4.124083  0  0  0.243067  0.68771  0  4.145398  0
C  C71  1  0.44061313  0.96848398  0.83297271  1  0  0.760216  0  3.841112  0  1.693815  0  0.71329  0  4.139348  0  0  0.750023  0  4.124038  0  0  0.242989  0.687662  0  4.145382  0
C  C72  1  0.47452509  0.38377856  0.84299361  1  0  -0.086852  0  3.561864  0  0.355067  0  -0.184037  0  3.827465  0  0  -0.178173  0  3.829213  0  0  -0.142199  -0.187841  0  3.8264  0
C  C73  1  0.52547295  0.61621915  0.15700530  1  0  -0.086677  0  3.561604  0  0.354796  0  -0.18397  0  3.827342  0  0  -0.178115  0  3.829107  0  0  -0.142152  -0.187773  0  3.826279  0
C  C74  1  0.88202352  0.09006954  0.61754137  1  0  -0.082689  0  3.581374  0  0.404673  0  -0.17615  0  3.844724  0  0  -0.169544  0  3.847498  0  0  -0.14876  -0.180482  0  3.842892  0
C  C75  1  0.11798496  0.90993675  0.38246433  1  0  -0.082813  0  3.58164  0  0.404671  0  -0.176045  0  3.844642  0  0  -0.169438  0  3.847413  0  0  -0.148755  -0.180383  0  3.842813  0
C  C76  1  0.53346200  0.46166065  0.35687348  1  0  -0.071302  0  3.56887  0  0.354324  0  -0.174464  0  3.840023  0  0  -0.166759  0  3.841754  0  0  -0.139865  -0.179569  0  3.839143  0
C  C77  1  0.46653164  0.53834173  0.64312606  1  0  -0.071458  0  3.570185  0  0.354482  0  -0.174384  0  3.840066  0  0  -0.166686  0  3.841808  0  0  -0.139868  -0.179506  0  3.839169  0
O  O78  1  0.19776915  0.20329561  0.22106701  1  0  -0.6668  0  1.950443  0  -1.204427  0  -0.631559  0  2.189357  0  0  -0.654512  0  2.177849  0  0  -0.352927  -0.608341  0  2.196795  0
O  O79  1  0.80223434  0.79670120  0.77893198  1  0  -0.666666  0  1.951049  0  -1.204625  0  -0.631462  0  2.190092  0  0  -0.654412  0  2.178578  0  0  -0.352853  -0.608238  0  2.197527  0
O  O80  1  0.46133338  0.07609730  0.12719106  1  0  -0.744419  0  2.073015  0  -1.224204  0  -0.710667  0  2.345441  0  0  -0.73416  0  2.328797  0  0  -0.415759  -0.683084  0  2.35734  0
O  O81  1  0.53865177  0.92389935  0.87280360  1  0  -0.744133  0  2.073557  0  -1.224498  0  -0.710537  0  2.346123  0  0  -0.734025  0  2.329477  0  0  -0.415595  -0.682947  0  2.358028  0
O  O82  1  0.09161067  0.18362016  0.96342315  1  0  -0.714225  0  2.001326  0  -1.212308  0  -0.678083  0  2.251107  0  0  -0.702606  0  2.238373  0  0  -0.392886  -0.651363  0  2.26092  0
O  O83  1  0.90839634  0.81637290  0.03657695  1  0  -0.714141  0  2.002131  0  -1.212606  0  -0.677981  0  2.251882  0  0  -0.702496  0  2.239142  0  0  -0.392759  -0.65127  0  2.261704  0
O  O84  1  0.83034524  0.08870767  0.91074480  1  0  -0.717498  0  2.043361  0  -1.210779  0  -0.68769  0  2.296853  0  0  -0.711942  0  2.284846  0  0  -0.391316  -0.661077  0  2.305942  0
O  O85  1  0.16966134  0.91129202  0.08925179  1  0  -0.717531  0  2.04265  0  -1.210456  0  -0.687723  0  2.296131  0  0  -0.711984  0  2.284132  0  0  -0.391298  -0.661107  0  2.305213  0
O  O86  1  0.81295026  0.02197920  0.50141005  1  0  -0.207108  0  2.367036  0  -1.101371  0  -0.138767  0  2.608167  0  0  -0.155284  0  2.610434  0  0  -0.182619  -0.127077  0  2.606195  0
O  O87  1  0.18706138  0.97802619  0.49859189  1  0  -0.207741  0  2.368089  0  -1.101285  0  -0.138824  0  2.608189  0  0  -0.155343  0  2.610449  0  0  -0.182609  -0.127133  0  2.606221  0
O  O88  1  0.63055290  0.46846191  0.87875151  1  0  -0.242717  0  2.371389  0  -1.10753  0  -0.164666  0  2.61175  0  0  -0.180766  0  2.613066  0  0  -0.186226  -0.153216  0  2.610457  0
O  O89  1  0.36944542  0.53153673  0.12125436  1  0  -0.242716  0  2.371533  0  -1.10754  0  -0.164604  0  2.611841  0  0  -0.180705  0  2.61316  0  0  -0.186241  -0.15316  0  2.610552  0
O  O90  1  0.61632437  0.37760413  0.28581706  1  0  -0.224317  0  2.422342  0  -1.111092  0  -0.14169  0  2.656032  0  0  -0.160226  0  2.660059  0  0  -0.171161  -0.128965  0  2.65352  0
O  O91  1  0.38366502  0.62239539  0.71417894  1  0  -0.224355  0  2.422519  0  -1.11117  0  -0.141691  0  2.656228  0  0  -0.160225  0  2.660256  0  0  -0.171096  -0.128906  0  2.65368  0
O  O92  1  0.97321789  0.08919533  0.10359657  1  0  -0.834723  0  2.237161  0  -1.23452  0  -0.795065  0  2.497978  0  0  -0.821108  0  2.486723  0  0  -0.433164  -0.760861  0  2.504412  0
O  O93  1  0.02678580  0.91080621  0.89640194  1  0  -0.834664  0  2.236942  0  -1.234395  0  -0.795002  0  2.497718  0  0  -0.821052  0  2.486471  0  0  -0.43313  -0.760787  0  2.504141  0
O  O94  1  0.65643995  0.97546792  0.11677618  1  0  -0.728884  0  2.060763  0  -1.213608  0  -0.70306  0  2.327374  0  0  -0.72559  0  2.311274  0  0  -0.40831  -0.67655  0  2.340335  0
O  O95  1  0.34355848  0.02453921  0.88323056  1  0  -0.728902  0  2.060052  0  -1.213361  0  -0.703138  0  2.326646  0  0  -0.725677  0  2.310549  0  0  -0.408346  -0.676616  0  2.339605  0
O  O96  1  0.40181376  0.27558866  0.08133331  1  0  -0.882802  0  1.874813  0  -1.249121  0  -0.849139  0  2.077548  0  0  -0.865822  0  2.044103  0  0  -0.628165  -0.828216  0  2.104791  0
O  O97  1  0.59818320  0.72440526  0.91866489  1  0  -0.882769  0  1.874883  0  -1.249016  0  -0.849099  0  2.077612  0  0  -0.865781  0  2.044164  0  0  -0.628157  -0.828175  0  2.104864  0
F  F98  1  0.14201871  0.49084363  0.80264766  1  0  -0.165214  0  1.251146  0  -0.64516  0  -0.124136  0  1.428559  0  0  -0.132017  0  1.41817  0  0  -0.088366  -0.118374  0  1.435455  0
F  F99  1  0.85797791  0.50915310  0.19735593  1  0  -0.165212  0  1.250997  0  -0.64526  0  -0.124139  0  1.428399  0  0  -0.132022  0  1.418011  0  0  -0.088375  -0.118377  0  1.4353  0
F  F100  1  0.86548721  0.56515432  0.80695750  1  0  -0.150572  0  1.274341  0  -0.630798  0  -0.092219  0  1.437831  0  0  -0.105194  0  1.43251  0  0  -0.070417  -0.085999  0  1.444128  0
F  F101  1  0.13450781  0.43483674  0.19304173  1  0  -0.150626  0  1.274336  0  -0.630936  0  -0.092278  0  1.437864  0  0  -0.105236  0  1.432527  0  0  -0.070454  -0.086058  0  1.444162  0
F  F102  1  0.66256714  0.26950992  0.93570071  1  0  -0.157833  0  1.265844  0  -0.636622  0  -0.093296  0  1.422103  0  0  -0.1027  0  1.412693  0  0  -0.068968  -0.086823  0  1.428774  0
F  F103  1  0.33743029  0.73048964  0.06430616  1  0  -0.157809  0  1.266031  0  -0.636522  0  -0.093345  0  1.422336  0  0  -0.102749  0  1.412924  0  0  -0.068991  -0.086873  0  1.429006  0
F  F104  1  0.97725009  0.36740488  0.57560692  1  0  -0.183136  0  1.229195  0  -0.643529  0  -0.131092  0  1.392435  0  0  -0.139147  0  1.383201  0  0  -0.096089  -0.125234  0  1.398727  0
F  F105  1  0.02274564  0.63259283  0.42438596  1  0  -0.183066  0  1.229375  0  -0.643662  0  -0.130962  0  1.392594  0  0  -0.139019  0  1.383362  0  0  -0.095977  -0.125097  0  1.398882  0
F  F106  1  0.72180201  0.43569281  0.51814342  1  0  -0.163791  0  1.271549  0  -0.645094  0  -0.103767  0  1.435431  0  0  -0.113314  0  1.427986  0  0  -0.07836  -0.096828  0  1.440443  0
F  F107  1  0.27819029  0.56430486  0.48185212  1  0  -0.163699  0  1.27126  0  -0.645125  0  -0.103767  0  1.435391  0  0  -0.113313  0  1.427947  0  0  -0.078335  -0.096821  0  1.440407  0
F  F108  1  0.60779139  0.17292265  0.62192420  1  0  -0.162058  0  1.268782  0  -0.651271  0  -0.114308  0  1.446441  0  0  -0.124567  0  1.439898  0  0  -0.080989  -0.106899  0  1.450966  0
F  F109  1  0.39222636  0.82709224  0.37807941  1  0  -0.161392  0  1.267823  0  -0.651195  0  -0.114283  0  1.44641  0  0  -0.124545  0  1.439865  0  0  -0.080948  -0.106874  0  1.450941  0
F  F110  1  0.38668207  0.23067375  0.51185978  1  0  -0.180696  0  1.205013  0  -0.651696  0  -0.132854  0  1.372026  0  0  -0.140938  0  1.361112  0  0  -0.093218  -0.127  0  1.379605  0
F  F111  1  0.61332055  0.76932400  0.48814095  1  0  -0.190606  0  1.215648  0  -0.651745  0  -0.13289  0  1.372041  0  0  -0.140975  0  1.361127  0  0  -0.093219  -0.127037  0  1.379616  0
F  F112  1  0.77478861  0.95100851  0.29189965  1  0  -0.152622  0  1.248973  0  -0.64349  0  -0.102715  0  1.419539  0  0  -0.112054  0  1.410129  0  0  -0.073594  -0.09611  0  1.425919  0
F  F113  1  0.22521508  0.04899302  0.70810252  1  0  -0.152597  0  1.24903  0  -0.643486  0  -0.102689  0  1.419539  0  0  -0.112029  0  1.410133  0  0  -0.073607  -0.096081  0  1.425918  0
F  F114  1  0.77277995  0.25274466  0.14514667  1  0  -0.162922  0  1.28251  0  -0.631719  0  -0.106983  0  1.453628  0  0  -0.115216  0  1.443822  0  0  -0.06403  -0.10012  0  1.458646  0
F  F115  1  0.22721280  0.74725868  0.85484728  1  0  -0.163  0  1.282637  0  -0.631589  0  -0.107  0  1.45373  0  0  -0.115232  0  1.443926  0  0  -0.064014  -0.100132  0  1.458748  0
