# generated using pymatgen
data_Zn4C40Br16N4O21
_symmetry_space_group_name_H-M   'P 1'
_cell_length_a   23.61598516
_cell_length_b   23.61708023
_cell_length_c   23.61637496
_cell_angle_alpha   66.21781671
_cell_angle_beta   72.65104167
_cell_angle_gamma   107.36857874
_symmetry_Int_Tables_number   1
_chemical_formula_structural   Zn4C40Br16N4O21
_chemical_formula_sum   'Zn8 C80 Br32 N8 O42'
_cell_volume   10096.49967344
_cell_formula_units_Z   2
loop_
 _symmetry_equiv_pos_site_id
 _symmetry_equiv_pos_as_xyz
  1  'x, y, z'
loop_
 _atom_site_type_symbol
 _atom_site_label
 _atom_site_symmetry_multiplicity
 _atom_site_fract_x
 _atom_site_fract_y
 _atom_site_fract_z
 _atom_site_occupancy
 _atom_site_pbe_bader_charge
 _atom_site_pbe_bader_spin_density
 _atom_site_pbe_cm5_charge
 _atom_site_pbe_ddec_charge
 _atom_site_pbe_ddec_spin_density
 _atom_site_pbe_ddec_sum_bond_order
 _atom_site_pbe_magmom
Zn  Zn0  1  0.05890375  0.95851531  0.48401515  1  1.325934  0  0.683154  0.996033  0  2.293365  0
Zn  Zn1  1  0.05889215  0.10039482  0.45709162  1  1.326416  0  0.682869  0.995653  0  2.293457  0
Zn  Zn2  1  0.94112709  0.98402290  0.45848454  1  1.326262  0  0.682916  0.995761  0  2.29347  0
Zn  Zn3  1  0.94113606  0.95710179  0.60034452  1  1.326602  0  0.683008  0.995957  0  2.293228  0
Zn  Zn4  1  0.94255911  0.54290527  0.01596185  1  1.327192  0  0.683008  0.995921  0  2.293262  0
Zn  Zn5  1  0.05751440  0.51598947  0.04290176  1  1.326838  0  0.682908  0.995704  0  2.293664  0
Zn  Zn6  1  0.94253392  0.39963608  0.04148819  1  1.325981  0  0.682835  0.995662  0  2.293498  0
Zn  Zn7  1  0.05747738  0.54149335  0.89961126  1  1.326377  0  0.683128  0.996067  0  2.293027  0
C  C8  1  0.17919609  0.08963655  0.41037435  1  1.586124  0  0.222406  0.622242  0  4.162839  0
C  C9  1  0.99999052  0.13597834  0.36402145  1  1.64959  0  0.237353  0.620738  0  4.157587  0
C  C10  1  0.00000219  0.91070068  0.41070172  1  1.563741  0  0.223117  0.625313  0  4.16116  0
C  C11  1  0.82081643  0.91039842  0.58956512  1  1.585595  0  0.22233  0.622363  0  4.162531  0
C  C12  1  0.00001213  0.86402853  0.63598133  1  1.649248  0  0.237423  0.620388  0  4.157375  0
C  C13  1  0.99999403  0.08929454  0.58929069  1  1.565174  0  0.223154  0.625528  0  4.160404  0
C  C14  1  0.00002347  0.58957508  0.08961111  1  1.588058  0  0.222581  0.622593  0  4.162044  0
C  C15  1  0.00001042  0.36402637  0.13597435  1  1.654655  0  0.23747  0.620865  0  4.157028  0
C  C16  1  0.82142328  0.41072260  0.08927689  1  1.55729  0  0.223224  0.625689  0  4.160675  0
C  C17  1  0.99998578  0.41037020  0.91043841  1  1.588438  0  0.22252  0.622606  0  4.162173  0
C  C18  1  0.99999773  0.63597606  0.86401542  1  1.654215  0  0.23751  0.620934  0  4.157383  0
C  C19  1  0.17861065  0.58927193  0.91070067  1  1.558299  0  0.222921  0.625497  0  4.161216  0
C  C20  1  0.00000294  0.80544503  0.69455792  1  0.084667  0  0.019231  -0.07205  0  3.868643  0
C  C21  1  0.99999897  0.69455635  0.80543996  1  0.100552  0  0.019203  -0.072431  0  3.868426  0
C  C22  1  0.95630476  0.77591572  0.76565327  1  0.278826  0  0.104844  0.036628  0  3.872589  0
C  C23  1  0.04156782  0.72195312  0.73434325  1  0.249147  0  0.104816  0.036692  0  3.872331  0
C  C24  1  0.95844409  0.72409673  0.81960677  1  0.269072  0  0.104805  0.036618  0  3.87269  0
C  C25  1  0.04370302  0.77804940  0.68038705  1  0.256596  0  0.104797  0.036479  0  3.87257  0
C  C26  1  0.99999923  0.19455666  0.30543902  1  0.084272  0  0.019105  -0.072597  0  3.868196  0
C  C27  1  0.00000390  0.30544551  0.19455459  1  0.100235  0  0.019152  -0.072474  0  3.868272  0
C  C28  1  0.95629264  0.18038127  0.27803518  1  0.257205  0  0.105013  0.036854  0  3.872015  0
C  C29  1  0.04158185  0.31962043  0.22408514  1  0.268273  0  0.105027  0.03682  0  3.872291  0
C  C30  1  0.95842263  0.23434308  0.22195027  1  0.249237  0  0.104784  0.036778  0  3.872316  0
C  C31  1  0.04370816  0.26566070  0.27591562  1  0.279043  0  0.104929  0.036961  0  3.872184  0
C  C32  1  0.00002072  0.62756863  0.12761817  1  0.008225  0  -0.018901  -0.095964  0  3.924823  0
C  C33  1  0.94051179  0.62784073  0.16307983  1  0.014543  0  -0.016023  0.048099  0  3.941425  0
C  C34  1  0.94063077  0.66381400  0.19785777  1  -0.022818  0  -0.015227  0.026178  0  3.907411  0
C  C35  1  0.00004141  0.69905880  0.19903950  1  0.173942  0  -0.00409  0.071609  0  4.073488  0
C  C36  1  0.05944235  0.69788243  0.16380771  1  -0.020347  0  -0.015423  0.026077  0  3.907644  0
C  C37  1  0.05953576  0.66306299  0.12787853  1  0.016685  0  -0.016036  0.048444  0  3.940833  0
C  C38  1  0.00005409  0.73472141  0.23468650  1  -0.211072  0  -0.042326  -0.068976  0  4.12101  0
C  C39  1  0.00003153  0.76553690  0.26549886  1  -0.006828  0  -0.04298  -0.069658  0  4.120933  0
C  C40  1  0.99999623  0.80117153  0.30117205  1  0.123339  0  -0.005708  0.071043  0  4.078955  0
C  C41  1  0.98234715  0.85584374  0.28288614  1  0.015377  0  -0.015756  0.026237  0  3.910467  0
C  C42  1  0.98282204  0.89153744  0.31797420  1  -0.047394  0  -0.019001  0.04066  0  3.944168  0
C  C43  1  0.00000548  0.87266828  0.37266514  1  0.096437  0  -0.020704  -0.094261  0  3.923401  0
C  C44  1  0.01718336  0.81798010  0.39153839  1  -0.047356  0  -0.018963  0.040769  0  3.94428  0
C  C45  1  0.01763402  0.78287692  0.35585833  1  0.014366  0  -0.015793  0.026122  0  3.910967  0
C  C46  1  0.99994184  0.37234454  0.87246793  1  0.06503  0  -0.018805  -0.095618  0  3.924008  0
C  C47  1  0.05943351  0.39634736  0.81269869  1  -0.001618  0  -0.016069  0.047891  0  3.942506  0
C  C48  1  0.05927828  0.36142479  0.77687050  1  -0.057468  0  -0.015181  0.02624  0  3.907732  0
C  C49  1  0.99983238  0.30085991  0.80104986  1  0.218594  0  -0.004419  0.071279  0  4.073859  0
C  C50  1  0.94044079  0.27671611  0.86162599  1  -0.02669  0  -0.015061  0.02626  0  3.908273  0
C  C51  1  0.94039833  0.31258542  0.89650620  1  -0.033956  0  -0.016198  0.048389  0  3.940283  0
C  C52  1  0.99980809  0.26519835  0.76540296  1  -0.210982  0  -0.042224  -0.068588  0  4.121341  0
C  C53  1  0.99984654  0.23441630  0.73455555  1  -0.00833  0  -0.04336  -0.070151  0  4.12165  0
C  C54  1  0.99990665  0.19878605  0.69887716  1  0.069143  0  -0.005519  0.071044  0  4.078539  0
C  C55  1  0.01759564  0.23473443  0.62654087  1  0.052443  0  -0.016093  0.025839  0  3.910458  0
C  C56  1  0.01716756  0.19919211  0.59129616  1  -0.047776  0  -0.018826  0.040982  0  3.943896  0
C  C57  1  0.99998611  0.12732174  0.62733880  1  0.097056  0  -0.020701  -0.0944  0  3.923049  0
C  C58  1  0.98278907  0.09126234  0.69921205  1  -0.048508  0  -0.019177  0.04055  0  3.943646  0
C  C59  1  0.98228855  0.12647003  0.73479082  1  0.032882  0  -0.015638  0.026426  0  3.910219  0
C  C60  1  0.74534810  0.37268800  0.12730751  1  0.117808  0  -0.020682  -0.094261  0  3.923373  0
C  C61  1  0.70953454  0.40874841  0.10844297  1  -0.057722  0  -0.019012  0.040799  0  3.943498  0
C  C62  1  0.63874920  0.37353710  0.14414307  1  0.035342  0  -0.015621  0.026141  0  3.910106  0
C  C63  1  0.60235010  0.30121326  0.19882758  1  0.12268  0  -0.005812  0.071292  0  4.078502  0
C  C64  1  0.63873244  0.26526329  0.21709618  1  0.023549  0  -0.015975  0.025679  0  3.910432  0
C  C65  1  0.70952101  0.30081710  0.18198750  1  -0.057652  0  -0.018898  0.040933  0  3.944773  0
C  C66  1  0.53104244  0.26558619  0.23450582  1  0.011505  0  -0.043173  -0.070125  0  4.121147  0
C  C67  1  0.46941537  0.23479819  0.26532230  1  -0.283687  0  -0.042064  -0.06847  0  4.120496  0
C  C68  1  0.39810563  0.19913439  0.30096968  1  0.213258  0  -0.004822  0.070619  0  4.074207  0
C  C69  1  0.36167822  0.22328487  0.33620996  1  -0.027301  0  -0.015134  0.026692  0  3.907994  0
C  C70  1  0.29092789  0.18741915  0.37214607  1  0.008076  0  -0.016122  0.048263  0  3.941001  0
C  C71  1  0.25519571  0.12765444  0.37237986  1  0.050824  0  -0.018882  -0.095818  0  3.924655  0
C  C72  1  0.29094989  0.10363877  0.33689574  1  -0.01503  0  -0.016054  0.04814  0  3.941985  0
C  C73  1  0.36170018  0.13855399  0.30212429  1  -0.026686  0  -0.015005  0.026471  0  3.907684  0
C  C74  1  0.25468271  0.62729866  0.87267075  1  0.115026  0  -0.020459  -0.094413  0  3.92425  0
C  C75  1  0.29050392  0.60842480  0.90872199  1  -0.055324  0  -0.018928  0.041073  0  3.943912  0
C  C76  1  0.36128898  0.64409637  0.87349154  1  0.033123  0  -0.01605  0.0257  0  3.909882  0
C  C77  1  0.39767287  0.69876228  0.80117483  1  0.122807  0  -0.005444  0.071967  0  4.077621  0
C  C78  1  0.36127749  0.71708926  0.76525731  1  0.022111  0  -0.016085  0.02539  0  3.91015  0
C  C79  1  0.29049045  0.68199657  0.80081484  1  -0.05627  0  -0.018845  0.041231  0  3.944132  0
C  C80  1  0.46898094  0.73438504  0.76549352  1  0.013956  0  -0.043655  -0.070831  0  4.122123  0
C  C81  1  0.53060566  0.76517393  0.73466088  1  -0.285343  0  -0.041923  -0.068201  0  4.121609  0
C  C82  1  0.60191787  0.80083965  0.69901580  1  0.21216  0  -0.004603  0.070924  0  4.074598  0
C  C83  1  0.63831277  0.83610588  0.72318795  1  -0.024309  0  -0.015066  0.026665  0  3.907789  0
C  C84  1  0.70906630  0.87210461  0.68732987  1  0.011192  0  -0.016027  0.047896  0  3.941925  0
C  C85  1  0.74482004  0.87238061  0.62755479  1  0.049511  0  -0.018801  -0.095709  0  3.924361  0
C  C86  1  0.70908820  0.83687397  0.60352521  1  -0.017572  0  -0.016034  0.048638  0  3.940487  0
C  C87  1  0.63833811  0.80202788  0.63843286  1  -0.026859  0  -0.01527  0.025964  0  3.908228  0
Br  Br88  1  0.85913465  0.57635234  0.16708092  1  0.006701  0  0.050771  -0.009418  0  1.489966  0
Br  Br89  1  0.14089706  0.66708225  0.07638572  1  0.007089  0  0.050713  -0.009577  0  1.490205  0
Br  Br90  1  0.13767557  0.74469536  0.16662752  1  0.006195  0  0.048239  -0.020713  0  1.468435  0
Br  Br91  1  0.86241949  0.66667961  0.24460279  1  0.006713  0  0.048225  -0.020673  0  1.468416  0
Br  Br92  1  0.95868719  0.87873557  0.21017957  1  0.005141  0  0.048514  -0.019769  0  1.469977  0
Br  Br93  1  0.04128259  0.71017172  0.37875646  1  0.005166  0  0.048607  -0.019653  0  1.470331  0
Br  Br94  1  0.03686205  0.78915065  0.46736035  1  0.017128  0  0.04547  -0.01119  0  1.569623  0
Br  Br95  1  0.96314389  0.96735660  0.28915276  1  0.017471  0  0.045597  -0.011026  0  1.569561  0
Br  Br96  1  0.14083429  0.47367791  0.78281392  1  0.009815  0  0.050858  -0.009339  0  1.490558  0
Br  Br97  1  0.85905683  0.28273482  0.97387124  1  0.011297  0  0.050603  -0.009765  0  1.490366  0
Br  Br98  1  0.86216903  0.19568633  0.89307479  1  0.004257  0  0.048374  -0.02063  0  1.468337  0
Br  Br99  1  0.13747183  0.39283696  0.69581175  1  0.006104  0  0.048261  -0.020662  0  1.468846  0
Br  Br100  1  0.04124896  0.33109311  0.57999939  1  0.005805  0  0.048592  -0.019645  0  1.470241  0
Br  Br101  1  0.95858613  0.07987519  0.83116343  1  0.005679  0  0.048537  -0.019766  0  1.46997  0
Br  Br102  1  0.96312258  0.99576529  0.74769304  1  0.016402  0  0.045615  -0.011012  0  1.569662  0
Br  Br103  1  0.03687350  0.24771816  0.49578855  1  0.017044  0  0.045594  -0.011019  0  1.569427  0
Br  Br104  1  0.75654109  0.50425530  0.03263204  1  0.018214  0  0.045432  -0.011204  0  1.56937  0
Br  Br105  1  0.75650935  0.25229884  0.21080385  1  0.018991  0  0.045527  -0.011114  0  1.569769  0
Br  Br106  1  0.58892120  0.16890259  0.28979676  1  0.002568  0  0.048675  -0.01954  0  1.47016  0
Br  Br107  1  0.58896173  0.42012793  0.12126679  1  0.006953  0  0.048553  -0.019717  0  1.470028  0
Br  Br108  1  0.41128033  0.30433849  0.33340044  1  0.005517  0  0.048299  -0.0208  0  1.468203  0
Br  Br109  1  0.41132744  0.10711422  0.25536314  1  0.00525  0  0.04824  -0.0207  0  1.468719  0
Br  Br110  1  0.24347966  0.02629135  0.33285962  1  0.009882  0  0.050836  -0.009398  0  1.490227  0
Br  Br111  1  0.24343216  0.21726683  0.42364782  1  0.009651  0  0.050701  -0.009598  0  1.490417  0
Br  Br112  1  0.24349794  0.53261414  0.00422214  1  0.018699  0  0.045536  -0.011187  0  1.569371  0
Br  Br113  1  0.24349473  0.71083155  0.75231161  1  0.019018  0  0.045564  -0.011176  0  1.56959  0
Br  Br114  1  0.41108549  0.78981974  0.66891177  1  0.002209  0  0.048657  -0.019494  0  1.469988  0
Br  Br115  1  0.41110823  0.62118583  0.92003334  1  0.007543  0  0.048582  -0.019721  0  1.46986  0
Br  Br116  1  0.58868235  0.83323277  0.80425771  1  0.005656  0  0.048337  -0.020675  0  1.468821  0
Br  Br117  1  0.58872548  0.75520303  0.60700364  1  0.004871  0  0.048352  -0.020619  0  1.468283  0
Br  Br118  1  0.75658991  0.83290237  0.52615441  1  0.010011  0  0.050633  -0.00969  0  1.490185  0
Br  Br119  1  0.75652561  0.92359901  0.71722181  1  0.009315  0  0.050846  -0.009313  0  1.490617  0
N  N120  1  0.90491107  0.79815294  0.78604114  1  0.471462  0  0.059824  0.502863  0  4.276337  0
N  N121  1  0.08419430  0.69094746  0.71394606  1  0.468002  0  0.059852  0.502986  0  4.276466  0
N  N122  1  0.91582597  0.70187411  0.89323374  1  0.464132  0  0.059918  0.503261  0  4.276416  0
N  N123  1  0.09512000  0.80906213  0.60676140  1  0.475403  0  0.059908  0.503253  0  4.276057  0
N  N124  1  0.90487464  0.10674329  0.30904378  1  0.476115  0  0.059756  0.502632  0  4.275913  0
N  N125  1  0.08421889  0.39325762  0.20186066  1  0.464193  0  0.059667  0.502549  0  4.275933  0
N  N126  1  0.91578202  0.21395162  0.19094121  1  0.468643  0  0.059642  0.50245  0  4.276259  0
N  N127  1  0.09511131  0.28605130  0.29815944  1  0.472338  0  0.059689  0.502702  0  4.276057  0
O  O128  1  0.00002436  0.00001142  0.49997629  1  -1.235121  0  -0.579503  -1.045809  0  2.518417  0
O  O129  1  0.15010587  0.02430752  0.45790512  1  -1.164719  0  -0.309037  -0.536679  0  2.334963  0
O  O130  1  0.02293524  0.15238520  0.40048199  1  -1.150864  0  -0.295691  -0.524061  0  2.349563  0
O  O131  1  0.94540630  0.91168981  0.43871543  1  -1.159307  0  -0.31136  -0.547807  0  2.370389  0
O  O132  1  0.15008439  0.12586796  0.39194073  1  -1.157655  0  -0.309325  -0.537444  0  2.334425  0
O  O133  1  0.05460508  0.93871840  0.41170088  1  -1.159401  0  -0.311399  -0.548061  0  2.370148  0
O  O134  1  0.97704147  0.07658306  0.37056041  1  -1.149689  0  -0.29559  -0.523904  0  2.350212  0
O  O135  1  0.84992455  0.95794166  0.52422817  1  -1.163384  0  -0.309295  -0.537375  0  2.33454  0
O  O136  1  0.97703853  0.90046463  0.65239799  1  -1.150672  0  -0.295704  -0.524013  0  2.349543  0
O  O137  1  0.84992876  0.89196770  0.62579214  1  -1.159046  0  -0.309158  -0.537062  0  2.334366  0
O  O138  1  0.02299587  0.87060082  0.57658338  1  -1.149562  0  -0.295583  -0.523857  0  2.350351  0
O  O139  1  0.05459052  0.11588275  0.53370838  1  -1.159473  0  -0.311419  -0.54798  0  2.370221  0
O  O140  1  0.94539465  0.03370046  0.61585640  1  -1.159177  0  -0.311486  -0.548166  0  2.369779  0
O  O141  1  0.00004323  0.50001756  0.99998415  1  -1.235639  0  -0.579507  -1.04576  0  2.518384  0
O  O142  1  0.98223246  0.60801445  0.04206489  1  -1.15732  0  -0.309129  -0.536902  0  2.334346  0
O  O143  1  0.05287125  0.42341109  0.09952322  1  -1.152176  0  -0.295605  -0.523942  0  2.350026  0
O  O144  1  0.85042522  0.38414266  0.06125851  1  -1.158341  0  -0.311565  -0.54828  0  2.370316  0
O  O145  1  0.01782768  0.54203906  0.10803915  1  -1.157564  0  -0.309439  -0.537543  0  2.334287  0
O  O146  1  0.85044223  0.46631040  0.08828959  1  -1.161396  0  -0.311387  -0.54812  0  2.3701  0
O  O147  1  0.94714073  0.34761949  0.12943458  1  -1.15205  0  -0.29574  -0.524098  0  2.349396  0
O  O148  1  0.98219649  0.37414712  0.97577852  1  -1.157046  0  -0.309386  -0.537489  0  2.334296  0
O  O149  1  0.05282847  0.62940946  0.84760124  1  -1.152204  0  -0.295651  -0.524077  0  2.350461  0
O  O150  1  0.01779109  0.47570392  0.87419873  1  -1.157994  0  -0.309101  -0.536983  0  2.334515  0
O  O151  1  0.94715596  0.59955441  0.92342130  1  -1.151963  0  -0.295706  -0.524149  0  2.349701  0
O  O152  1  0.14961196  0.58829211  0.96628456  1  -1.16141  0  -0.311478  -0.548099  0  2.370318  0
O  O153  1  0.14958453  0.56125420  0.88412418  1  -1.158297  0  -0.311316  -0.548046  0  2.370271  0
O  O154  1  0.85746863  0.77953493  0.77444740  1  -0.394037  0  -0.091632  -0.266077  0  1.891582  0
O  O155  1  0.91383050  0.83099783  0.81486159  1  -0.429829  0  -0.105516  -0.283902  0  1.930477  0
O  O156  1  0.05398027  0.63192447  0.72551385  1  -0.396971  0  -0.09158  -0.266045  0  1.891434  0
O  O157  1  0.14585692  0.72867637  0.68513864  1  -0.418742  0  -0.105544  -0.284028  0  1.9307  0
O  O158  1  0.94604317  0.72049995  0.92205547  1  -0.389293  0  -0.09172  -0.266266  0  1.891295  0
O  O159  1  0.85416465  0.66903982  0.91715587  1  -0.427192  0  -0.105537  -0.28414  0  1.930695  0
O  O160  1  0.14257129  0.86808249  0.57795908  1  -0.391042  0  -0.091786  -0.266399  0  1.891363  0
O  O161  1  0.08621018  0.77132717  0.58283047  1  -0.430082  0  -0.105402  -0.283952  0  1.930343  0
O  O162  1  0.85743347  0.07792408  0.36806194  1  -0.391444  0  -0.091447  -0.265816  0  1.891867  0
O  O163  1  0.91377762  0.08280917  0.27131348  1  -0.430745  0  -0.105679  -0.284067  0  1.929646  0
O  O164  1  0.05401791  0.42208152  0.22047687  1  -0.388721  0  -0.091525  -0.265878  0  1.891573  0
O  O165  1  0.14588056  0.41718700  0.16903033  1  -0.427505  0  -0.10555  -0.283942  0  1.929959  0
O  O166  1  0.94598370  0.22554253  0.13191118  1  -0.398013  0  -0.091528  -0.265917  0  1.891695  0
O  O167  1  0.85412181  0.18511764  0.22867101  1  -0.418242  0  -0.105438  -0.283759  0  1.930399  0
O  O168  1  0.14254761  0.27446155  0.27955065  1  -0.394526  0  -0.091464  -0.26594  0  1.891843  0
O  O169  1  0.08621544  0.31488965  0.33098447  1  -0.430034  0  -0.105589  -0.28402  0  1.93007  0
