# generated using pymatgen
data_CuH2(C2N)2
_symmetry_space_group_name_H-M   'P 1'
_cell_length_a   32.75892245
_cell_length_b   32.79723761
_cell_length_c   32.76189636
_cell_angle_alpha   109.51840972
_cell_angle_beta   109.44554255
_cell_angle_gamma   109.39895116
_symmetry_Int_Tables_number   1
_chemical_formula_structural   CuH2(C2N)2
_chemical_formula_sum   'Cu12 H24 C48 N24'
_cell_volume   27113.48932335
_cell_formula_units_Z   12
loop_
 _symmetry_equiv_pos_site_id
 _symmetry_equiv_pos_as_xyz
  1  'x, y, z'
loop_
 _atom_site_type_symbol
 _atom_site_label
 _atom_site_symmetry_multiplicity
 _atom_site_fract_x
 _atom_site_fract_y
 _atom_site_fract_z
 _atom_site_occupancy
 _atom_site_pbe_bader_charge
 _atom_site_pbe_bader_spin_density
 _atom_site_pbe_cm5_charge
 _atom_site_pbe_ddec_charge
 _atom_site_pbe_ddec_spin_density
 _atom_site_pbe_ddec_sum_bond_order
 _atom_site_pbe_magmom
Cu  Cu0  1  0.93193871  0.96579417  0.71541958  1  0.54084  0  0.490245  0.207582  0  2.120023  0
Cu  Cu1  1  0.03426251  0.96509459  0.74963265  1  0.549948  0  0.487722  0.208948  0  2.099886  0
Cu  Cu2  1  0.03414072  0.06852198  0.78454956  1  0.541378  0  0.487357  0.208419  0  2.101112  0
Cu  Cu3  1  0.75108337  0.53412640  0.46620582  1  0.5416  0  0.48994  0.207483  0  2.117864  0
Cu  Cu4  1  0.78439640  0.53479313  0.56925544  1  0.542208  0  0.48797  0.20905  0  2.100789  0
Cu  Cu5  1  0.71593048  0.43138001  0.46567776  1  0.540126  0  0.486929  0.209331  0  2.097916  0
Cu  Cu6  1  0.56756619  0.28390008  0.03388281  1  0.542441  0  0.489509  0.207429  0  2.116861  0
Cu  Cu7  1  0.46526078  0.21502134  0.93094032  1  0.540989  0  0.487717  0.209093  0  2.101044  0
Cu  Cu8  1  0.46524273  0.25017743  0.03455212  1  0.538577  0  0.4875  0.20939  0  2.098195  0
Cu  Cu9  1  0.75037301  0.21653382  0.78425524  1  0.542102  0  0.489909  0.207477  0  2.119568  0
Cu  Cu10  1  0.71582832  0.28492629  0.75036029  1  0.540459  0  0.488048  0.209005  0  2.102653  0
Cu  Cu11  1  0.78422931  0.24973298  0.71517475  1  0.541919  0  0.487495  0.209152  0  2.099824  0
H  H12  1  0.85431181  0.84980830  0.65021673  1  0.111421  0  0.125012  0.118606  0  0.982548  0
H  H13  1  0.99342557  0.84746365  0.69674314  1  0.090666  0  0.124995  0.118952  0  0.981806  0
H  H14  1  0.99321886  0.14536561  0.79725339  1  0.113428  0  0.125042  0.118865  0  0.982136  0
H  H15  1  0.85416454  0.00425625  0.70245975  1  0.103391  0  0.1251  0.119077  0  0.982675  0
H  H16  1  0.15099454  0.00503663  0.80192055  1  0.097782  0  0.125129  0.119484  0  0.982338  0
H  H17  1  0.15076454  0.14513402  0.84916750  1  0.086234  0  0.12464  0.118522  0  0.981538  0
H  H18  1  0.80243257  0.65019759  0.50468780  1  0.11277  0  0.124933  0.118535  0  0.981981  0
H  H19  1  0.84780255  0.65233929  0.64602097  1  0.112617  0  0.124966  0.118795  0  0.982437  0
H  H20  1  0.65057722  0.35456941  0.34790263  1  0.091646  0  0.124821  0.118559  0  0.981273  0
H  H21  1  0.70022815  0.49568954  0.34997716  1  0.110837  0  0.125062  0.11922  0  0.982056  0
H  H22  1  0.79654425  0.49488340  0.64602649  1  0.133374  0  0.125227  0.119285  0  0.98213  0
H  H23  1  0.70376206  0.35473402  0.50579068  1  0.095887  0  0.124782  0.118654  0  0.981771  0
H  H24  1  0.64525695  0.29650203  0.99518351  1  0.131715  0  0.125094  0.119308  0  0.981601  0
H  H25  1  0.50605254  0.20252124  0.85399852  1  0.153781  0  0.125043  0.118883  0  0.982812  0
H  H26  1  0.50604950  0.30369559  0.15230440  1  0.108966  0  0.125132  0.119092  0  0.982132  0
H  H27  1  0.64521410  0.34922261  0.15011246  1  0.084466  0  0.125054  0.119069  0  0.980969  0
H  H28  1  0.34862881  0.15029987  0.85425216  1  0.118326  0  0.124766  0.118842  0  0.981712  0
H  H29  1  0.34845476  0.19781438  0.99451723  1  0.114749  0  0.125081  0.119296  0  0.981641  0
H  H30  1  0.69931681  0.20407398  0.84944204  1  0.096629  0  0.125008  0.118955  0  0.982039  0
H  H31  1  0.65091090  0.29695169  0.80318241  1  0.108039  0  0.125034  0.118959  0  0.982216  0
H  H32  1  0.84800016  0.19570697  0.70198907  1  0.119924  0  0.124954  0.118656  0  0.982451  0
H  H33  1  0.80143404  0.15135198  0.79677208  1  0.099387  0  0.125033  0.119178  0  0.981963  0
H  H34  1  0.70381176  0.34963467  0.69842617  1  0.117734  0  0.12493  0.119029  0  0.98141  0
H  H35  1  0.79653801  0.30201352  0.65074909  1  0.090268  0  0.125037  0.118897  0  0.982241  0
C  C36  1  0.89284638  0.85818779  0.66607649  1  0.415316  0  0.014914  -0.0479  0  3.927348  0
C  C37  1  0.91194888  0.82526072  0.66166519  1  0.130723  0  -0.030035  0.050123  0  4.199228  0
C  C38  1  0.96414107  0.85711424  0.68999048  1  0.419806  0  0.014635  -0.049261  0  3.928251  0
C  C39  1  0.96395786  0.10651252  0.77415958  1  0.451512  0  0.015026  -0.048968  0  3.92838  0
C  C40  1  0.91175772  0.08629130  0.74981148  1  0.039503  0  -0.030191  0.050616  0  4.199231  0
C  C41  1  0.89268673  0.03432597  0.72566460  1  0.469825  0  0.014361  -0.049822  0  3.930323  0
C  C42  1  0.14194159  0.03473025  0.80891873  1  0.437468  0  0.014044  -0.050605  0  3.929923  0
C  C43  1  0.17431957  0.08679607  0.83727183  1  0.136178  0  -0.030126  0.050385  0  4.201573  0
C  C44  1  0.14182799  0.10645032  0.83315879  1  0.412366  0  0.015069  -0.048463  0  3.927744  0
C  C45  1  0.80909286  0.64173902  0.53478696  1  0.43604  0  0.01438  -0.048673  0  3.927508  0
C  C46  1  0.83653161  0.67461442  0.58680764  1  0.07964  0  -0.029866  0.050316  0  4.201281  0
C  C47  1  0.83231773  0.64272609  0.60710793  1  0.443145  0  0.014974  -0.048964  0  3.928614  0
C  C48  1  0.66721000  0.39342133  0.35749368  1  0.423113  0  0.014937  -0.04809  0  3.927434  0
C  C49  1  0.66373427  0.41364168  0.32551511  1  0.121683  0  -0.029854  0.050488  0  4.198585  0
C  C50  1  0.69259120  0.46560797  0.35841563  1  0.413084  0  0.014491  -0.049392  0  3.928063  0
C  C51  1  0.77387440  0.46517756  0.60729109  1  0.324443  0  0.014155  -0.049846  0  3.928886  0
C  C52  1  0.75016822  0.41311542  0.58762761  1  0.22177  0  -0.029725  0.050669  0  4.199218  0
C  C53  1  0.72640646  0.39344215  0.53548432  1  0.400935  0  0.014439  -0.049017  0  3.927539  0
C  C54  1  0.60669000  0.27349724  0.96514437  1  0.381265  0  0.014441  -0.050173  0  3.929157  0
C  C55  1  0.58754924  0.24956021  0.91309634  1  0.182227  0  -0.029955  0.051115  0  4.199218  0
C  C56  1  0.53536089  0.22541158  0.89289482  1  0.331189  0  0.014522  -0.049419  0  3.92812  0
C  C57  1  0.53535601  0.31017210  0.14268868  1  0.381871  0  0.014147  -0.050277  0  3.928666  0
C  C58  1  0.58754842  0.33838140  0.17462816  1  0.180084  0  -0.02982  0.051342  0  4.19897  0
C  C59  1  0.60666776  0.33357579  0.14168222  1  0.434573  0  0.014386  -0.049844  0  3.927544  0
C  C60  1  0.35759552  0.16640604  0.89299185  1  0.393788  0  0.014671  -0.049049  0  3.92889  0
C  C61  1  0.32512638  0.16231973  0.91267321  1  0.095968  0  -0.030131  0.050245  0  4.199308  0
C  C62  1  0.35752693  0.19076886  0.96480952  1  0.373494  0  0.013993  -0.050346  0  3.930268  0
C  C63  1  0.69198185  0.22683870  0.83367176  1  0.441551  0  0.014472  -0.049283  0  3.9286  0
C  C64  1  0.66350073  0.25040813  0.83813106  1  0.145032  0  -0.029844  0.050501  0  4.200405  0
C  C65  1  0.66721777  0.27435595  0.80988900  1  0.412513  0  0.0146  -0.049284  0  3.928411  0
C  C66  1  0.83221700  0.18956737  0.72513284  1  0.382965  0  0.014853  -0.048718  0  3.928571  0
C  C67  1  0.83617804  0.16158892  0.74935059  1  0.149387  0  -0.030442  0.049826  0  4.201002  0
C  C68  1  0.80839190  0.16674754  0.77362052  1  0.434154  0  0.014519  -0.049933  0  3.929637  0
C  C69  1  0.72644462  0.33351711  0.69129127  1  0.396678  0  0.014401  -0.04937  0  3.928514  0
C  C70  1  0.75019736  0.33756612  0.66288993  1  0.136265  0  -0.029791  0.050211  0  4.200435  0
C  C71  1  0.77387703  0.30910003  0.66685011  1  0.441267  0  0.014425  -0.048983  0  3.92997  0
C  C72  1  0.86248023  0.72715898  0.61265003  1  -0.028848  0  -0.065187  -0.118062  0  4.204397  0
C  C73  1  0.88526454  0.77271649  0.63529684  1  -0.323491  0  -0.064828  -0.118012  0  4.204102  0
C  C74  1  0.63721541  0.25005769  0.86448948  1  -0.294118  0  -0.064762  -0.117598  0  4.204641  0
C  C75  1  0.61426777  0.24983976  0.88717710  1  -0.091094  0  -0.065003  -0.118284  0  4.204179  0
C  C76  1  0.86219258  0.13497869  0.74945039  1  -0.089185  0  -0.064552  -0.116883  0  4.204476  0
C  C77  1  0.88503242  0.11219197  0.74957753  1  -0.29351  0  -0.064886  -0.11877  0  4.204417  0
C  C78  1  0.61429685  0.36493122  0.22726433  1  -0.248312  0  -0.064688  -0.11739  0  4.20389  0
C  C79  1  0.63735663  0.38773569  0.27288070  1  -0.120493  0  -0.06519  -0.118893  0  4.204687  0
C  C80  1  0.27251502  0.13594662  0.88635901  1  0.076904  0  -0.064536  -0.116775  0  4.200481  0
C  C81  1  0.22692704  0.11310090  0.86358167  1  -0.353679  0  -0.064618  -0.117851  0  4.202244  0
C  C82  1  0.75021506  0.38679748  0.61392124  1  -0.120829  0  -0.064903  -0.117842  0  4.201885  0
C  C83  1  0.75023016  0.36394383  0.63665438  1  -0.276067  0  -0.064537  -0.117146  0  4.201543  0
N  N84  1  0.97497288  0.90504022  0.70958617  1  -0.763438  0  -0.335581  -0.13999  0  3.773274  0
N  N85  1  0.93077559  0.90566140  0.69471769  1  -0.768001  0  -0.337954  -0.140855  0  3.782392  0
N  N86  1  0.93064138  0.02470688  0.73504306  1  -0.778745  0  -0.337744  -0.140176  0  3.779935  0
N  N87  1  0.97481927  0.06941189  0.76506628  1  -0.752669  0  -0.335455  -0.13928  0  3.771828  0
N  N88  1  0.09409743  0.06895589  0.80466680  1  -0.762955  0  -0.336244  -0.141107  0  3.773234  0
N  N89  1  0.09416622  0.02449677  0.78961643  1  -0.771128  0  -0.335332  -0.139164  0  3.77203  0
N  N90  1  0.80462991  0.59482425  0.56999274  1  -0.777625  0  -0.335489  -0.139244  0  3.772111  0
N  N91  1  0.79022651  0.59424889  0.52520288  1  -0.771988  0  -0.337945  -0.14117  0  3.779482  0
N  N92  1  0.71156441  0.47521792  0.40598456  1  -0.775139  0  -0.337591  -0.13999  0  3.777893  0
N  N93  1  0.69583287  0.43051256  0.40545834  1  -0.764073  0  -0.335133  -0.14071  0  3.771743  0
N  N94  1  0.73540091  0.43091652  0.52521229  1  -0.776951  0  -0.33561  -0.141197  0  3.772805  0
N  N95  1  0.76479923  0.47538480  0.56973119  1  -0.746547  0  -0.335791  -0.13989  0  3.774666  0
N  N96  1  0.52456935  0.23442183  0.93008337  1  -0.754075  0  -0.335061  -0.139219  0  3.771971  0
N  N97  1  0.56878617  0.26419391  0.97483742  1  -0.778721  0  -0.337809  -0.140717  0  3.779853  0
N  N98  1  0.56875787  0.30483544  0.09412799  1  -0.76814  0  -0.337629  -0.140308  0  3.780936  0
N  N99  1  0.52454800  0.29027904  0.09470981  1  -0.759993  0  -0.33514  -0.139663  0  3.772946  0
N  N100  1  0.40530014  0.21011065  0.97505688  1  -0.777124  0  -0.335405  -0.140091  0  3.775248  0
N  N101  1  0.40533524  0.19497015  0.93053060  1  -0.766293  0  -0.336092  -0.141185  0  3.777304  0
N  N102  1  0.69562173  0.26558837  0.79030735  1  -0.780834  0  -0.335194  -0.139493  0  3.774723  0
N  N103  1  0.71096941  0.23616986  0.80508327  1  -0.767914  0  -0.338257  -0.140834  0  3.781985  0
N  N104  1  0.78956812  0.19548226  0.76443332  1  -0.772404  0  -0.338088  -0.1408  0  3.78102  0
N  N105  1  0.80433758  0.20967134  0.73441480  1  -0.760433  0  -0.335025  -0.139184  0  3.771674  0
N  N106  1  0.76478189  0.28977828  0.69528645  1  -0.766519  0  -0.336098  -0.141176  0  3.774898  0
N  N107  1  0.73540904  0.30494554  0.71046174  1  -0.753009  0  -0.335935  -0.140282  0  3.775478  0
