# generated using pymatgen
data_KCuH6(C5N3)2
_symmetry_space_group_name_H-M   'P 1'
_cell_length_a   8.05393725
_cell_length_b   8.66172975
_cell_length_c   17.20010018
_cell_angle_alpha   90.00039341
_cell_angle_beta   90.00022584
_cell_angle_gamma   107.91250624
_symmetry_Int_Tables_number   1
_chemical_formula_structural   KCuH6(C5N3)2
_chemical_formula_sum   'K4 Cu4 H24 C40 N24'
_cell_volume   1141.73442928
_cell_formula_units_Z   4
loop_
 _symmetry_equiv_pos_site_id
 _symmetry_equiv_pos_as_xyz
  1  'x, y, z'
loop_
 _atom_site_type_symbol
 _atom_site_label
 _atom_site_symmetry_multiplicity
 _atom_site_fract_x
 _atom_site_fract_y
 _atom_site_fract_z
 _atom_site_occupancy
 _atom_site_hle17_bader_spin_density
 _atom_site_hle17_ddec_charge
 _atom_site_hle17_ddec_spin_density
 _atom_site_hle17_ddec_sum_bond_order
 _atom_site_hle17_magmom
 _atom_site_hse06_10hf_bader_spin_density
 _atom_site_hse06_10hf_ddec_charge
 _atom_site_hse06_10hf_ddec_spin_density
 _atom_site_hse06_10hf_ddec_sum_bond_order
 _atom_site_hse06_10hf_magmom
 _atom_site_hse06_bader_spin_density
 _atom_site_hse06_ddec_charge
 _atom_site_hse06_ddec_spin_density
 _atom_site_hse06_ddec_sum_bond_order
 _atom_site_hse06_magmom
 _atom_site_pbe_bader_spin_density
 _atom_site_pbe_cm5_charge
 _atom_site_pbe_ddec_charge
 _atom_site_pbe_ddec_spin_density
 _atom_site_pbe_ddec_sum_bond_order
 _atom_site_pbe_magmom
K  K0  1  0.83405605  0.71759537  0.19418345  1  0  0.890862  0  0.462366  0  0  0.822396  0  0.658267  0  0  0.835822  0  0.640947  0  0  0.73296  0.812523  0  0.670541  0
K  K1  1  0.33405172  0.71760751  0.30581722  1  0  0.890856  0  0.462368  0  0  0.822378  0  0.658297  0  0  0.835802  0  0.640976  0  0  0.732974  0.812499  0  0.67057  0
K  K2  1  0.16595807  0.28239302  0.80582037  1  0  0.890891  0  0.462305  0  0  0.822409  0  0.658234  0  0  0.835835  0  0.640916  0  0  0.732975  0.812525  0  0.670509  0
K  K3  1  0.66595856  0.28238814  0.69418137  1  0  0.890888  0  0.462314  0  0  0.822402  0  0.658253  0  0  0.835826  0  0.640931  0  0  0.732993  0.812516  0  0.670527  0
Cu  Cu4  1  0.86413589  0.22551100  0.16524210  1  0  0.276522  0  2.560732  0  0  0.19343  0  3.063886  0  0  0.167656  0  3.03761  0  0  0.472168  0.214261  0  3.077582  0
Cu  Cu5  1  0.36414570  0.22552005  0.33476273  1  0  0.276584  0  2.560704  0  0  0.193487  0  3.063847  0  0  0.167731  0  3.03754  0  0  0.472219  0.214321  0  3.077536  0
Cu  Cu6  1  0.13586186  0.77449189  0.83476056  1  0  0.276595  0  2.560695  0  0  0.193545  0  3.063828  0  0  0.167801  0  3.037561  0  0  0.472246  0.214378  0  3.0775  0
Cu  Cu7  1  0.63586970  0.77449501  0.66523934  1  0  0.27658  0  2.560564  0  0  0.193501  0  3.063704  0  0  0.167733  0  3.0374  0  0  0.472239  0.214336  0  3.077371  0
H  H8  1  0.77920369  0.42679804  0.84372097  1  0  0.077363  0  0.948973  0  0  0.08527  0  1.014866  0  0  0.088588  0  1.01141  0  0  0.122047  0.082766  0  1.017385  0
H  H9  1  0.27920108  0.42680029  0.65628323  1  0  0.077278  0  0.948918  0  0  0.085164  0  1.014839  0  0  0.088499  0  1.011383  0  0  0.122044  0.082663  0  1.017358  0
H  H10  1  0.22079784  0.57320122  0.15627936  1  0  0.077389  0  0.948977  0  0  0.085287  0  1.014859  0  0  0.088593  0  1.011431  0  0  0.122047  0.082781  0  1.017381  0
H  H11  1  0.72080408  0.57320626  0.34371711  1  0  0.077343  0  0.9489  0  0  0.085227  0  1.014824  0  0  0.088558  0  1.01138  0  0  0.122058  0.082722  0  1.017346  0
H  H12  1  0.56509842  0.46096652  0.94095806  1  0  0.120466  0  0.958434  0  0  0.129426  0  1.020121  0  0  0.133004  0  1.019079  0  0  0.116412  0.126858  0  1.021116  0
H  H13  1  0.06509781  0.46096221  0.55904295  1  0  0.120459  0  0.958477  0  0  0.12945  0  1.020135  0  0  0.133029  0  1.019088  0  0  0.116409  0.126884  0  1.021131  0
H  H14  1  0.43489854  0.53903394  0.05903937  1  0  0.120419  0  0.958417  0  0  0.129398  0  1.020094  0  0  0.132976  0  1.01905  0  0  0.116396  0.126832  0  1.021084  0
H  H15  1  0.93489806  0.53902734  0.44095738  1  0  0.120494  0  0.958431  0  0  0.129445  0  1.020122  0  0  0.133024  0  1.019077  0  0  0.116407  0.126878  0  1.021117  0
H  H16  1  0.60802776  0.38740566  0.08348157  1  0  0.088236  0  0.959596  0  0  0.094122  0  1.028195  0  0  0.098034  0  1.024261  0  0  0.120945  0.091184  0  1.031189  0
H  H17  1  0.10803718  0.38740766  0.41651986  1  0  0.088118  0  0.959758  0  0  0.094046  0  1.028297  0  0  0.097945  0  1.024393  0  0  0.120906  0.091112  0  1.031289  0
H  H18  1  0.39196383  0.61259357  0.91651702  1  0  0.088198  0  0.959679  0  0  0.094117  0  1.028232  0  0  0.09802  0  1.02432  0  0  0.120929  0.091185  0  1.031223  0
H  H19  1  0.89196400  0.61258675  0.58347989  1  0  0.0882  0  0.959705  0  0  0.094093  0  1.02829  0  0  0.097996  0  1.024376  0  0  0.120917  0.091158  0  1.031279  0
H  H20  1  0.37771055  0.10295904  0.94928221  1  0  0.078994  0  0.955095  0  0  0.088053  0  1.018352  0  0  0.090588  0  1.016394  0  0  0.115324  0.086178  0  1.019746  0
H  H21  1  0.87772452  0.10296865  0.55071872  1  0  0.079009  0  0.95518  0  0  0.088085  0  1.018411  0  0  0.09062  0  1.016454  0  0  0.115351  0.086213  0  1.019806  0
H  H22  1  0.62227458  0.89702805  0.05072045  1  0  0.079024  0  0.955128  0  0  0.088073  0  1.018392  0  0  0.090608  0  1.016434  0  0  0.115329  0.086197  0  1.01979  0
H  H23  1  0.12228655  0.89702943  0.44927696  1  0  0.078918  0  0.955114  0  0  0.087995  0  1.018379  0  0  0.090529  0  1.016422  0  0  0.115303  0.08612  0  1.019775  0
H  H24  1  0.41127451  0.04656007  0.09428887  1  0  0.127062  0  0.948983  0  0  0.138304  0  1.00346  0  0  0.141291  0  1.003854  0  0  0.114808  0.13611  0  1.003471  0
H  H25  1  0.91128566  0.04657470  0.40571194  1  0  0.127202  0  0.949032  0  0  0.138489  0  1.003423  0  0  0.141477  0  1.003812  0  0  0.114838  0.136284  0  1.00345  0
H  H26  1  0.58870813  0.95342702  0.90571495  1  0  0.127164  0  0.94903  0  0  0.138466  0  1.003405  0  0  0.141454  0  1.003793  0  0  0.114819  0.136249  0  1.003443  0
H  H27  1  0.08871508  0.95342214  0.59428258  1  0  0.127083  0  0.948988  0  0  0.138355  0  1.003411  0  0  0.141361  0  1.003778  0  0  0.114808  0.136107  0  1.003487  0
H  H28  1  0.19715871  0.10722641  0.18629638  1  0  0.086863  0  0.979869  0  0  0.095833  0  1.043144  0  0  0.098948  0  1.039707  0  0  0.120517  0.093396  0  1.045797  0
H  H29  1  0.69716771  0.10724063  0.31370540  1  0  0.086881  0  0.979747  0  0  0.095942  0  1.042946  0  0  0.099059  0  1.039506  0  0  0.120548  0.093495  0  1.045589  0
H  H30  1  0.80282592  0.89276674  0.81370628  1  0  0.086869  0  0.979745  0  0  0.095945  0  1.042936  0  0  0.099065  0  1.039497  0  0  0.120514  0.093495  0  1.045578  0
H  H31  1  0.30283576  0.89276834  0.68629144  1  0  0.086697  0  0.979876  0  0  0.095798  0  1.043055  0  0  0.098912  0  1.039615  0  0  0.120472  0.093356  0  1.045699  0
C  C32  1  0.68303498  0.02961812  0.18558158  1  0  -0.10573  0  3.591427  0  0  -0.111002  0  3.971815  0  0  -0.092854  0  3.968874  0  0  -0.066417  -0.123621  0  3.972412  0
C  C33  1  0.18304704  0.02962319  0.31442165  1  0  -0.105584  0  3.591682  0  0  -0.110838  0  3.972024  0  0  -0.092696  0  3.969088  0  0  -0.06636  -0.123459  0  3.972622  0
C  C34  1  0.31695820  0.97038596  0.81441933  1  0  -0.10563  0  3.591298  0  0  -0.110892  0  3.971652  0  0  -0.092755  0  3.968728  0  0  -0.066321  -0.123514  0  3.972237  0
C  C35  1  0.81697423  0.97038704  0.68557811  1  0  -0.105662  0  3.591288  0  0  -0.110927  0  3.971658  0  0  -0.09278  0  3.968719  0  0  -0.06636  -0.123539  0  3.972226  0
C  C36  1  0.95022083  0.38067574  0.24523907  1  0  -0.101311  0  3.572431  0  0  -0.106236  0  3.952162  0  0  -0.088166  0  3.952903  0  0  -0.063547  -0.118862  0  3.950233  0
C  C37  1  0.45022295  0.38067852  0.25476413  1  0  -0.101266  0  3.572283  0  0  -0.10618  0  3.951987  0  0  -0.088111  0  3.952735  0  0  -0.06348  -0.118808  0  3.950055  0
C  C38  1  0.04978224  0.61933201  0.75476301  1  0  -0.101445  0  3.57232  0  0  -0.106385  0  3.952066  0  0  -0.088328  0  3.952827  0  0  -0.063555  -0.119016  0  3.950128  0
C  C39  1  0.54978584  0.61933531  0.74523736  1  0  -0.101357  0  3.572195  0  0  -0.106275  0  3.951912  0  0  -0.088205  0  3.952657  0  0  -0.063501  -0.118902  0  3.949967  0
C  C40  1  0.92294394  0.28670264  0.99741125  1  0  0.285341  0  3.752247  0  0  0.266601  0  4.008483  0  0  0.278017  0  4.021917  0  0  0.237556  0.259114  0  3.999445  0
C  C41  1  0.42295431  0.28671434  0.50259157  1  0  0.285357  0  3.752118  0  0  0.266672  0  4.008392  0  0  0.278085  0  4.02182  0  0  0.237576  0.259184  0  3.999354  0
C  C42  1  0.07704363  0.71328809  0.00258909  1  0  0.285436  0  3.752003  0  0  0.266571  0  4.008529  0  0  0.277992  0  4.021957  0  0  0.237527  0.259084  0  3.999489  0
C  C43  1  0.57705707  0.71329222  0.49740876  1  0  0.28543  0  3.752199  0  0  0.266666  0  4.008496  0  0  0.278077  0  4.021926  0  0  0.237592  0.259176  0  3.999455  0
C  C44  1  0.78545648  0.38903355  0.90382405  1  0  0.185926  0  3.680004  0  0  0.151844  0  3.945334  0  0  0.163753  0  3.955629  0  0  0.074173  0.144063  0  3.938477  0
C  C45  1  0.28545878  0.38903718  0.59618003  1  0  0.186027  0  3.679765  0  0  0.15194  0  3.945139  0  0  0.163824  0  3.955415  0  0  0.074151  0.144157  0  3.938285  0
C  C46  1  0.21453804  0.61096327  0.09617570  1  0  0.185884  0  3.680085  0  0  0.151852  0  3.945361  0  0  0.163759  0  3.955646  0  0  0.074136  0.144068  0  3.938508  0
C  C47  1  0.71454514  0.61096936  0.40382089  1  0  0.185892  0  3.679802  0  0  0.151817  0  3.94514  0  0  0.163698  0  3.955416  0  0  0.074116  0.144037  0  3.938288  0
C  C48  1  0.66814951  0.41197046  0.95903994  1  0  -0.154  0  3.683313  0  0  -0.166441  0  3.934632  0  0  -0.175734  0  3.954483  0  0  -0.072747  -0.160857  0  3.921737  0
C  C49  1  0.16814899  0.41197069  0.54096168  1  0  -0.154007  0  3.683159  0  0  -0.166466  0  3.934478  0  0  -0.175754  0  3.954329  0  0  -0.072754  -0.160886  0  3.921588  0
C  C50  1  0.33184744  0.58803000  0.04095865  1  0  -0.153965  0  3.683305  0  0  -0.166436  0  3.934618  0  0  -0.175723  0  3.954462  0  0  -0.072729  -0.160856  0  3.921727  0
C  C51  1  0.83184965  0.58802736  0.45903924  1  0  -0.154034  0  3.683144  0  0  -0.166457  0  3.934449  0  0  -0.175744  0  3.954303  0  0  -0.072761  -0.160877  0  3.921558  0
C  C52  1  0.69027150  0.37070104  0.03554817  1  0  0.152755  0  3.662911  0  0  0.11977  0  3.919677  0  0  0.127937  0  3.931954  0  0  0.063006  0.114667  0  3.91165  0
C  C53  1  0.19027787  0.37070388  0.46445393  1  0  0.152887  0  3.662997  0  0  0.119857  0  3.919779  0  0  0.128021  0  3.932054  0  0  0.06305  0.114751  0  3.911754  0
C  C54  1  0.30972093  0.62929698  0.96445042  1  0  0.152828  0  3.663044  0  0  0.119824  0  3.919794  0  0  0.12799  0  3.93207  0  0  0.063032  0.114713  0  3.91177  0
C  C55  1  0.80972783  0.62929297  0.53554815  1  0  0.1528  0  3.662978  0  0  0.119802  0  3.919767  0  0  0.127967  0  3.932037  0  0  0.063037  0.114697  0  3.911737  0
C  C56  1  0.06075530  0.21667991  0.02192589  1  0  0.284919  0  3.76805  0  0  0.266356  0  4.025039  0  0  0.277507  0  4.038773  0  0  0.238349  0.25909  0  4.015801  0
C  C57  1  0.56077000  0.21669218  0.47807835  1  0  0.285116  0  3.767848  0  0  0.26627  0  4.025225  0  0  0.277416  0  4.038962  0  0  0.238243  0.259003  0  4.015988  0
C  C58  1  0.93923023  0.78330840  0.97807445  1  0  0.284948  0  3.767962  0  0  0.266303  0  4.025178  0  0  0.277451  0  4.038916  0  0  0.238253  0.259031  0  4.015938  0
C  C59  1  0.43924386  0.78331439  0.52192257  1  0  0.284992  0  3.767882  0  0  0.266384  0  4.024909  0  0  0.277536  0  4.03864  0  0  0.238314  0.259122  0  4.015677  0
C  C60  1  0.29240626  0.12660341  0.99397726  1  0  0.159875  0  3.707741  0  0  0.128323  0  3.970246  0  0  0.137991  0  3.984769  0  0  0.056927  0.122094  0  3.960414  0
C  C61  1  0.79241791  0.12661466  0.50602592  1  0  0.159898  0  3.707954  0  0  0.128338  0  3.970467  0  0  0.138007  0  3.984991  0  0  0.056909  0.122109  0  3.960636  0
C  C62  1  0.70757971  0.87338247  0.00602598  1  0  0.159871  0  3.708009  0  0  0.128323  0  3.970538  0  0  0.137989  0  3.985064  0  0  0.056905  0.122094  0  3.960705  0
C  C63  1  0.20759272  0.87338585  0.49397035  1  0  0.159968  0  3.70808  0  0  0.128342  0  3.970688  0  0  0.13801  0  3.985219  0  0  0.056865  0.122115  0  3.960844  0
C  C64  1  0.30964198  0.09429978  0.07255817  1  0  -0.156024  0  3.669419  0  0  -0.165042  0  3.913406  0  0  -0.174607  0  3.933937  0  0  -0.073628  -0.159268  0  3.900127  0
C  C65  1  0.80965761  0.09431238  0.42744262  1  0  -0.156339  0  3.66941  0  0  -0.1654  0  3.913421  0  0  -0.174964  0  3.933949  0  0  -0.073746  -0.159618  0  3.90015  0
C  C66  1  0.69033981  0.90568851  0.92744391  1  0  -0.15629  0  3.669489  0  0  -0.165337  0  3.913472  0  0  -0.1749  0  3.934002  0  0  -0.073701  -0.159547  0  3.900199  0
C  C67  1  0.19035053  0.90568811  0.57255365  1  0  -0.156152  0  3.669298  0  0  -0.165131  0  3.913272  0  0  -0.174711  0  3.93379  0  0  -0.073623  -0.15932  0  3.900019  0
C  C68  1  0.19180478  0.12742406  0.12397235  1  0  0.190723  0  3.619087  0  0  0.159059  0  3.863521  0  0  0.168336  0  3.875821  0  0  0.076788  0.153107  0  3.855691  0
C  C69  1  0.69181590  0.12743938  0.37603007  1  0  0.190866  0  3.618733  0  0  0.159104  0  3.863234  0  0  0.1684  0  3.875483  0  0  0.076828  0.153174  0  3.855387  0
C  C70  1  0.80817990  0.87256546  0.87602914  1  0  0.190828  0  3.618935  0  0  0.159048  0  3.863476  0  0  0.168341  0  3.875729  0  0  0.076825  0.153107  0  3.855624  0
C  C71  1  0.30819462  0.87256840  0.62396794  1  0  0.191015  0  3.618931  0  0  0.159176  0  3.863437  0  0  0.168458  0  3.875734  0  0  0.076922  0.153247  0  3.855582  0
N  N72  1  0.00732379  0.47382651  0.29595318  1  0  -0.538735  0  2.915553  0  0  -0.484221  0  3.179698  0  0  -0.50751  0  3.194462  0  0  -0.484983  -0.467726  0  3.169084  0
N  N73  1  0.50732692  0.47382182  0.20404778  1  0  -0.538778  0  2.915441  0  0  -0.484268  0  3.179579  0  0  -0.507561  0  3.194342  0  0  -0.485058  -0.467771  0  3.168964  0
N  N74  1  0.99267510  0.52618365  0.70404832  1  0  -0.538635  0  2.915335  0  0  -0.484113  0  3.179464  0  0  -0.507406  0  3.194246  0  0  -0.48501  -0.467621  0  3.168848  0
N  N75  1  0.49268272  0.52619080  0.79595313  1  0  -0.538712  0  2.915333  0  0  -0.484202  0  3.179462  0  0  -0.5075  0  3.194235  0  0  -0.485037  -0.467706  0  3.168844  0
N  N76  1  0.81837573  0.30833594  0.05536028  1  0  -0.310787  0  3.255755  0  0  -0.253417  0  3.541095  0  0  -0.259879  0  3.546648  0  0  -0.33344  -0.249872  0  3.537009  0
N  N77  1  0.31838545  0.30834571  0.44464301  1  0  -0.310829  0  3.255675  0  0  -0.253397  0  3.540942  0  0  -0.25986  0  3.546509  0  0  -0.333414  -0.249851  0  3.536854  0
N  N78  1  0.18161511  0.69165723  0.94463947  1  0  -0.310862  0  3.2557  0  0  -0.253439  0  3.541075  0  0  -0.259909  0  3.546644  0  0  -0.333441  -0.249895  0  3.536986  0
N  N79  1  0.68162224  0.69165721  0.55535790  1  0  -0.310803  0  3.255676  0  0  -0.253435  0  3.541046  0  0  -0.259897  0  3.546604  0  0  -0.333433  -0.249887  0  3.53695  0
N  N80  1  0.91219936  0.32537827  0.92239837  1  0  -0.392629  0  3.077127  0  0  -0.353372  0  3.345044  0  0  -0.366957  0  3.357257  0  0  -0.351532  -0.344486  0  3.336917  0
N  N81  1  0.41220338  0.32538764  0.57760689  1  0  -0.392746  0  3.077189  0  0  -0.353459  0  3.345058  0  0  -0.367037  0  3.357277  0  0  -0.35156  -0.344571  0  3.336932  0
N  N82  1  0.08779442  0.67461248  0.07760138  1  0  -0.392697  0  3.077134  0  0  -0.353384  0  3.345038  0  0  -0.366965  0  3.357245  0  0  -0.351509  -0.344506  0  3.336917  0
N  N83  1  0.58780461  0.67462376  0.42239519  1  0  -0.392667  0  3.077107  0  0  -0.353386  0  3.345012  0  0  -0.366966  0  3.357236  0  0  -0.351548  -0.344505  0  3.33689  0
N  N84  1  0.06467348  0.18603936  0.09891434  1  0  -0.311283  0  3.250081  0  0  -0.253834  0  3.534645  0  0  -0.261002  0  3.540311  0  0  -0.331165  -0.249947  0  3.530712  0
N  N85  1  0.56468829  0.18605392  0.40108979  1  0  -0.311482  0  3.249984  0  0  -0.253941  0  3.534676  0  0  -0.261103  0  3.540345  0  0  -0.331196  -0.250055  0  3.530739  0
N  N86  1  0.93530951  0.81395257  0.90108715  1  0  -0.311353  0  3.250105  0  0  -0.25392  0  3.534823  0  0  -0.261091  0  3.540507  0  0  -0.331162  -0.250015  0  3.53086  0
N  N87  1  0.43532174  0.81395991  0.59891054  1  0  -0.311392  0  3.249806  0  0  -0.253898  0  3.534463  0  0  -0.261065  0  3.540127  0  0  -0.331241  -0.250031  0  3.530545  0
N  N88  1  0.16956222  0.18958071  0.96840706  1  0  -0.396527  0  3.088624  0  0  -0.359131  0  3.36054  0  0  -0.373239  0  3.374783  0  0  -0.369354  -0.349852  0  3.351002  0
N  N89  1  0.66957717  0.18958999  0.53159553  1  0  -0.39653  0  3.088927  0  0  -0.359035  0  3.360935  0  0  -0.373143  0  3.375181  0  0  -0.369253  -0.349755  0  3.351396  0
N  N90  1  0.83042251  0.81040517  0.03159444  1  0  -0.39648  0  3.088831  0  0  -0.359047  0  3.360816  0  0  -0.373155  0  3.375064  0  0  -0.369245  -0.349776  0  3.351284  0
N  N91  1  0.33043674  0.81041295  0.46840364  1  0  -0.396544  0  3.089048  0  0  -0.359104  0  3.360989  0  0  -0.373212  0  3.375232  0  0  -0.369253  -0.349828  0  3.351452  0
N  N92  1  0.57082476  0.90817569  0.19939513  1  0  -0.538867  0  2.880335  0  0  -0.486088  0  3.140532  0  0  -0.507523  0  3.152235  0  0  -0.51515  -0.470899  0  3.131957  0
N  N93  1  0.07083031  0.90818777  0.30060280  1  0  -0.539032  0  2.880654  0  0  -0.486257  0  3.140826  0  0  -0.507689  0  3.152525  0  0  -0.515217  -0.471075  0  3.132273  0
N  N94  1  0.42916847  0.09182476  0.80060113  1  0  -0.538968  0  2.880303  0  0  -0.486196  0  3.140513  0  0  -0.507627  0  3.152216  0  0  -0.51531  -0.471013  0  3.131946  0
N  N95  1  0.92918131  0.09183092  0.69939405  1  0  -0.538956  0  2.880278  0  0  -0.486181  0  3.140497  0  0  -0.507616  0  3.152204  0  0  -0.515264  -0.470991  0  3.131913  0
