# generated using pymatgen
data_CoH24C30(NO2)3
_symmetry_space_group_name_H-M   'P 1'
_cell_length_a   11.26456429
_cell_length_b   13.62879734
_cell_length_c   14.73740765
_cell_angle_alpha   86.87326368
_cell_angle_beta   71.38294791
_cell_angle_gamma   74.17503534
_symmetry_Int_Tables_number   1
_chemical_formula_structural   CoH24C30(NO2)3
_chemical_formula_sum   'Co2 H48 C60 N6 O12'
_cell_volume   2061.55692021
_cell_formula_units_Z   2
loop_
 _symmetry_equiv_pos_site_id
 _symmetry_equiv_pos_as_xyz
  1  'x, y, z'
loop_
 _atom_site_type_symbol
 _atom_site_label
 _atom_site_symmetry_multiplicity
 _atom_site_fract_x
 _atom_site_fract_y
 _atom_site_fract_z
 _atom_site_occupancy
 _atom_site_pbe_bader_charge
 _atom_site_pbe_bader_spin_density
 _atom_site_pbe_cm5_charge
 _atom_site_pbe_ddec_charge
 _atom_site_pbe_ddec_spin_density
 _atom_site_pbe_ddec_sum_bond_order
 _atom_site_pbe_magmom
Co  Co0  1  0.49999997  0.99999956  0.99999783  1  1.32699  2.645157  0.690081  0.972392  2.869691  2.498387  2.629
Co  Co1  1  0.50000278  0.50000072  0.99999995  1  1.300874  2.633739  0.661603  0.925669  2.846498  2.420405  2.616
H  H2  1  0.36538215  0.21475709  0.28392901  1  0.097491  1.1e-05  0.106646  0.110716  -4e-05  0.995962  0.0
H  H3  1  0.63461982  0.78524747  0.71607152  1  0.097532  1.1e-05  0.106662  0.110745  -4e-05  0.995949  0.0
H  H4  1  0.46523147  0.10712654  0.39772792  1  0.100565  0.000109  0.103121  0.112552  4.5e-05  1.023273  0.0
H  H5  1  0.53476857  0.89288114  0.60227765  1  0.100688  0.000109  0.103156  0.112606  4.5e-05  1.023162  0.0
H  H6  1  0.80471476  0.21871705  0.28606949  1  0.063787  3.1e-05  0.105553  0.112698  2.3e-05  0.991526  0.0
H  H7  1  0.19529663  0.78127593  0.71391922  1  0.063753  3.1e-05  0.105552  0.112726  2.3e-05  0.991564  0.0
H  H8  1  0.70111724  0.32981365  0.17514664  1  0.077877  0.000324  0.111235  0.120773  0.000147  0.981857  0.0
H  H9  1  0.29888923  0.67018012  0.82484530  1  0.077485  0.000324  0.111228  0.120757  0.000147  0.981869  0.0
H  H10  1  0.42677409  0.25649094  0.69113825  1  0.065093  -5e-06  0.102739  0.105444  -2.6e-05  0.996325  0.0
H  H11  1  0.57322079  0.74351729  0.30885298  1  0.065284  -5e-06  0.102733  0.105465  -2.6e-05  0.996237  0.0
H  H12  1  0.51507086  0.24547020  0.51347513  1  0.081288  0.000141  0.100493  0.111536  6.5e-05  1.013216  0.0
H  H13  1  0.48492339  0.75454263  0.48651732  1  0.081489  0.000141  0.100575  0.111675  6.5e-05  1.013222  0.0
H  H14  1  0.77519707  0.95052360  0.52842645  1  0.054294  -7e-06  0.098162  0.108099  -4e-06  1.020053  0.0
H  H15  1  0.22479571  0.04948859  0.47157592  1  0.05411  -7e-06  0.098258  0.108221  -4e-06  1.020114  0.0
H  H16  1  0.68421034  0.96422084  0.70571504  1  0.078708  0.000325  0.101852  0.104249  0.000177  1.008082  0.0
H  H17  1  0.31577975  0.03579361  0.29428583  1  0.078241  0.000325  0.101922  0.104387  0.000177  1.008053  0.0
H  H18  1  0.23428024  0.51230043  0.14885311  1  0.10923  0.001647  0.120633  0.094757  0.000373  1.000045  0.001
H  H19  1  0.76573463  0.48769433  0.85115360  1  0.10941  0.001648  0.120572  0.094728  0.000373  0.999945  0.001
H  H20  1  0.04299538  0.64460479  0.24729429  1  0.105736  0.000908  0.109316  0.115899  0.000417  0.992845  0.0
H  H21  1  0.95701221  0.35537853  0.75271568  1  0.105785  0.000908  0.109269  0.115913  0.000417  0.992829  0.0
H  H22  1  0.27013913  0.86229310  0.15437035  1  0.102164  0.000479  0.106537  0.11521  4e-05  1.041964  0.0
H  H23  1  0.72984725  0.13770544  0.84564199  1  0.102627  0.000478  0.10664  0.115395  3.9e-05  1.041871  0.0
H  H24  1  0.44570383  0.72476793  0.05384762  1  0.100114  0.001438  0.114856  0.072594  0.000198  1.050605  0.001
H  H25  1  0.55428039  0.27523667  0.94616148  1  0.100445  0.001439  0.114836  0.07254  0.000198  1.050476  0.001
H  H26  1  0.88768550  0.80044753  0.21499810  1  0.084794  3.3e-05  0.10927  0.112895  3e-06  0.988152  0.0
H  H27  1  0.11230473  0.19954795  0.78501278  1  0.084808  3.3e-05  0.109316  0.112957  3e-06  0.988135  0.0
H  H28  1  0.69954827  0.94165359  0.30139309  1  0.07725  -5.5e-05  0.108423  0.120583  -5.9e-05  1.002952  0.0
H  H29  1  0.30044847  0.05834717  0.69861037  1  0.077259  -5.5e-05  0.108411  0.12057  -5.9e-05  1.00295  0.0
H  H30  1  0.94983172  0.05962602  0.40773429  1  0.076952  0.0  0.107593  0.117955  4e-06  0.986805  0.0
H  H31  1  0.05016996  0.94037928  0.59226491  1  0.07704  0.0  0.107578  0.117927  4e-06  0.986918  0.0
H  H32  1  0.13949147  0.91831116  0.32080346  1  0.081333  3e-06  0.101566  0.105102  -1.8e-05  1.025709  0.0
H  H33  1  0.86050336  0.08168424  0.67920015  1  0.081265  3e-06  0.101587  0.105102  -1.8e-05  1.025581  0.0
H  H34  1  0.23362695  0.06096882  0.13417286  1  0.109153  0.00157  0.119229  0.094656  0.000449  0.996823  0.001
H  H35  1  0.76637842  0.93902580  0.86582609  1  0.109085  0.001569  0.119183  0.094616  0.000449  0.99686  0.001
H  H36  1  0.00798840  0.06964422  0.14205065  1  0.061635  0.000886  0.10441  0.10904  0.000409  1.024053  0.0
H  H37  1  0.99201695  0.93033445  0.85795476  1  0.061567  0.000887  0.10443  0.109044  0.000409  1.024157  0.0
H  H38  1  0.16957867  0.92252651  0.85918478  1  0.076677  0.000859  0.098577  0.09823  0.0004  1.063651  0.0
H  H39  1  0.83041895  0.07747418  0.14081371  1  0.076482  0.000859  0.098577  0.098215  0.0004  1.063669  0.0
H  H40  1  0.38665559  0.92004279  0.86525244  1  0.106068  0.001442  0.114975  0.08534  0.000156  1.020602  0.001
H  H41  1  0.61334422  0.07995404  0.13474167  1  0.106092  0.001442  0.114981  0.085286  0.000156  1.020547  0.001
H  H42  1  0.60071816  0.79312145  0.92102647  1  0.646026  0.001898  0.287285  0.387702  0.001264  0.949314  0.003
H  H43  1  0.39929191  0.20687319  0.07897265  1  0.64595  0.001898  0.287285  0.387652  0.001264  0.949396  0.003
H  H44  1  0.60580783  0.81890225  0.02776133  1  0.647873  0.000287  0.278777  0.368784  0.000144  0.986317  0.001
H  H45  1  0.39418486  0.18109392  0.97224277  1  0.647952  0.000287  0.278781  0.36876  0.000144  0.986364  0.001
H  H46  1  0.64769012  0.61760477  0.95649911  1  0.639413  0.000309  0.284581  0.366798  0.000369  0.988082  0.001
H  H47  1  0.35231540  0.38240277  0.04349490  1  0.63919  0.000309  0.284593  0.366816  0.00037  0.988079  0.001
H  H48  1  0.62558984  0.61105373  0.06982577  1  0.626086  0.000601  0.322555  0.41218  0.000304  0.870853  0.001
H  H49  1  0.37440688  0.38895763  0.93017090  1  0.626111  0.000601  0.322588  0.411558  0.000304  0.870584  0.001
C  C50  1  0.47037214  0.34181968  0.15302074  1  1.578071  -0.00367  0.212791  0.574707  -0.004778  4.194839  -0.002
C  C51  1  0.52963614  0.65818250  0.84697156  1  1.577937  -0.003672  0.212863  0.57474  -0.00478  4.194721  -0.002
C  C52  1  0.52715717  0.27920523  0.22332372  1  -0.099829  0.004734  -0.021327  -0.04934  0.002302  3.984923  0.004
C  C53  1  0.47284612  0.72080084  0.77667502  1  -0.099825  0.004733  -0.02138  -0.049414  0.002301  3.984946  0.004
C  C54  1  0.46041756  0.21675294  0.28636438  1  0.017636  -0.000801  -0.081746  -0.083534  -0.001084  3.975498  0.0
C  C55  1  0.53958301  0.78325005  0.71363321  1  0.017457  -0.000802  -0.081799  -0.083655  -0.001085  3.975553  0.0
C  C56  1  0.51619613  0.15653673  0.34939454  1  -0.065987  0.000798  -0.089874  -0.16472  0.000353  3.974912  0.001
C  C57  1  0.48380152  0.84346932  0.65060427  1  -0.066109  0.000799  -0.089888  -0.164686  0.000353  3.974744  0.001
C  C58  1  0.64095753  0.15657057  0.34848821  1  0.295699  -0.00169  0.093121  0.182442  -0.001881  4.033295  -0.001
C  C59  1  0.35904170  0.84343089  0.65150983  1  0.295252  -0.001691  0.093148  0.182509  -0.001881  4.033181  -0.001
C  C60  1  0.70793927  0.21895915  0.28570106  1  -0.013243  0.000298  -0.092617  -0.174371  7.8e-05  4.001456  0.0
C  C61  1  0.29206566  0.78103922  0.71429301  1  -0.012814  0.000298  -0.092591  -0.174458  7.8e-05  4.001527  0.0
C  C62  1  0.65084733  0.28050676  0.22415979  1  -0.011909  -0.00082  -0.079884  -0.07578  -0.000968  3.976055  -0.001
C  C63  1  0.34916133  0.71949162  0.77583333  1  -0.011412  -0.00082  -0.079863  -0.075687  -0.000968  3.975976  -0.001
C  C64  1  0.49803415  0.11690365  0.81716948  1  1.508043  -0.002668  0.198915  0.566891  -0.003739  4.22396  -0.002
C  C65  1  0.50195083  0.88310395  0.18283448  1  1.507931  -0.00267  0.198928  0.566984  -0.003739  4.224206  -0.002
C  C66  1  0.54977685  0.11111728  0.71023060  1  0.014116  0.00565  -0.042378  -0.085649  0.002949  4.030765  0.004
C  C67  1  0.45021521  0.88889941  0.28976624  1  0.013477  0.00565  -0.042441  -0.085617  0.002948  4.030764  0.004
C  C68  1  0.50295595  0.18962101  0.65458761  1  0.030014  -0.000866  -0.087743  -0.07313  -0.00117  4.019344  0.0
C  C69  1  0.49704053  0.81039114  0.34541043  1  0.030569  -0.000867  -0.087682  -0.073092  -0.001171  4.018962  0.0
C  C70  1  0.55250372  0.18339377  0.55519583  1  -0.107919  0.000759  -0.110127  -0.202245  0.0003  4.000909  0.001
C  C71  1  0.44748995  0.81661838  0.44480360  1  -0.107878  0.000759  -0.110234  -0.202426  0.0003  4.000908  0.001
C  C72  1  0.65209220  0.09730268  0.50756007  1  0.315665  -0.001618  0.100434  0.207852  -0.001766  4.042582  -0.001
C  C73  1  0.34791435  0.90271026  0.49243741  1  0.315548  -0.00162  0.100477  0.207866  -0.001768  4.04239  -0.001
C  C74  1  0.69922570  0.01805205  0.56341328  1  0.052695  0.000487  -0.11395  -0.211651  0.000163  4.015833  0.0
C  C75  1  0.30077288  0.98195929  0.43658157  1  0.052808  0.000487  -0.113928  -0.211639  0.000163  4.016065  0.0
C  C76  1  0.64853372  0.02571080  0.66262199  1  -0.113014  -0.000869  -0.092052  -0.082992  -0.001014  4.039647  -0.001
C  C77  1  0.35146170  0.97430439  0.33737545  1  -0.112581  -0.00087  -0.092175  -0.083259  -0.001014  4.039926  -0.001
C  C78  1  0.23744975  0.59130388  0.15046449  1  0.464355  -0.004747  0.046947  0.108079  -0.005509  3.942829  -0.003
C  C79  1  0.76255649  0.40868853  0.84954049  1  0.470005  -0.004739  0.047045  0.108247  -0.005506  3.942829  -0.003
C  C80  1  0.13099075  0.66559328  0.20564427  1  -0.043953  0.004385  -0.085863  -0.185405  0.002144  3.960701  0.003
C  C81  1  0.86901324  0.33439764  0.79436408  1  -0.044417  0.004386  -0.085792  -0.185434  0.002144  3.960516  0.003
C  C82  1  0.13854657  0.76643312  0.20849808  1  -0.026417  -0.007034  0.01074  0.109723  -0.007566  3.999681  -0.005
C  C83  1  0.86145149  0.23355320  0.79151004  1  -0.026239  -0.007033  0.010629  0.10974  -0.007565  3.999726  -0.005
C  C84  1  0.25659606  0.78620441  0.15522683  1  -0.039331  0.004294  -0.081929  -0.165363  0.002002  3.924054  0.003
C  C85  1  0.74340111  0.21378726  0.84478253  1  -0.039852  0.004294  -0.082029  -0.165594  0.002001  3.924219  0.003
C  C86  1  0.35630057  0.70853153  0.09893771  1  0.490398  -0.004883  0.045683  0.102741  -0.0056  3.95654  -0.003
C  C87  1  0.64369901  0.29146926  0.90106707  1  0.490055  -0.004884  0.045771  0.102873  -0.005601  3.956521  -0.003
C  C88  1  0.02661474  0.84894747  0.26247910  1  0.007369  0.000279  -0.0088  0.053803  -6e-05  4.009613  0.0
C  C89  1  0.97339050  0.15103956  0.73752377  1  0.00749  0.000279  -0.008841  0.053736  -6e-05  4.009793  0.0
C  C90  1  0.90174969  0.85632373  0.25806340  1  -0.10365  -0.001091  -0.085104  -0.114421  -0.001175  3.974931  -0.001
C  C91  1  0.09824837  0.14367323  0.74194065  1  -0.103506  -0.00109  -0.085112  -0.11453  -0.001174  3.975057  -0.001
C  C92  1  0.79599658  0.93607117  0.30579534  1  -0.006198  0.000229  -0.08725  -0.155723  4.8e-05  3.980196  0.0
C  C93  1  0.20400106  0.06392954  0.69420450  1  -0.006374  0.000229  -0.087234  -0.155617  4.8e-05  3.980192  0.0
C  C94  1  0.81315764  0.00948707  0.35977952  1  0.329373  -0.001067  0.08863  0.170118  -0.00119  4.047405  -0.001
C  C95  1  0.18684371  0.99051362  0.64021735  1  0.329395  -0.001067  0.088566  0.169958  -0.00119  4.047653  -0.001
C  C96  1  0.93728065  0.00251286  0.36513152  1  -0.032748  0.000225  -0.091159  -0.169776  8.4e-05  4.004466  0.0
C  C97  1  0.06271912  0.99748709  0.63486783  1  -0.032705  0.000225  -0.091137  -0.169714  8.4e-05  4.00461  0.0
C  C98  1  0.04311509  0.92323621  0.31646178  1  -0.045486  -0.001051  -0.087938  -0.116089  -0.001114  3.975805  -0.001
C  C99  1  0.95688349  0.07675920  0.68354088  1  -0.045819  -0.001051  -0.08792  -0.116034  -0.001113  3.975743  -0.001
C  C100  1  0.21351716  0.03120040  0.07521271  1  0.491757  -0.008629  0.045082  0.097527  -0.009203  3.965787  -0.005
C  C101  1  0.78648390  0.96879040  0.92478757  1  0.492076  -0.008632  0.04511  0.097492  -0.009207  3.965645  -0.005
C  C102  1  0.08783342  0.03618867  0.07822562  1  -0.056425  0.001758  -0.084437  -0.171112  0.000283  3.945574  0.002
C  C103  1  0.91217208  0.96379228  0.92177960  1  -0.056822  0.001759  -0.084539  -0.171166  0.000284  3.945717  0.002
C  C104  1  0.06604326  0.99766762  0.00017389  1  -0.045382  -0.014464  0.006339  0.098511  -0.015534  3.975587  -0.008
C  C105  1  0.93395471  0.00231331  0.99983120  1  -0.004641  -0.014345  0.006562  0.098797  -0.015535  3.975796  -0.008
C  C106  1  0.17681565  0.95446685  0.92254150  1  0.021893  0.000935  -0.085504  -0.170618  -0.000305  3.948156  0.002
C  C107  1  0.82318419  0.04552469  0.07745702  1  0.022493  0.000938  -0.085571  -0.170774  -0.000304  3.948436  0.002
C  C108  1  0.29960021  0.95208643  0.92514496  1  0.46119  -0.00857  0.047642  0.100414  -0.009605  3.951745  -0.005
C  C109  1  0.70040191  0.04790663  0.07485220  1  0.461168  -0.008574  0.047704  0.100634  -0.009608  3.951505  -0.005
N  N110  1  0.70370525  0.09100584  0.40807458  1  -1.216871  -0.000887  -0.261635  -0.177433  -0.000805  3.687427  0.0
N  N111  1  0.29629270  0.90899948  0.59192692  1  -1.216863  -0.000887  -0.261667  -0.177444  -0.000805  3.687416  0.0
N  N112  1  0.34855322  0.61197569  0.09581023  1  -1.212183  0.053275  -0.326273  -0.259808  0.028082  3.561712  0.047
N  N113  1  0.65145274  0.38802278  0.90419036  1  -1.217519  0.05327  -0.326327  -0.259988  0.028081  3.562072  0.047
N  N114  1  0.31877312  0.98989004  0.00000090  1  -1.200431  0.048934  -0.332308  -0.252718  0.026077  3.588575  0.045
N  N115  1  0.68122229  0.01010604  0.99999573  1  -1.20023  0.048931  -0.332342  -0.252782  0.026077  3.588421  0.045
O  O116  1  0.37576685  0.32023120  0.13528701  1  -1.192982  0.001433  -0.324551  -0.572834  -0.00048  2.20654  0.001
O  O117  1  0.62424982  0.67976564  0.86470282  1  -1.193019  0.001432  -0.324564  -0.572703  -0.000481  2.206453  0.001
O  O118  1  0.52126111  0.41249048  0.11410994  1  -1.160978  0.07089  -0.313455  -0.556217  0.036817  2.366718  0.061
O  O119  1  0.47874569  0.58751107  0.88589227  1  -1.16074  0.070899  -0.313511  -0.556325  0.036822  2.366782  0.061
O  O120  1  0.41576694  0.19784591  0.86018963  1  -1.190404  0.002259  -0.34139  -0.574114  0.000177  2.125934  0.002
O  O121  1  0.58422229  0.80216013  0.13981132  1  -1.190588  0.00226  -0.34143  -0.574214  0.000177  2.12603  0.002
O  O122  1  0.54365572  0.03674374  0.85870169  1  -1.178035  0.07677  -0.327628  -0.591526  0.039967  2.386654  0.067
O  O123  1  0.45633886  0.96325990  0.14128991  1  -1.177837  0.07678  -0.327595  -0.591488  0.039973  2.386753  0.067
O  O124  1  0.60064214  0.84719992  0.96335954  1  -1.2831  0.070167  -0.585297  -0.791496  0.036563  2.18788  0.056
O  O125  1  0.39935417  0.15279397  0.03664515  1  -1.28309  0.070172  -0.585296  -0.791473  0.036567  2.187974  0.056
O  O126  1  0.64427139  0.56986810  0.01233311  1  -1.23594  0.06412  -0.568376  -0.757863  0.033228  2.110946  0.05
O  O127  1  0.35572763  0.43014481  0.98766424  1  -1.235765  0.064116  -0.568424  -0.756755  0.03322  2.110801  0.05
