# generated using pymatgen
data_CdH4C6N5Cl
_symmetry_space_group_name_H-M   'P 1'
_cell_length_a   8.04507927
_cell_length_b   9.32364582
_cell_length_c   10.63746556
_cell_angle_alpha   81.58390061
_cell_angle_beta   88.25728804
_cell_angle_gamma   89.42516937
_symmetry_Int_Tables_number   1
_chemical_formula_structural   CdH4C6N5Cl
_chemical_formula_sum   'Cd4 H16 C24 N20 Cl4'
_cell_volume   788.94049329
_cell_formula_units_Z   4
loop_
 _symmetry_equiv_pos_site_id
 _symmetry_equiv_pos_as_xyz
  1  'x, y, z'
loop_
 _atom_site_type_symbol
 _atom_site_label
 _atom_site_symmetry_multiplicity
 _atom_site_fract_x
 _atom_site_fract_y
 _atom_site_fract_z
 _atom_site_occupancy
 _atom_site_hle17_bader_spin_density
 _atom_site_hle17_ddec_charge
 _atom_site_hle17_ddec_spin_density
 _atom_site_hle17_ddec_sum_bond_order
 _atom_site_hle17_magmom
 _atom_site_hse06_10hf_bader_spin_density
 _atom_site_hse06_10hf_ddec_charge
 _atom_site_hse06_10hf_ddec_spin_density
 _atom_site_hse06_10hf_ddec_sum_bond_order
 _atom_site_hse06_10hf_magmom
 _atom_site_hse06_bader_spin_density
 _atom_site_hse06_ddec_charge
 _atom_site_hse06_ddec_spin_density
 _atom_site_hse06_ddec_sum_bond_order
 _atom_site_hse06_magmom
 _atom_site_pbe_bader_spin_density
 _atom_site_pbe_cm5_charge
 _atom_site_pbe_ddec_charge
 _atom_site_pbe_ddec_spin_density
 _atom_site_pbe_ddec_sum_bond_order
 _atom_site_pbe_magmom
Cd  Cd0  1  0.21248128  0.75916746  0.21228696  1  0  0.929221  0  1.909268  0  0  0.726151  0  2.37278  0  0  0.775546  0  2.334556  0  0  0.697947  0.691267  0  2.399033  0
Cd  Cd1  1  0.78751784  0.24083098  0.78771310  1  0  0.92919  0  1.909304  0  0  0.726115  0  2.372821  0  0  0.77551  0  2.334598  0  0  0.697944  0.691231  0  2.399057  0
Cd  Cd2  1  0.99999875  0.49999956  0.49999955  1  0  0.93613  0  1.925097  0  0  0.732029  0  2.405596  0  0  0.780622  0  2.363983  0  0  0.688365  0.696732  0  2.434568  0
Cd  Cd3  1  0.49999926  0.49999944  0.99999972  1  0  0.957698  0  1.871091  0  0  0.752975  0  2.344983  0  0  0.802044  0  2.303903  0  0  0.701522  0.717067  0  2.373995  0
H  H4  1  0.54569711  0.36870880  0.56520193  1  0  0.084056  0  0.948634  0  0  0.087496  0  1.022329  0  0  0.090008  0  1.020058  0  0  0.111799  0.085636  0  1.024101  0
H  H5  1  0.45430323  0.63129181  0.43479970  1  0  0.084063  0  0.948634  0  0  0.0875  0  1.022337  0  0  0.090012  0  1.020065  0  0  0.111808  0.085639  0  1.024109  0
H  H6  1  0.01549462  0.99486914  0.33314439  1  0  0.073065  0  0.987818  0  0  0.079963  0  1.058046  0  0  0.082404  0  1.055593  0  0  0.099534  0.078006  0  1.060138  0
H  H7  1  0.98450697  0.00513146  0.66685533  1  0  0.073042  0  0.987824  0  0  0.079942  0  1.058052  0  0  0.08238  0  1.0556  0  0  0.099523  0.077987  0  1.060145  0
H  H8  1  0.24766489  0.03620197  0.97708967  1  0  0.085615  0  0.950236  0  0  0.093118  0  1.018247  0  0  0.095535  0  1.016359  0  0  0.108351  0.091239  0  1.01976  0
H  H9  1  0.75233422  0.96379755  0.02290836  1  0  0.085626  0  0.950205  0  0  0.093119  0  1.018232  0  0  0.095536  0  1.016343  0  0  0.108348  0.091242  0  1.019729  0
H  H10  1  0.21732481  0.03478813  0.48112812  1  0  0.099102  0  0.963418  0  0  0.108716  0  1.030006  0  0  0.111079  0  1.028268  0  0  0.098681  0.1071  0  1.031042  0
H  H11  1  0.78267428  0.96521464  0.51887045  1  0  0.099107  0  0.963398  0  0  0.108717  0  1.029995  0  0  0.111086  0  1.028237  0  0  0.098679  0.107101  0  1.031031  0
H  H12  1  0.99808303  0.40935441  0.09438016  1  0  0.098663  0  0.946349  0  0  0.107674  0  1.011453  0  0  0.109655  0  1.010715  0  0  0.107515  0.106081  0  1.012445  0
H  H13  1  0.00191608  0.59064511  0.90561787  1  0  0.098644  0  0.946369  0  0  0.1077  0  1.011413  0  0  0.10968  0  1.010675  0  0  0.107535  0.106107  0  1.0124  0
H  H14  1  0.51632386  0.98174645  0.81357751  1  0  0.079184  0  0.956582  0  0  0.083027  0  1.031343  0  0  0.085741  0  1.028401  0  0  0.106338  0.081011  0  1.033594  0
H  H15  1  0.48367525  0.01825308  0.18642241  1  0  0.079156  0  0.956578  0  0  0.082984  0  1.031359  0  0  0.085706  0  1.028396  0  0  0.106325  0.080967  0  1.033613  0
H  H16  1  0.92446549  0.25479661  0.30164161  1  0  0.107713  0  0.988177  0  0  0.113664  0  1.05648  0  0  0.116827  0  1.055341  0  0  0.096879  0.111339  0  1.057666  0
H  H17  1  0.07553610  0.74520400  0.69835718  1  0  0.107722  0  0.988156  0  0  0.113683  0  1.056442  0  0  0.116848  0  1.0553  0  0  0.096877  0.111358  0  1.057622  0
H  H18  1  0.31270689  0.88149230  0.68084996  1  0  0.113893  0  0.959656  0  0  0.120383  0  1.024722  0  0  0.123626  0  1.023675  0  0  0.106245  0.118107  0  1.025697  0
H  H19  1  0.68729346  0.11850723  0.31914899  1  0  0.113877  0  0.959676  0  0  0.120359  0  1.024762  0  0  0.123608  0  1.023699  0  0  0.106235  0.118082  0  1.025739  0
C  C20  1  0.33651686  0.31262230  0.39080321  1  0  0.278205  0  3.771243  0  0  0.254113  0  4.046936  0  0  0.264147  0  4.063677  0  0  0.221292  0.247466  0  4.035455  0
C  C21  1  0.66348347  0.68738047  0.60919721  1  0  0.278203  0  3.771158  0  0  0.254166  0  4.046795  0  0  0.264183  0  4.063558  0  0  0.221338  0.247519  0  4.03531  0
C  C22  1  0.37141098  0.21583538  0.50941502  1  0  -0.032861  0  3.761042  0  0  -0.008619  0  3.99403  0  0  -0.015183  0  4.016919  0  0  0.002609  -0.004667  0  3.978856  0
C  C23  1  0.62858811  0.78416739  0.49058449  1  0  -0.032862  0  3.761002  0  0  -0.008652  0  3.994007  0  0  -0.015212  0  4.016898  0  0  0.002598  -0.004694  0  3.978821  0
C  C24  1  0.48726823  0.26293358  0.58958283  1  0  0.11207  0  3.671718  0  0  0.070206  0  3.924022  0  0  0.077732  0  3.941617  0  0  0.047492  0.065396  0  3.912131  0
C  C25  1  0.51273211  0.73706702  0.41041786  1  0  0.112062  0  3.671752  0  0  0.070197  0  3.924069  0  0  0.077724  0  3.941662  0  0  0.047453  0.065389  0  3.912171  0
C  C26  1  0.04671229  0.06708729  0.24559710  1  0  0.125903  0  3.686054  0  0  0.095704  0  3.932614  0  0  0.103318  0  3.950908  0  0  0.042453  0.090724  0  3.920607  0
C  C27  1  0.95328929  0.93291332  0.75440168  1  0  0.125914  0  3.686077  0  0  0.095702  0  3.932658  0  0  0.103317  0  3.950954  0  0  0.042445  0.090711  0  3.920661  0
C  C28  1  0.17629250  0.08940147  0.04614712  1  0  0.108279  0  3.666006  0  0  0.068488  0  3.914501  0  0  0.076246  0  3.932019  0  0  0.050598  0.063494  0  3.902392  0
C  C29  1  0.82370910  0.91059697  0.95385194  1  0  0.108198  0  3.66596  0  0  0.068417  0  3.914445  0  0  0.076174  0  3.931962  0  0  0.050569  0.063432  0  3.90233  0
C  C30  1  0.30518704  0.07689952  0.54221617  1  0  -0.024271  0  3.686672  0  0  -0.054409  0  3.932714  0  0  -0.050541  0  3.951062  0  0  -0.064198  -0.056608  0  3.919979  0
C  C31  1  0.69481329  0.92310217  0.45778344  1  0  -0.024273  0  3.686647  0  0  -0.054403  0  3.932694  0  0  -0.050534  0  3.951047  0  0  -0.064182  -0.056607  0  3.919959  0
C  C32  1  0.16416490  0.32424091  0.89631473  1  0  0.291463  0  3.793216  0  0  0.262186  0  4.061387  0  0  0.27478  0  4.078442  0  0  0.220402  0.253907  0  4.049376  0
C  C33  1  0.83583422  0.67575644  0.10368546  1  0  0.29153  0  3.793287  0  0  0.262152  0  4.061586  0  0  0.274746  0  4.078645  0  0  0.220383  0.25388  0  4.04957  0
C  C34  1  0.12908287  0.23511322  0.01996537  1  0  -0.044292  0  3.777978  0  0  -0.02156  0  4.017875  0  0  -0.028683  0  4.039801  0  0  0.000116  -0.017171  0  4.003258  0
C  C35  1  0.87091499  0.76488739  0.98003350  1  0  -0.044257  0  3.777937  0  0  -0.021502  0  4.017858  0  0  -0.028625  0  4.039783  0  0  0.000112  -0.017122  0  4.003248  0
C  C36  1  0.03745484  0.29639624  0.11278476  1  0  -0.012135  0  3.68877  0  0  -0.044873  0  3.944668  0  0  -0.040021  0  3.961909  0  0  -0.062947  -0.047817  0  3.933395  0
C  C37  1  0.96254427  0.70360328  0.88721422  1  0  -0.012144  0  3.688707  0  0  -0.0449  0  3.944578  0  0  -0.040047  0  3.96182  0  0  -0.062956  -0.047846  0  3.933303  0
C  C38  1  0.47194452  0.04731791  0.72768495  1  0  0.131381  0  3.691109  0  0  0.098302  0  3.944321  0  0  0.106309  0  3.961683  0  0  0.044643  0.093025  0  3.932706  0
C  C39  1  0.52805583  0.95268162  0.27231588  1  0  0.131405  0  3.691076  0  0  0.098353  0  3.944255  0  0  0.106362  0  3.961623  0  0  0.044651  0.093077  0  3.932639  0
C  C40  1  0.99611139  0.21131780  0.22732152  1  0  -0.100696  0  3.719468  0  0  -0.114118  0  3.972955  0  0  -0.12168  0  3.994231  0  0  -0.084904  -0.109378  0  3.958993  0
C  C41  1  0.00388895  0.78868281  0.77267729  1  0  -0.100697  0  3.719429  0  0  -0.114141  0  3.97296  0  0  -0.121704  0  3.994235  0  0  -0.084902  -0.109392  0  3.958985  0
C  C42  1  0.35624725  0.99191025  0.65315269  1  0  -0.111852  0  3.725225  0  0  -0.122467  0  3.977354  0  0  -0.130291  0  3.999573  0  0  -0.083415  -0.117392  0  3.962403  0
C  C43  1  0.64375308  0.00809145  0.34684787  1  0  -0.111827  0  3.725253  0  0  -0.122451  0  3.97737  0  0  -0.130277  0  3.999597  0  0  -0.083416  -0.117376  0  3.96242  0
N  N44  1  0.24726117  0.43681443  0.38467179  1  0  -0.320853  0  3.12909  0  0  -0.267949  0  3.408865  0  0  -0.283435  0  3.425809  0  0  -0.230808  -0.257274  0  3.397451  0
N  N45  1  0.75273792  0.56318726  0.61532973  1  0  -0.3209  0  3.129081  0  0  -0.268022  0  3.40887  0  0  -0.283504  0  3.425819  0  0  -0.23087  -0.257344  0  3.397439  0
N  N46  1  0.26845026  0.50276220  0.26477895  1  0  -0.118416  0  3.178744  0  0  -0.077356  0  3.463024  0  0  -0.08432  0  3.482279  0  0  -0.120257  -0.072607  0  3.450065  0
N  N47  1  0.73154761  0.49723732  0.73522005  1  0  -0.118321  0  3.17857  0  0  -0.077265  0  3.462852  0  0  -0.084227  0  3.482105  0  0  -0.120233  -0.072514  0  3.449882  0
N  N48  1  0.36519813  0.42079099  0.20166678  1  0  -0.098851  0  3.198747  0  0  -0.048886  0  3.492605  0  0  -0.05596  0  3.509519  0  0  -0.104591  -0.043343  0  3.480804  0
N  N49  1  0.63479974  0.57920853  0.79833316  1  0  -0.098895  0  3.198682  0  0  -0.048907  0  3.492524  0  0  -0.055983  0  3.509435  0  0  -0.104563  -0.04337  0  3.480737  0
N  N50  1  0.40964041  0.30050695  0.27735440  1  0  -0.256828  0  2.909847  0  0  -0.247752  0  3.194803  0  0  -0.255382  0  3.209388  0  0  -0.201689  -0.24233  0  3.184732  0
N  N51  1  0.59035994  0.69949257  0.72264644  1  0  -0.256829  0  2.909851  0  0  -0.247775  0  3.194795  0  0  -0.255397  0  3.209382  0  0  -0.201716  -0.24236  0  3.184738  0
N  N52  1  0.13528230  0.00702500  0.15713585  1  0  -0.323355  0  3.260643  0  0  -0.242299  0  3.523484  0  0  -0.262553  0  3.543495  0  0  -0.328897  -0.228468  0  3.509658  0
N  N53  1  0.86471929  0.99297561  0.84286294  1  0  -0.323297  0  3.260534  0  0  -0.242246  0  3.523373  0  0  -0.262498  0  3.543381  0  0  -0.328862  -0.228419  0  3.509553  0
N  N54  1  0.53722933  0.18040926  0.69595311  1  0  -0.326719  0  3.282163  0  0  -0.246566  0  3.544841  0  0  -0.267197  0  3.565763  0  0  -0.335307  -0.232323  0  3.530212  0
N  N55  1  0.46276978  0.81959026  0.30404775  1  0  -0.32673  0  3.282161  0  0  -0.246587  0  3.544839  0  0  -0.267218  0  3.565758  0  0  -0.335288  -0.23235  0  3.530216  0
N  N56  1  0.06429971  0.32892779  0.79707847  1  0  -0.330814  0  3.139672  0  0  -0.276124  0  3.417902  0  0  -0.29308  0  3.435635  0  0  -0.237402  -0.264271  0  3.404995  0
N  N57  1  0.93569815  0.67107173  0.20292147  1  0  -0.330868  0  3.139771  0  0  -0.276149  0  3.418032  0  0  -0.293106  0  3.435767  0  0  -0.237403  -0.264304  0  3.405136  0
N  N58  1  0.26376632  0.48618968  0.74847357  1  0  -0.039923  0  2.921227  0  0  -0.045431  0  3.216185  0  0  -0.041693  0  3.229354  0  0  -0.087458  -0.047444  0  3.20671  0
N  N59  1  0.73623404  0.51380876  0.25152552  1  0  -0.039943  0  2.921275  0  0  -0.045442  0  3.216214  0  0  -0.041705  0  3.229383  0  0  -0.087474  -0.047454  0  3.206731  0
N  N60  1  0.28775735  0.42127522  0.86833488  1  0  -0.327431  0  3.105168  0  0  -0.270173  0  3.399817  0  0  -0.288194  0  3.414818  0  0  -0.224682  -0.257404  0  3.388996  0
N  N61  1  0.71224052  0.57872322  0.13166333  1  0  -0.327437  0  3.10526  0  0  -0.270146  0  3.399921  0  0  -0.288167  0  3.414923  0  0  -0.224668  -0.257376  0  3.389091  0
N  N62  1  0.13030544  0.43106104  0.70669674  1  0  -0.110101  0  3.158015  0  0  -0.0639  0  3.454684  0  0  -0.07167  0  3.471508  0  0  -0.107158  -0.057606  0  3.442398  0
N  N63  1  0.86969366  0.56893849  0.29330223  1  0  -0.110085  0  3.158091  0  0  -0.063883  0  3.454749  0  0  -0.071653  0  3.471573  0  0  -0.107148  -0.05759  0  3.442466  0
Cl  Cl64  1  0.10625316  0.76280931  0.46178558  1  0  -0.542811  0  1.013283  0  0  -0.479569  0  1.310112  0  0  -0.496857  0  1.289653  0  0  -0.282084  -0.467448  0  1.324195  0
Cl  Cl65  1  0.89374595  0.23719022  0.53821246  1  0  -0.542806  0  1.013275  0  0  -0.479559  0  1.310095  0  0  -0.496846  0  1.289635  0  0  -0.282084  -0.467437  0  1.324175  0
Cl  Cl66  1  0.35035004  0.75494375  0.99006710  1  0  -0.542499  0  0.978156  0  0  -0.479615  0  1.277367  0  0  -0.497527  0  1.256312  0  0  -0.30202  -0.467107  0  1.29228  0
Cl  Cl67  1  0.64964908  0.24505469  0.00993296  1  0  -0.542497  0  0.978159  0  0  -0.479608  0  1.277362  0  0  -0.497522  0  1.256306  0  0  -0.302023  -0.467105  0  1.292273  0
