# generated using pymatgen
data_H8RhC8NO4
_symmetry_space_group_name_H-M   'P 1'
_cell_length_a   8.07388938
_cell_length_b   11.97479486
_cell_length_c   14.55977338
_cell_angle_alpha   65.18025666
_cell_angle_beta   73.64546696
_cell_angle_gamma   70.11689786
_symmetry_Int_Tables_number   1
_chemical_formula_structural   H8RhC8NO4
_chemical_formula_sum   'H32 Rh4 C32 N4 O16'
_cell_volume   1185.50065231
_cell_formula_units_Z   4
loop_
 _symmetry_equiv_pos_site_id
 _symmetry_equiv_pos_as_xyz
  1  'x, y, z'
loop_
 _atom_site_type_symbol
 _atom_site_label
 _atom_site_symmetry_multiplicity
 _atom_site_fract_x
 _atom_site_fract_y
 _atom_site_fract_z
 _atom_site_occupancy
 _atom_site_hle17_bader_spin_density
 _atom_site_hle17_ddec_charge
 _atom_site_hle17_ddec_spin_density
 _atom_site_hle17_ddec_sum_bond_order
 _atom_site_hle17_magmom
 _atom_site_hse06_10hf_bader_spin_density
 _atom_site_hse06_10hf_ddec_charge
 _atom_site_hse06_10hf_ddec_spin_density
 _atom_site_hse06_10hf_ddec_sum_bond_order
 _atom_site_hse06_10hf_magmom
 _atom_site_hse06_bader_spin_density
 _atom_site_hse06_ddec_charge
 _atom_site_hse06_ddec_spin_density
 _atom_site_hse06_ddec_sum_bond_order
 _atom_site_hse06_magmom
 _atom_site_pbe_bader_spin_density
 _atom_site_pbe_cm5_charge
 _atom_site_pbe_ddec_charge
 _atom_site_pbe_ddec_spin_density
 _atom_site_pbe_ddec_sum_bond_order
 _atom_site_pbe_magmom
H  H0  1  0.44287559  0.28160875  0.20335270  1  0  0.157437  0  0.952569  0  0  0.172435  0  1.015782  0  0  0.174818  0  1.015801  0  0  0.103491  0.170952  0  1.015512  0
H  H1  1  0.92871631  0.21847146  0.29665753  1  0  0.15611  0  0.953879  0  0  0.171616  0  1.016617  0  0  0.174522  0  1.016172  0  0  0.102646  0.169535  0  1.016878  0
H  H2  1  0.55713087  0.71838796  0.79664935  1  0  0.157429  0  0.952609  0  0  0.172425  0  1.015821  0  0  0.174807  0  1.015836  0  0  0.103494  0.170942  0  1.01555  0
H  H3  1  0.07127754  0.78152812  0.70334240  1  0  0.156128  0  0.953841  0  0  0.17163  0  1.016596  0  0  0.174537  0  1.016148  0  0  0.102641  0.169548  0  1.016858  0
H  H4  1  0.49545814  0.43109553  0.13419450  1  0  0.160337  0  0.920884  0  0  0.178615  0  0.97696  0  0  0.181351  0  0.976263  0  0  0.108654  0.176758  0  0.97733  0
H  H5  1  0.06208427  0.06888639  0.36551639  1  0  0.157946  0  0.923931  0  0  0.176465  0  0.980056  0  0  0.179486  0  0.978972  0  0  0.106968  0.17428  0  0.980858  0
H  H6  1  0.50454890  0.56889929  0.86580563  1  0  0.160344  0  0.920887  0  0  0.17862  0  0.976962  0  0  0.181356  0  0.976264  0  0  0.108648  0.176762  0  0.977334  0
H  H7  1  0.93789888  0.93111127  0.63448772  1  0  0.157916  0  0.923902  0  0  0.176481  0  0.979985  0  0  0.179502  0  0.9789  0  0  0.106938  0.174294  0  0.980785  0
H  H8  1  0.57254397  0.31408861  0.07647091  1  0  0.134565  0  0.945567  0  0  0.155019  0  1.00151  0  0  0.155833  0  1.002574  0  0  0.09785  0.154597  0  1.000534  0
H  H9  1  0.96274291  0.18567753  0.42342448  1  0  0.133226  0  0.946247  0  0  0.153786  0  1.002383  0  0  0.154453  0  1.003591  0  0  0.09686  0.153443  0  1.001353  0
H  H10  1  0.42746202  0.68590526  0.92353086  1  0  0.134548  0  0.945498  0  0  0.155013  0  1.001437  0  0  0.155827  0  1.0025  0  0  0.097823  0.154589  0  1.00046  0
H  H11  1  0.03725462  0.81432585  0.57657447  1  0  0.133179  0  0.946274  0  0  0.153781  0  1.002368  0  0  0.154447  0  1.003577  0  0  0.096865  0.153439  0  1.001342  0
H  H12  1  0.86585992  0.12918365  0.05237620  1  0  0.134484  0  0.926658  0  0  0.153912  0  0.982324  0  0  0.15498  0  0.983139  0  0  0.100325  0.15312  0  0.981954  0
H  H13  1  0.04557738  0.37104028  0.44841648  1  0  0.135651  0  0.92977  0  0  0.155412  0  0.984822  0  0  0.156395  0  0.985636  0  0  0.101475  0.154961  0  0.983955  0
H  H14  1  0.13413475  0.87081501  0.94761839  1  0  0.134414  0  0.92676  0  0  0.153899  0  0.982387  0  0  0.154958  0  0.983214  0  0  0.100294  0.153106  0  0.982017  0
H  H15  1  0.95440678  0.62896593  0.55158755  1  0  0.135694  0  0.92987  0  0  0.155347  0  0.985028  0  0  0.15634  0  0.985831  0  0  0.101463  0.154893  0  0.984166  0
H  H16  1  0.82132588  0.12366429  0.18282846  1  0  0.157464  0  0.956976  0  0  0.172152  0  1.018292  0  0  0.174624  0  1.018054  0  0  0.102862  0.170454  0  1.018316  0
H  H17  1  0.12675853  0.37644448  0.31801202  1  0  0.156175  0  0.959049  0  0  0.170692  0  1.020576  0  0  0.173536  0  1.020025  0  0  0.101919  0.168609  0  1.020996  0
H  H18  1  0.17867042  0.87634197  0.81716474  1  0  0.15752  0  0.956858  0  0  0.17216  0  1.018243  0  0  0.174632  0  1.018006  0  0  0.102853  0.170463  0  1.018262  0
H  H19  1  0.87323302  0.62355603  0.68199217  1  0  0.156227  0  0.958914  0  0  0.170742  0  1.020438  0  0  0.173586  0  1.019887  0  0  0.101962  0.168659  0  1.020856  0
H  H20  1  0.04283360  0.06974758  0.12298267  1  0  0.136565  0  0.929929  0  0  0.156032  0  0.986816  0  0  0.156681  0  0.988307  0  0  0.101417  0.155702  0  0.985746  0
H  H21  1  0.23435829  0.43013098  0.37731481  1  0  0.137864  0  0.931994  0  0  0.157305  0  0.988705  0  0  0.15811  0  0.989883  0  0  0.102298  0.156929  0  0.987686  0
H  H22  1  0.95716060  0.93024824  0.87701164  1  0  0.136625  0  0.929927  0  0  0.156098  0  0.986799  0  0  0.156749  0  0.988286  0  0  0.101457  0.155765  0  0.985729  0
H  H23  1  0.76563080  0.56987333  0.62268810  1  0  0.137849  0  0.931969  0  0  0.157321  0  0.98864  0  0  0.158126  0  0.989819  0  0  0.102303  0.156944  0  0.987622  0
H  H24  1  0.41563135  0.67825450  0.56355412  1  0  0.116688  0  0.952227  0  0  0.126165  0  1.010233  0  0  0.130846  0  1.007381  0  0  0.113794  0.122382  0  1.012923  0
H  H25  1  0.65648658  0.82160578  0.93620883  1  0  0.116773  0  0.951934  0  0  0.126591  0  1.00969  0  0  0.131068  0  1.007089  0  0  0.11471  0.123086  0  1.011997  0
H  H26  1  0.58438636  0.32174124  0.43645018  1  0  0.116517  0  0.952279  0  0  0.125971  0  1.010341  0  0  0.130652  0  1.007491  0  0  0.113767  0.122196  0  1.013038  0
H  H27  1  0.34353043  0.17839573  0.06378350  1  0  0.116729  0  0.951978  0  0  0.126623  0  1.009664  0  0  0.131102  0  1.007059  0  0  0.114711  0.123115  0  1.011979  0
H  H28  1  0.58337243  0.70460536  0.39021781  1  0  0.12312  0  0.945445  0  0  0.128624  0  1.009885  0  0  0.13303  0  1.006563  0  0  0.114712  0.125146  0  1.012814  0
H  H29  1  0.67736455  0.79486596  0.10976498  1  0  0.123883  0  0.945865  0  0  0.129656  0  1.009729  0  0  0.133601  0  1.007018  0  0  0.11586  0.126657  0  1.012013  0
H  H30  1  0.41664839  0.29539135  0.60978278  1  0  0.123106  0  0.945526  0  0  0.128686  0  1.00988  0  0  0.133094  0  1.006556  0  0  0.114736  0.125207  0  1.012806  0
H  H31  1  0.32264391  0.20513650  0.89022884  1  0  0.123898  0  0.945919  0  0  0.129699  0  1.009763  0  0  0.133646  0  1.007045  0  0  0.115874  0.126698  0  1.012047  0
Rh  Rh32  1  0.08483306  0.48400250  0.92148204  1  0  0.686327  0  3.184292  0  0  0.619128  0  3.795315  0  0  0.656349  0  3.741809  0  0  0.659743  0.598935  0  3.828348  0
Rh  Rh33  1  0.48902148  0.01592844  0.57888342  1  0  0.683048  0  3.161976  0  0  0.612211  0  3.77452  0  0  0.653388  0  3.71877  0  0  0.649449  0.588241  0  3.809995  0
Rh  Rh34  1  0.91517474  0.51599518  0.07851678  1  0  0.686236  0  3.184328  0  0  0.618949  0  3.795443  0  0  0.656202  0  3.741886  0  0  0.659667  0.598751  0  3.828516  0
Rh  Rh35  1  0.51097065  0.98407681  0.42112227  1  0  0.682989  0  3.161622  0  0  0.612175  0  3.774185  0  0  0.653357  0  3.718425  0  0  0.649422  0.588187  0  3.809673  0
C  C36  1  0.94441565  0.27169476  0.07012559  1  0  0.701793  0  3.78231  0  0  0.662673  0  4.08429  0  0  0.701016  0  4.076247  0  0  0.215025  0.63646  0  4.089139  0
C  C37  1  0.28538564  0.22833063  0.43023912  1  0  0.701296  0  3.782699  0  0  0.662444  0  4.08404  0  0  0.700777  0  4.076066  0  0  0.214255  0.636168  0  4.089065  0
C  C38  1  0.05558935  0.72830295  0.92986701  1  0  0.70162  0  3.78232  0  0  0.662616  0  4.084131  0  0  0.700968  0  4.076073  0  0  0.214899  0.636403  0  4.088977  0
C  C39  1  0.71460217  0.77167366  0.56976762  1  0  0.701082  0  3.783185  0  0  0.662333  0  4.084355  0  0  0.700666  0  4.076387  0  0  0.214207  0.636057  0  4.089379  0
C  C40  1  0.29392540  0.40588137  0.08134445  1  0  0.708384  0  3.776588  0  0  0.670322  0  4.076704  0  0  0.708586  0  4.068924  0  0  0.215627  0.644067  0  4.081406  0
C  C41  1  0.78157959  0.09397888  0.41856586  1  0  0.708307  0  3.773904  0  0  0.669728  0  4.074456  0  0  0.707981  0  4.066701  0  0  0.215206  0.643481  0  4.079232  0
C  C42  1  0.70608025  0.59411344  0.91865705  1  0  0.708309  0  3.776767  0  0  0.670323  0  4.076758  0  0  0.708561  0  4.069021  0  0  0.215657  0.644069  0  4.081458  0
C  C43  1  0.21840877  0.90602639  0.58143588  1  0  0.708333  0  3.773789  0  0  0.669757  0  4.074364  0  0  0.707988  0  4.06664  0  0  0.215262  0.643511  0  4.079136  0
C  C44  1  0.68907996  0.52832456  0.30050891  1  0  0.273404  0  3.694958  0  0  0.256897  0  3.959126  0  0  0.273874  0  3.965342  0  0  0.200951  0.245647  0  3.956914  0
C  C45  1  0.51857867  0.97136839  0.19913185  1  0  0.27485  0  3.685329  0  0  0.258226  0  3.947369  0  0  0.275812  0  3.955616  0  0  0.203574  0.245918  0  3.943197  0
C  C46  1  0.31093206  0.47168072  0.69948981  1  0  0.273348  0  3.695084  0  0  0.256865  0  3.959252  0  0  0.273839  0  3.965468  0  0  0.201008  0.245621  0  3.957016  0
C  C47  1  0.48141954  0.02863119  0.80086888  1  0  0.274943  0  3.684762  0  0  0.258324  0  3.946822  0  0  0.275919  0  3.955064  0  0  0.20354  0.24601  0  3.942646  0
C  C48  1  0.59411345  0.51505155  0.40093065  1  0  0.023536  0  3.891121  0  0  0.04302  0  4.127674  0  0  0.042781  0  4.142337  0  0  0.006728  0.041815  0  4.119775  0
C  C49  1  0.50999810  0.98477051  0.09864183  1  0  0.027373  0  3.889609  0  0  0.048121  0  4.123907  0  0  0.046316  0  4.140888  0  0  0.010922  0.04898  0  4.113316  0
C  C50  1  0.40590416  0.48494611  0.59906996  1  0  0.023743  0  3.890904  0  0  0.043178  0  4.127499  0  0  0.042945  0  4.142154  0  0  0.006567  0.041973  0  4.119582  0
C  C51  1  0.48999448  0.01522432  0.90135729  1  0  0.027313  0  3.889935  0  0  0.048043  0  4.124237  0  0  0.046232  0  4.14122  0  0  0.011004  0.048915  0  4.113628  0
C  C52  1  0.46197207  0.35409633  0.12659368  1  0  -0.454739  0  3.637905  0  0  -0.528298  0  3.867976  0  0  -0.537303  0  3.87284  0  0  -0.244856  -0.521753  0  3.863822  0
C  C53  1  0.94330556  0.14581397  0.37326318  1  0  -0.452267  0  3.640947  0  0  -0.526795  0  3.871427  0  0  -0.535786  0  3.87562  0  0  -0.244529  -0.520227  0  3.868065  0
C  C54  1  0.53803461  0.64589754  0.87340741  1  0  -0.45469  0  3.637968  0  0  -0.528267  0  3.867992  0  0  -0.537262  0  3.872867  0  0  -0.244827  -0.521721  0  3.863836  0
C  C55  1  0.05668553  0.85418750  0.62673827  1  0  -0.452253  0  3.640782  0  0  -0.526856  0  3.871222  0  0  -0.53584  0  3.875423  0  0  -0.244543  -0.520288  0  3.867858  0
C  C56  1  0.91442556  0.14083159  0.11029299  1  0  -0.449853  0  3.657469  0  0  -0.520972  0  3.88612  0  0  -0.529231  0  3.891393  0  0  -0.23923  -0.515005  0  3.881895  0
C  C57  1  0.16423992  0.35925689  0.39030465  1  0  -0.451322  0  3.667173  0  0  -0.522983  0  3.895492  0  0  -0.531131  0  3.900234  0  0  -0.240751  -0.517134  0  3.89151  0
C  C58  1  0.08557089  0.85916707  0.88970111  1  0  -0.449875  0  3.657458  0  0  -0.52107  0  3.886112  0  0  -0.529325  0  3.891388  0  0  -0.239245  -0.515103  0  3.881887  0
C  C59  1  0.83574601  0.64074741  0.60970012  1  0  -0.451292  0  3.667161  0  0  -0.522929  0  3.895499  0  0  -0.531084  0  3.900232  0  0  -0.240774  -0.517077  0  3.891525  0
C  C60  1  0.54703018  0.39974349  0.46410067  1  0  -0.070157  0  3.693481  0  0  -0.094932  0  3.945122  0  0  -0.093289  0  3.957556  0  0  -0.069866  -0.096743  0  3.938801  0
C  C61  1  0.41136840  0.10042992  0.03595819  1  0  -0.067747  0  3.689224  0  0  -0.092665  0  3.939329  0  0  -0.091774  0  3.953818  0  0  -0.067173  -0.093707  0  3.930648  0
C  C62  1  0.45298169  0.60025417  0.53590052  1  0  -0.070596  0  3.693627  0  0  -0.09534  0  3.945183  0  0  -0.093701  0  3.957614  0  0  -0.06988  -0.097127  0  3.938839  0
C  C63  1  0.58863246  0.89956968  0.96403731  1  0  -0.067811  0  3.689393  0  0  -0.092659  0  3.939497  0  0  -0.091767  0  3.95399  0  0  -0.067231  -0.093706  0  3.930814  0
C  C64  1  0.45350964  0.38445041  0.56244069  1  0  -0.068312  0  3.685188  0  0  -0.093277  0  3.936307  0  0  -0.091957  0  3.949057  0  0  -0.067272  -0.094832  0  3.929656  0
C  C65  1  0.40096515  0.11596577  0.93759093  1  0  -0.069688  0  3.682313  0  0  -0.094237  0  3.931874  0  0  -0.093869  0  3.94711  0  0  -0.066225  -0.094836  0  3.922521  0
C  C66  1  0.54650446  0.61554629  0.43756275  1  0  -0.068217  0  3.685272  0  0  -0.093133  0  3.936372  0  0  -0.091812  0  3.949126  0  0  -0.067308  -0.09469  0  3.929723  0
C  C67  1  0.59903106  0.88403383  0.06240536  1  0  -0.069705  0  3.682292  0  0  -0.094221  0  3.93182  0  0  -0.093859  0  3.947062  0  0  -0.066203  -0.09482  0  3.922474  0
N  N68  1  0.76725133  0.53581792  0.21802063  1  0  -0.335021  0  2.985479  0  0  -0.309099  0  3.275343  0  0  -0.310419  0  3.269912  0  0  -0.327499  -0.311245  0  3.280191  0
N  N69  1  0.52320391  0.96418328  0.28100234  1  0  -0.331595  0  2.977679  0  0  -0.303241  0  3.264913  0  0  -0.307925  0  3.260479  0  0  -0.318313  -0.302108  0  3.269134  0
N  N70  1  0.23276138  0.46418926  0.78197617  1  0  -0.33501  0  2.985781  0  0  -0.309122  0  3.275665  0  0  -0.310439  0  3.270238  0  0  -0.327501  -0.311274  0  3.280489  0
N  N71  1  0.47680110  0.03581634  0.71898903  1  0  -0.331668  0  2.977174  0  0  -0.303337  0  3.264485  0  0  -0.308019  0  3.260042  0  0  -0.318334  -0.302207  0  3.268705  0
O  O72  1  0.03487588  0.30811697  0.97996956  1  0  -0.539911  0  2.139449  0  0  -0.494591  0  2.406177  0  0  -0.528546  0  2.400314  0  0  -0.302944  -0.471222  0  2.409212  0
O  O73  1  0.32119904  0.19171868  0.52035044  1  0  -0.54074  0  2.140999  0  0  -0.49533  0  2.408428  0  0  -0.529498  0  2.402398  0  0  -0.304525  -0.471804  0  2.411492  0
O  O74  1  0.96512481  0.69187980  0.02002410  1  0  -0.539824  0  2.13937  0  0  -0.494503  0  2.406027  0  0  -0.528464  0  2.400159  0  0  -0.302783  -0.471137  0  2.409073  0
O  O75  1  0.67879348  0.80828465  0.47965737  1  0  -0.540616  0  2.141086  0  0  -0.495251  0  2.408451  0  0  -0.529418  0  2.402425  0  0  -0.304453  -0.471722  0  2.411513  0
O  O76  1  0.30790448  0.41043349  0.98980668  1  0  -0.546901  0  2.138788  0  0  -0.501987  0  2.406935  0  0  -0.536072  0  2.401372  0  0  -0.303556  -0.478503  0  2.40954  0
O  O77  1  0.70738592  0.08931918  0.51010369  1  0  -0.546709  0  2.140821  0  0  -0.50125  0  2.409422  0  0  -0.535377  0  2.403533  0  0  -0.303515  -0.477765  0  2.412372  0
O  O78  1  0.69209816  0.58955371  0.01019759  1  0  -0.546857  0  2.13873  0  0  -0.501962  0  2.406832  0  0  -0.536039  0  2.401283  0  0  -0.303576  -0.478481  0  2.409447  0
O  O79  1  0.29260648  0.91068226  0.48990289  1  0  -0.546766  0  2.140656  0  0  -0.501356  0  2.409318  0  0  -0.53547  0  2.403432  0  0  -0.303666  -0.477867  0  2.412267  0
O  O80  1  0.12074707  0.66329045  0.87117295  1  0  -0.524715  0  2.151059  0  0  -0.475508  0  2.415002  0  0  -0.508149  0  2.409208  0  0  -0.290618  -0.453418  0  2.418153  0
O  O81  1  0.65459670  0.83644420  0.62866156  1  0  -0.526342  0  2.151144  0  0  -0.477306  0  2.415813  0  0  -0.509342  0  2.40929  0  0  -0.292365  -0.455973  0  2.419859  0
O  O82  1  0.87926130  0.33670534  0.12882395  1  0  -0.524777  0  2.150952  0  0  -0.475528  0  2.414952  0  0  -0.508173  0  2.409169  0  0  -0.290612  -0.453439  0  2.418115  0
O  O83  1  0.34538653  0.16356294  0.37134535  1  0  -0.526272  0  2.150753  0  0  -0.477267  0  2.415537  0  0  -0.509301  0  2.409013  0  0  -0.292317  -0.455938  0  2.419594  0
O  O84  1  0.85183231  0.55843301  0.86284912  1  0  -0.524476  0  2.135343  0  0  -0.476708  0  2.395573  0  0  -0.510014  0  2.389564  0  0  -0.29579  -0.453849  0  2.398523  0
O  O85  1  0.27155282  0.94150616  0.63737180  1  0  -0.525714  0  2.133394  0  0  -0.477801  0  2.394826  0  0  -0.510275  0  2.387817  0  0  -0.298135  -0.455935  0  2.39896  0
O  O86  1  0.14817378  0.44156752  0.13714957  1  0  -0.524457  0  2.135193  0  0  -0.47665  0  2.395457  0  0  -0.509969  0  2.389438  0  0  -0.295741  -0.453792  0  2.398417  0
O  O87  1  0.72843003  0.05850480  0.36263176  1  0  -0.525754  0  2.133386  0  0  -0.477871  0  2.394869  0  0  -0.510351  0  2.387849  0  0  -0.298225  -0.455994  0  2.398981  0
