# generated using pymatgen
data_CuH24C22(NO2)2
_symmetry_space_group_name_H-M   'P 1'
_cell_length_a   9.59332969
_cell_length_b   10.65633083
_cell_length_c   20.87242033
_cell_angle_alpha   103.60016852
_cell_angle_beta   90.00056019
_cell_angle_gamma   89.99936081
_symmetry_Int_Tables_number   1
_chemical_formula_structural   CuH24C22(NO2)2
_chemical_formula_sum   'Cu4 H96 C88 N8 O16'
_cell_volume   2073.95059987
_cell_formula_units_Z   4
loop_
 _symmetry_equiv_pos_site_id
 _symmetry_equiv_pos_as_xyz
  1  'x, y, z'
loop_
 _atom_site_type_symbol
 _atom_site_label
 _atom_site_symmetry_multiplicity
 _atom_site_fract_x
 _atom_site_fract_y
 _atom_site_fract_z
 _atom_site_occupancy
 _atom_site_pbe_bader_charge
 _atom_site_pbe_bader_spin_density
 _atom_site_pbe_cm5_charge
 _atom_site_pbe_ddec_charge
 _atom_site_pbe_ddec_spin_density
 _atom_site_pbe_ddec_sum_bond_order
 _atom_site_pbe_magmom
Cu  Cu0  1  0.07134807  0.85186217  0.98912470  1  1.081987  -0.562192  0.740034  0.798351  -0.752273  2.230145  -0.563
Cu  Cu1  1  0.42864645  0.35187546  0.48913081  1  1.082269  0.56219  0.740158  0.798431  0.75227  2.2303  0.563
Cu  Cu2  1  0.92866319  0.14813297  0.01086416  1  1.082206  0.562182  0.740098  0.798446  0.752262  2.229898  0.563
Cu  Cu3  1  0.57132520  0.64813272  0.51087339  1  1.08235  -0.5622  0.740088  0.798461  -0.752272  2.229941  -0.563
H  H4  1  0.36162273  0.80117785  0.04425366  1  0.118798  -0.002541  0.122076  0.085079  -0.001253  1.026836  -0.001
H  H5  1  0.13836021  0.30116738  0.54425736  1  0.119033  0.002542  0.12207  0.085129  0.001254  1.026798  0.001
H  H6  1  0.63836454  0.19884070  0.95574452  1  0.119069  0.002542  0.122075  0.085197  0.001254  1.026751  0.001
H  H7  1  0.86161769  0.69881402  0.45575106  1  0.118661  -0.002542  0.122049  0.085037  -0.001253  1.026884  -0.001
H  H8  1  0.44888291  0.64252483  0.10634213  1  0.059424  -0.001101  0.109362  0.109586  -0.000553  1.039222  -0.001
H  H9  1  0.05113248  0.14250270  0.60634892  1  0.059373  0.001101  0.109353  0.109464  0.000553  1.039399  0.001
H  H10  1  0.55112939  0.35750813  0.89365573  1  0.05934  0.001102  0.109381  0.109569  0.000553  1.039343  0.001
H  H11  1  0.94888086  0.85747217  0.39366499  1  0.059428  -0.001101  0.109369  0.109637  -0.000553  1.039259  -0.001
H  H12  1  0.28120103  0.48975197  0.14001081  1  0.093969  -4.6e-05  0.121462  0.122147  -2.6e-05  0.964435  0.0
H  H13  1  0.21885030  0.98975720  0.64001941  1  0.09349  4.6e-05  0.121447  0.122321  2.6e-05  0.964195  0.0
H  H14  1  0.71884045  0.51025377  0.85997876  1  0.093405  4.6e-05  0.121438  0.122278  2.6e-05  0.964254  0.0
H  H15  1  0.78119119  0.01023970  0.35999217  1  0.09397  -4.6e-05  0.121434  0.122199  -2.6e-05  0.964428  0.0
H  H16  1  0.02704577  0.41240115  0.14112489  1  0.175768  -0.000526  0.110453  0.137757  -0.000279  1.043774  0.0
H  H17  1  0.47299717  0.91241658  0.64112862  1  0.175465  0.000526  0.110499  0.137849  0.000279  1.04367  0.0
H  H18  1  0.97298633  0.58758442  0.85886530  1  0.1758  0.000525  0.110496  0.137864  0.000279  1.043773  0.0
H  H19  1  0.52704223  0.08759043  0.35886971  1  0.175649  -0.000526  0.110459  0.137772  -0.000279  1.043776  0.0
H  H20  1  0.78305707  0.42976399  0.10757843  1  0.172792  -0.000597  0.109981  0.132888  -0.000374  1.031053  0.0
H  H21  1  0.71698917  0.92979016  0.60758073  1  0.172605  0.000597  0.110043  0.132898  0.000374  1.03109  0.0
H  H22  1  0.21697607  0.57021687  0.89241459  1  0.172643  0.000597  0.110018  0.132881  0.000374  1.031127  0.0
H  H23  1  0.28305127  0.07023707  0.39241841  1  0.172716  -0.000597  0.109987  0.132927  -0.000374  1.031043  0.0
H  H24  1  0.60548971  0.53384405  0.04653485  1  0.079564  -8.4e-05  0.113842  0.116736  -3.6e-05  0.99102  0.0
H  H25  1  0.89454253  0.03389975  0.54653943  1  0.079156  8.5e-05  0.113771  0.116707  3.6e-05  0.991216  0.0
H  H26  1  0.39453092  0.46613215  0.95346244  1  0.079398  8.5e-05  0.113796  0.116782  3.6e-05  0.991125  0.0
H  H27  1  0.10548436  0.96616515  0.45346438  1  0.079403  -8.4e-05  0.113781  0.116654  -3.6e-05  0.991114  0.0
H  H28  1  0.55303987  0.70330096  0.98243188  1  0.148355  -0.001018  0.107098  0.121732  -0.000584  1.040884  -0.001
H  H29  1  0.94696578  0.20335815  0.48243291  1  0.14774  0.001019  0.107116  0.121887  0.000583  1.040561  0.001
H  H30  1  0.44696617  0.29668133  0.01757424  1  0.148071  0.001018  0.107056  0.121706  0.000583  1.040742  0.001
H  H31  1  0.05303296  0.79670852  0.51756679  1  0.148386  -0.001018  0.107099  0.121759  -0.000583  1.040844  -0.001
H  H32  1  0.74465316  0.85275257  0.96629495  1  0.148618  -0.002397  0.127674  0.106925  -0.001133  0.98983  -0.002
H  H33  1  0.75532006  0.35278726  0.46629403  1  0.147919  0.002397  0.127588  0.106833  0.001133  0.990081  0.002
H  H34  1  0.25533934  0.14723336  0.03370534  1  0.14795  0.002398  0.127667  0.106972  0.001133  0.9899  0.002
H  H35  1  0.24464324  0.64725143  0.53370255  1  0.148718  -0.002398  0.127655  0.106926  -0.001133  0.989847  -0.002
H  H36  1  0.49316878  0.99175731  0.92387402  1  0.009292  0.000366  0.090032  0.098327  0.000241  0.994115  0.0
H  H37  1  0.00680597  0.49173285  0.42385483  1  0.00944  -0.000367  0.089946  0.098174  -0.000241  0.994076  0.0
H  H38  1  0.50683101  0.00826668  0.07614201  1  0.009676  -0.000367  0.089938  0.098144  -0.000241  0.994265  0.0
H  H39  1  0.99316359  0.50824880  0.57613301  1  0.009599  0.000367  0.09001  0.098266  0.000241  0.994113  0.0
H  H40  1  0.50868388  0.85638466  0.85579571  1  0.056439  -0.002982  0.09504  0.11064  -0.001506  0.981572  -0.002
H  H41  1  0.99134020  0.35634365  0.35577643  1  0.05595  0.002982  0.095037  0.110672  0.001506  0.981337  0.002
H  H42  1  0.49134926  0.14364515  0.14422193  1  0.056158  0.002981  0.095021  0.110642  0.001506  0.981555  0.002
H  H43  1  0.00866689  0.64362839  0.64421178  1  0.056248  -0.00298  0.09503  0.110647  -0.001506  0.981562  -0.002
H  H44  1  0.26526690  0.04933628  0.87686435  1  0.007139  -0.00021  0.085385  0.083385  -0.000129  1.008201  0.0
H  H45  1  0.23473433  0.54931770  0.37685204  1  0.007881  0.00021  0.085326  0.083266  0.000129  1.00842  0.0
H  H46  1  0.73475165  0.95067107  0.12314360  1  0.007542  0.00021  0.085309  0.083306  0.000129  1.008283  0.0
H  H47  1  0.76526025  0.45066630  0.62314804  1  0.00756  -0.00021  0.085352  0.083275  -0.000129  1.008373  0.0
H  H48  1  0.29377319  0.92585387  0.80548058  1  0.004633  -9.8e-05  0.091048  0.088361  -2.5e-05  0.969548  0.0
H  H49  1  0.20623020  0.42582677  0.30546105  1  0.004305  9.8e-05  0.09102  0.08826  2.5e-05  0.969377  0.0
H  H50  1  0.70625266  0.07416430  0.19453433  1  0.004677  9.8e-05  0.091021  0.088287  2.5e-05  0.969318  0.0
H  H51  1  0.79377376  0.57415509  0.69453304  1  0.00451  -9.8e-05  0.090965  0.08817  -2.5e-05  0.969498  0.0
H  H52  1  0.50143226  0.14520328  0.85555901  1  -0.047358  1.6e-05  0.07655  0.056758  1.7e-05  1.047411  0.0
H  H53  1  0.99855798  0.64518336  0.35554393  1  -0.047372  -1.6e-05  0.076488  0.056754  -1.7e-05  1.047389  0.0
H  H54  1  0.49857379  0.85482738  0.14445537  1  -0.047451  -1.6e-05  0.076524  0.056796  -1.7e-05  1.047341  0.0
H  H55  1  0.00143346  0.35480147  0.64445241  1  -0.047524  1.6e-05  0.076498  0.056748  1.7e-05  1.047462  0.0
H  H56  1  0.50813996  0.03328710  0.77894634  1  0.02505  -6.7e-05  0.089002  0.087826  -4.4e-05  0.978572  0.0
H  H57  1  0.99186992  0.53327585  0.27893028  1  0.024908  6.7e-05  0.088944  0.087911  4.4e-05  0.978455  0.0
H  H58  1  0.49188380  0.96673482  0.22106563  1  0.02497  6.7e-05  0.088946  0.087915  4.4e-05  0.978454  0.0
H  H59  1  0.00813820  0.46671467  0.72106382  1  0.025043  -6.7e-05  0.088945  0.087807  -4.4e-05  0.978609  0.0
H  H60  1  0.27749349  0.23525037  0.82429662  1  0.014424  -1.7e-05  0.07833  0.067067  -9e-06  1.019321  0.0
H  H61  1  0.22250330  0.73522909  0.32428683  1  0.014299  1.7e-05  0.078324  0.067078  9e-06  1.019213  0.0
H  H62  1  0.72250318  0.76475893  0.17571202  1  0.014185  1.7e-05  0.078274  0.066976  9e-06  1.019195  0.0
H  H63  1  0.77749545  0.26475777  0.67571261  1  0.014377  -1.7e-05  0.078261  0.066955  -9e-06  1.019236  0.0
H  H64  1  0.27967304  0.12376735  0.74769671  1  0.019262  -1.9e-05  0.081864  0.069173  -1.6e-05  1.013978  0.0
H  H65  1  0.22032670  0.62376443  0.24768895  1  0.018996  1.9e-05  0.081863  0.069179  1.6e-05  1.01417  0.0
H  H66  1  0.72033300  0.87622933  0.25230861  1  0.019069  1.9e-05  0.081853  0.069129  1.6e-05  1.0142  0.0
H  H67  1  0.77967517  0.37623491  0.75230996  1  0.019134  -1.9e-05  0.081847  0.069093  -1.6e-05  1.01413  0.0
H  H68  1  0.50927867  0.32561848  0.79466812  1  0.002212  4.7e-05  0.080404  0.067534  3.9e-05  1.024856  0.0
H  H69  1  0.99071328  0.82561256  0.29466654  1  0.002233  -4.7e-05  0.080444  0.067569  -3.9e-05  1.024781  0.0
H  H70  1  0.49070444  0.67440512  0.20533685  1  0.001787  -4.7e-05  0.080392  0.067512  -3.9e-05  1.024866  0.0
H  H71  1  0.00927921  0.17437737  0.70533803  1  0.002321  4.7e-05  0.080365  0.067466  3.9e-05  1.02489  0.0
H  H72  1  0.50135638  0.21789842  0.71736926  1  0.012462  1.2e-05  0.080637  0.070999  5e-06  1.020501  0.0
H  H73  1  0.99864681  0.71789893  0.21736076  1  0.012868  -1.2e-05  0.080641  0.07104  -5e-06  1.020507  0.0
H  H74  1  0.49864653  0.78211672  0.28264148  1  0.01274  -1.2e-05  0.080651  0.071024  -5e-06  1.020619  0.0
H  H75  1  0.00135611  0.28209855  0.78263986  1  0.012857  1.2e-05  0.080628  0.071007  5e-06  1.020444  0.0
H  H76  1  0.28943022  0.43258361  0.77270662  1  0.016948  -2.3e-05  0.085973  0.082055  -1.9e-05  0.990589  0.0
H  H77  1  0.21056094  0.93258893  0.27271219  1  0.016612  2.3e-05  0.086017  0.082177  1.9e-05  0.990608  0.0
H  H78  1  0.71054872  0.56741470  0.22729026  1  0.016788  2.3e-05  0.085971  0.082042  1.9e-05  0.990503  0.0
H  H79  1  0.78942946  0.06741463  0.72729725  1  0.016973  -2.3e-05  0.08599  0.082111  -1.9e-05  0.990582  0.0
H  H80  1  0.26959868  0.31956453  0.69715560  1  -0.006067  -4e-06  0.079094  0.068692  0.0  1.031484  0.0
H  H81  1  0.23039967  0.81958003  0.19715473  1  -0.00615  4e-06  0.07911  0.068708  -0.0  1.031523  0.0
H  H82  1  0.73038756  0.68041578  0.30284885  1  -0.005099  4e-06  0.079057  0.068632  -0.0  1.031479  0.0
H  H83  1  0.76960012  0.18042738  0.80285514  1  -0.005242  -4e-06  0.079115  0.068776  0.0  1.031363  0.0
H  H84  1  0.50821777  0.51592616  0.73298690  1  0.019407  -2.4e-05  0.089993  0.083596  9e-06  0.974676  0.0
H  H85  1  0.99178097  0.01592820  0.23298870  1  0.019281  2.4e-05  0.090024  0.083615  -9e-06  0.974661  0.0
H  H86  1  0.49175908  0.48407384  0.26700346  1  0.019043  2.3e-05  0.090125  0.083709  -9e-06  0.974615  0.0
H  H87  1  0.00822299  0.98407405  0.76701101  1  0.019145  -2.4e-05  0.090074  0.08364  9e-06  0.974583  0.0
H  H88  1  0.50175184  0.39397190  0.65947182  1  0.004928  -0.000238  0.08322  0.07374  -0.000122  1.009684  0.0
H  H89  1  0.99824066  0.89399309  0.15947713  1  0.005101  0.000238  0.083221  0.073756  0.000122  1.009547  0.0
H  H90  1  0.49822189  0.60600405  0.34051826  1  0.005082  0.000238  0.08323  0.073746  0.000122  1.009571  0.0
H  H91  1  0.00175808  0.10600070  0.84052788  1  0.005064  -0.000238  0.083243  0.073716  -0.000122  1.009596  0.0
H  H92  1  0.26988468  0.48428680  0.63218188  1  0.004871  6.3e-05  0.089349  0.096065  -1.5e-05  1.020178  0.0
H  H93  1  0.23009464  0.98431498  0.13218578  1  0.005294  -6.4e-05  0.089419  0.096135  1.5e-05  1.020449  0.0
H  H94  1  0.73006716  0.51568262  0.36781370  1  0.005572  -6.4e-05  0.089474  0.096316  1.5e-05  1.020427  0.0
H  H95  1  0.76991870  0.01568277  0.86782254  1  0.005313  6.3e-05  0.089391  0.096167  -1.5e-05  1.020478  0.0
H  H96  1  0.28996938  0.61375363  0.70329569  1  0.06397  -0.002554  0.100044  0.118487  -0.001296  0.968964  -0.001
H  H97  1  0.21000040  0.11377714  0.20329428  1  0.064  0.002554  0.099949  0.118398  0.001297  0.969048  0.001
H  H98  1  0.70999184  0.38622635  0.29669962  1  0.064004  0.002555  0.099939  0.118411  0.001297  0.969072  0.001
H  H99  1  0.78997750  0.88623943  0.79670224  1  0.063842  -0.002556  0.099989  0.118412  -0.001297  0.969096  -0.001
C  C100  1  0.29131717  0.73431258  0.06002205  1  0.491887  0.002715  0.064542  0.116556  0.001037  3.941889  0.002
C  C101  1  0.20868987  0.23431122  0.56002805  1  0.491521  -0.002715  0.064517  0.116481  -0.001037  3.941858  -0.002
C  C102  1  0.70868678  0.26569325  0.93996991  1  0.492038  -0.002713  0.064444  0.11633  -0.001036  3.941836  -0.002
C  C103  1  0.79130680  0.76568077  0.43998058  1  0.491535  0.002715  0.064507  0.116451  0.001036  3.942023  0.002
C  C104  1  0.33873124  0.64452077  0.09466285  1  0.043511  -0.005041  -0.08273  -0.144042  -0.003597  3.997681  -0.004
C  C105  1  0.16128076  0.14452078  0.59466926  1  0.043984  0.005041  -0.082661  -0.143847  0.003597  3.997775  0.004
C  C106  1  0.66127897  0.35549187  0.90533131  1  0.044058  0.005043  -0.082683  -0.144017  0.003598  3.997799  0.004
C  C107  1  0.83873050  0.85547034  0.40534215  1  0.043935  -0.005042  -0.082724  -0.144107  -0.003598  3.997602  -0.004
C  C108  1  0.24577883  0.56126316  0.11387261  1  -0.089142  0.004358  -0.052581  -0.059152  0.002939  3.911331  0.003
C  C109  1  0.25423982  0.06126224  0.61387455  1  -0.088788  -0.004359  -0.052704  -0.059553  -0.00294  3.911146  -0.003
C  C110  1  0.75423451  0.43874467  0.88612150  1  -0.089017  -0.004358  -0.052616  -0.05929  -0.002939  3.911216  -0.003
C  C111  1  0.74577874  0.93873948  0.38613708  1  -0.089571  0.004358  -0.052542  -0.059189  0.002939  3.911287  0.003
C  C112  1  0.10301590  0.56892558  0.09896970  1  0.05385  -0.00341  0.004832  0.054951  -0.002515  3.99071  -0.003
C  C113  1  0.39700861  0.06893815  0.59897907  1  0.053549  0.00341  0.004972  0.055152  0.002514  3.990617  0.003
C  C114  1  0.89700161  0.43106758  0.90101750  1  0.053842  0.003409  0.004864  0.054985  0.002513  3.990529  0.003
C  C115  1  0.60300578  0.93106630  0.40102855  1  0.053939  -0.00341  0.004846  0.055007  -0.002514  3.990788  -0.003
C  C116  1  0.99760379  0.48719846  0.11583073  1  0.00045  -0.001078  -0.080369  -0.12812  -0.00084  3.948394  -0.001
C  C117  1  0.50243774  0.98721613  0.61584116  1  0.001811  0.001078  -0.080369  -0.128199  0.00084  3.94808  0.001
C  C118  1  0.00242206  0.51278884  0.88415391  1  0.001127  0.001078  -0.080292  -0.128049  0.000839  3.947969  0.001
C  C119  1  0.49759437  0.01279881  0.38416381  1  0.00054  -0.001078  -0.080368  -0.12813  -0.00084  3.94834  -0.001
C  C120  1  0.86170912  0.49695490  0.09761797  1  -0.085246  -0.001272  -0.079881  -0.12518  -0.000971  3.952879  -0.001
C  C121  1  0.63833087  0.99698179  0.59762191  1  -0.086034  0.001272  -0.079902  -0.125156  0.000971  3.952514  0.001
C  C122  1  0.13832090  0.50302389  0.90237099  1  -0.085652  0.001272  -0.07997  -0.125269  0.000971  3.952642  0.001
C  C123  1  0.36170228  0.00304565  0.40238301  1  -0.08502  -0.001272  -0.079852  -0.125208  -0.000971  3.952666  -0.001
C  C124  1  0.82095381  0.59012003  0.06161866  1  -0.045192  -0.003249  0.001564  0.050119  -0.002395  4.010291  -0.003
C  C125  1  0.67907283  0.09016020  0.56162291  1  -0.04492  0.003252  0.001401  0.049914  0.002396  4.010569  0.003
C  C126  1  0.17905953  0.40985609  0.93837623  1  -0.045353  0.003252  0.00154  0.050094  0.002396  4.010261  0.003
C  C127  1  0.32094468  0.90987391  0.43838035  1  -0.045262  -0.00325  0.00157  0.050048  -0.002396  4.010242  -0.003
C  C128  1  0.68462544  0.60164908  0.03817661  1  -0.00871  0.004455  -0.060597  -0.07128  0.003016  3.916524  0.003
C  C129  1  0.81539640  0.10170257  0.53818154  1  -0.007654  -0.004457  -0.060517  -0.071266  -0.003017  3.916881  -0.003
C  C130  1  0.31538999  0.39832899  0.96181897  1  -0.008241  -0.004457  -0.060564  -0.071429  -0.003017  3.916658  -0.003
C  C131  1  0.18461485  0.89835962  0.46182724  1  -0.008274  0.004456  -0.060589  -0.071268  0.003016  3.916517  0.003
C  C132  1  0.65589308  0.69446284  0.00345067  1  -0.069307  -0.006171  -0.08027  -0.129779  -0.004271  3.939113  -0.005
C  C133  1  0.84411542  0.19451997  0.50345661  1  -0.068106  0.006169  -0.080363  -0.130139  0.004272  3.938732  0.005
C  C134  1  0.34411713  0.30550849  0.99654465  1  -0.069315  0.006171  -0.080267  -0.129773  0.004271  3.93874  0.005
C  C135  1  0.15588124  0.80554111  0.49654774  1  -0.069674  -0.006173  -0.080256  -0.129788  -0.004272  3.939004  -0.005
C  C136  1  0.76356391  0.77609286  0.99168256  1  0.524021  0.002835  0.07052  0.13427  0.001153  3.877413  0.002
C  C137  1  0.73641600  0.27612093  0.49168033  1  0.523668  -0.002836  0.07067  0.134596  -0.001155  3.876999  -0.002
C  C138  1  0.23642962  0.22390478  0.00832287  1  0.524926  -0.002836  0.070608  0.134347  -0.001154  3.877271  -0.002
C  C139  1  0.26355669  0.72390608  0.50831256  1  0.524017  0.002837  0.070511  0.134319  0.001154  3.877206  0.002
C  C140  1  0.92283224  0.67354782  0.04538581  1  0.425019  -0.001025  0.113491  0.106027  -0.001308  4.01654  -0.001
C  C141  1  0.57717634  0.17358031  0.54539354  1  0.424601  0.001021  0.113756  0.106528  0.001307  4.016302  0.001
C  C142  1  0.07717485  0.32642324  0.95460180  1  0.424631  0.001021  0.11367  0.106312  0.001307  4.016033  0.001
C  C143  1  0.42282032  0.82644817  0.45461389  1  0.425178  -0.001024  0.113554  0.106256  -0.001307  4.016541  -0.001
C  C144  1  0.06477797  0.66215455  0.06371878  1  0.455744  -0.000738  0.118019  0.120094  -0.001162  3.992284  -0.001
C  C145  1  0.43523527  0.16216087  0.56372333  1  0.456433  0.000738  0.118014  0.119877  0.001162  3.992526  0.001
C  C146  1  0.93523016  0.33784169  0.93627403  1  0.455866  0.000738  0.117842  0.119707  0.001162  3.992095  0.001
C  C147  1  0.56476244  0.83784161  0.43628264  1  0.454557  -0.000739  0.118074  0.119958  -0.001162  3.992241  -0.001
C  C148  1  0.34290071  0.84378215  0.92334538  1  1.548698  -0.002353  0.202581  0.625512  -0.003182  4.156474  0.0
C  C149  1  0.15710611  0.34377322  0.42333867  1  1.548758  0.002354  0.202507  0.625322  0.003183  4.156635  0.0
C  C150  1  0.65710742  0.15622883  0.07665627  1  1.548437  0.002353  0.202695  0.625596  0.003181  4.156347  0.0
C  C151  1  0.84287908  0.65621540  0.57665618  1  1.548868  -0.002349  0.202694  0.625734  -0.00318  4.156634  0.0
C  C152  1  0.43342316  0.92182545  0.88644561  1  -0.030816  -0.013073  -0.16635  -0.283991  -0.0096  3.916965  -0.01
C  C153  1  0.06657672  0.42179962  0.38642893  1  -0.030475  0.013072  -0.166238  -0.283862  0.0096  3.916596  0.01
C  C154  1  0.56659331  0.07819848  0.11356898  1  -0.030624  0.013075  -0.166251  -0.283835  0.009603  3.916856  0.01
C  C155  1  0.93341160  0.57818505  0.61356308  1  -0.03081  -0.013079  -0.16643  -0.284137  -0.009605  3.916918  -0.01
C  C156  1  0.34752822  0.99538904  0.84524152  1  0.038346  -5.8e-05  -0.166913  -0.121014  -6.4e-05  3.935746  0.0
C  C157  1  0.15248032  0.49536348  0.34522574  1  0.037912  5.8e-05  -0.166838  -0.120679  6.4e-05  3.93548  0.0
C  C158  1  0.65250284  0.00462909  0.15477195  1  0.037601  5.8e-05  -0.166861  -0.120742  6.4e-05  3.935191  0.0
C  C159  1  0.84751634  0.50461937  0.65476893  1  0.038017  -5.8e-05  -0.166767  -0.120462  -6.4e-05  3.935329  0.0
C  C160  1  0.43536860  0.08786368  0.81615879  1  0.026231  -0.000483  -0.16976  -0.145389  -0.000359  3.953281  0.0
C  C161  1  0.06463403  0.58784459  0.31614659  1  0.025925  0.000483  -0.169633  -0.14562  0.000359  3.953346  0.0
C  C162  1  0.56464682  0.91215729  0.18385355  1  0.026171  0.000482  -0.169664  -0.145737  0.000359  3.953237  0.0
C  C163  1  0.93536784  0.41214025  0.68385022  1  0.025978  -0.000483  -0.169669  -0.145611  -0.000359  3.953257  0.0
C  C164  1  0.34836144  0.17995765  0.78635275  1  -0.037988  -0.00033  -0.170589  -0.142135  -0.00022  3.956131  0.0
C  C165  1  0.15163110  0.67994273  0.28634286  1  -0.037122  0.00033  -0.170557  -0.142064  0.00022  3.956463  0.0
C  C166  1  0.65163523  0.82004977  0.21365712  1  -0.03716  0.00033  -0.170525  -0.141844  0.00022  3.956308  0.0
C  C167  1  0.84836556  0.32004128  0.71365770  1  -0.037268  -0.00033  -0.170471  -0.141783  -0.00022  3.956193  0.0
C  C168  1  0.43546691  0.27333963  0.75742798  1  -0.015176  -0.000175  -0.171817  -0.146802  -0.000112  3.963021  0.0
C  C169  1  0.06452594  0.77333622  0.25742376  1  -0.015663  0.000175  -0.171879  -0.146886  0.000112  3.963152  0.0
C  C170  1  0.56452141  0.72667344  0.24257869  1  -0.01503  0.000175  -0.171831  -0.146894  0.000112  3.963472  0.0
C  C171  1  0.93546446  0.22665652  0.74257873  1  -0.015751  -0.000174  -0.171818  -0.146793  -0.000112  3.963605  0.0
C  C172  1  0.34855252  0.37115442  0.73178852  1  0.003231  -0.000529  -0.171022  -0.144549  -0.000388  3.947676  0.0
C  C173  1  0.15144484  0.87116311  0.23179372  1  0.003891  0.000529  -0.171038  -0.144763  0.000388  3.947657  0.0
C  C174  1  0.65142746  0.62884105  0.26820948  1  0.00272  0.000529  -0.170955  -0.144483  0.000388  3.947491  0.0
C  C175  1  0.84855704  0.12883458  0.76821267  1  0.002104  -0.000529  -0.171034  -0.1448  -0.000388  3.947839  0.0
C  C176  1  0.43611040  0.45573227  0.69750620  1  -0.001047  4.6e-05  -0.162828  -0.11322  3.6e-05  3.929056  0.0
C  C177  1  0.06388103  0.95574942  0.19751241  1  -0.001443  -4.7e-05  -0.162974  -0.113237  -3.6e-05  3.928948  0.0
C  C178  1  0.56386333  0.54425134  0.30248281  1  -0.000978  -4.7e-05  -0.163014  -0.113234  -3.6e-05  3.929288  0.0
C  C179  1  0.93611771  0.04424523  0.80248981  1  -0.000701  4.7e-05  -0.163022  -0.113211  3.6e-05  3.929114  0.0
C  C180  1  0.34658377  0.54325456  0.66528305  1  -0.014707  -0.010915  -0.16847  -0.295847  -0.008114  3.923846  -0.008
C  C181  1  0.15339133  0.04327006  0.16528671  1  -0.014841  0.010916  -0.16843  -0.295988  0.008116  3.924071  0.008
C  C182  1  0.65337328  0.45672527  0.33470794  1  -0.014803  0.010914  -0.168527  -0.296246  0.008116  3.924377  0.008
C  C183  1  0.84660638  0.95672547  0.83471321  1  -0.014398  -0.010913  -0.168469  -0.296037  -0.008116  3.924294  -0.008
C  C184  1  0.43644640  0.61654354  0.62629564  1  1.543857  8e-06  0.200672  0.626182  -0.000754  4.154996  0.002
C  C185  1  0.06351656  0.11654535  0.12629880  1  1.543304  -6e-06  0.20091  0.626816  0.000754  4.153863  -0.002
C  C186  1  0.56350336  0.38343517  0.37369091  1  1.542116  -1e-06  0.200839  0.626561  0.000755  4.154154  -0.002
C  C187  1  0.93647488  0.88342374  0.87368764  1  1.542303  -0.0  0.201022  0.626855  -0.000754  4.154106  0.002
N  N188  1  0.15768349  0.74214843  0.04450213  1  -1.216406  -0.077913  -0.340331  -0.268946  -0.054142  3.633023  -0.068
N  N189  1  0.34232105  0.24214963  0.54450328  1  -1.216379  0.077907  -0.340385  -0.268925  0.05414  3.633073  0.068
N  N190  1  0.84231421  0.25785277  0.95549507  1  -1.216423  0.077913  -0.340244  -0.268734  0.054143  3.632924  0.068
N  N191  1  0.65767353  0.75784514  0.45550231  1  -1.215098  -0.077917  -0.340426  -0.26886  -0.054148  3.632823  -0.068
N  N192  1  0.89409677  0.76412962  0.01109082  1  -1.197298  -0.079434  -0.33074  -0.264168  -0.055245  3.594792  -0.069
N  N193  1  0.60588495  0.26415493  0.51109260  1  -1.197901  0.079436  -0.330912  -0.264448  0.055244  3.594894  0.069
N  N194  1  0.10590093  0.23585120  0.98890076  1  -1.197221  0.079435  -0.330866  -0.264334  0.055244  3.594899  0.069
N  N195  1  0.39408878  0.73587051  0.48891017  1  -1.197176  -0.079433  -0.330773  -0.264279  -0.055244  3.594923  -0.069
O  O196  1  0.24671193  0.91280639  0.95914668  1  -1.124797  -0.106052  -0.34317  -0.568533  -0.070162  2.347656  -0.095
O  O197  1  0.25327495  0.41281321  0.45914600  1  -1.124783  0.106036  -0.343155  -0.568454  0.070152  2.347691  0.095
O  O198  1  0.75330036  0.08720476  0.04085978  1  -1.1253  0.106032  -0.343187  -0.56865  0.070152  2.34785  0.095
O  O199  1  0.74667481  0.58718853  0.54086660  1  -1.125533  -0.10603  -0.343105  -0.568627  -0.070146  2.347925  -0.095
O  O200  1  0.36638125  0.72635992  0.91859775  1  -1.197414  -0.005364  -0.341037  -0.586394  -0.003096  2.12908  -0.004
O  O201  1  0.13363111  0.22635050  0.41859903  1  -1.197481  0.005365  -0.341045  -0.58634  0.003097  2.128983  0.004
O  O202  1  0.63362479  0.27365668  0.08139973  1  -1.197152  0.005364  -0.341094  -0.586427  0.003096  2.128933  0.004
O  O203  1  0.86637806  0.77363738  0.58140196  1  -1.197193  -0.005363  -0.341083  -0.586463  -0.003096  2.129042  -0.004
O  O204  1  0.46478253  0.55370510  0.56577900  1  -1.118267  -0.113627  -0.342067  -0.586182  -0.075574  2.427604  -0.101
O  O205  1  0.03519145  0.05370427  0.06578221  1  -1.118303  0.113643  -0.342078  -0.586455  0.075586  2.427464  0.101
O  O206  1  0.53515993  0.44627637  0.43420403  1  -1.117949  0.113639  -0.342108  -0.586426  0.075582  2.427755  0.101
O  O207  1  0.96482189  0.94625981  0.93419840  1  -1.118125  -0.113613  -0.342139  -0.586453  -0.075567  2.4276  -0.101
O  O208  1  0.47964056  0.72711637  0.65157674  1  -1.190422  -0.001544  -0.332679  -0.562765  -0.000679  2.106207  -0.002
O  O209  1  0.02030590  0.22711855  0.15158022  1  -1.190019  0.001547  -0.332859  -0.563051  0.00068  2.105592  0.002
O  O210  1  0.52029460  0.27286042  0.34840959  1  -1.189807  0.001543  -0.332778  -0.562931  0.000678  2.105692  0.002
O  O211  1  0.97966783  0.77284361  0.84840065  1  -1.189697  -0.001546  -0.332817  -0.563012  -0.00068  2.105602  -0.002
