# generated using pymatgen
data_CoH10C11NO4
_symmetry_space_group_name_H-M   'P 1'
_cell_length_a   13.55306005
_cell_length_b   13.55293823
_cell_length_c   14.72550707
_cell_angle_alpha   90.07663001
_cell_angle_beta   90.07722732
_cell_angle_gamma   80.88632929
_symmetry_Int_Tables_number   1
_chemical_formula_structural   CoH10C11NO4
_chemical_formula_sum   'Co8 H80 C88 N8 O32'
_cell_volume   2670.68698240
_cell_formula_units_Z   8
loop_
 _symmetry_equiv_pos_site_id
 _symmetry_equiv_pos_as_xyz
  1  'x, y, z'
loop_
 _atom_site_type_symbol
 _atom_site_label
 _atom_site_symmetry_multiplicity
 _atom_site_fract_x
 _atom_site_fract_y
 _atom_site_fract_z
 _atom_site_occupancy
 _atom_site_pbe_bader_charge
 _atom_site_pbe_bader_spin_density
 _atom_site_pbe_cm5_charge
 _atom_site_pbe_ddec_charge
 _atom_site_pbe_ddec_spin_density
 _atom_site_pbe_ddec_sum_bond_order
 _atom_site_pbe_magmom
Co  Co0  1  0.70493215  0.55249432  0.96011765  1  1.268971  2.578816  0.657148  0.89216  2.779977  2.475158  2.56
Co  Co1  1  0.52517786  0.54149337  0.08751851  1  1.327404  2.65587  0.643133  1.073995  2.861531  2.330698  2.639
Co  Co2  1  0.44750406  0.29508545  0.53989244  1  1.268808  2.578894  0.656904  0.891975  2.779952  2.474432  2.56
Co  Co3  1  0.45850938  0.47484320  0.41247226  1  1.327023  2.655868  0.643144  1.074006  2.861488  2.330658  2.639
Co  Co4  1  0.29507147  0.44750281  0.03987296  1  1.269224  2.579016  0.657081  0.89225  2.780192  2.474718  2.56
Co  Co5  1  0.47485100  0.45850430  0.91242385  1  1.327143  2.655911  0.643262  1.074135  2.861483  2.330933  2.639
Co  Co6  1  0.55250386  0.70494069  0.46014159  1  1.269125  2.57902  0.657158  0.89222  2.78024  2.475571  2.56
Co  Co7  1  0.54150019  0.52516870  0.58756722  1  1.327267  2.655882  0.643317  1.074221  2.861458  2.330943  2.639
H  H8  1  0.62970744  0.39248555  0.01358679  1  0.594342  0.001334  0.311894  0.403825  0.00082  0.882922  0.002
H  H9  1  0.49584292  0.64902835  0.23363701  1  0.64797  0.000247  0.294751  0.39336  4.5e-05  0.941596  0.0
H  H10  1  0.47021356  0.71532087  0.14392783  1  0.646894  0.000123  0.281421  0.368743  0.000172  0.978246  0.0
H  H11  1  0.54915032  0.93279386  0.67899659  1  0.074952  0.000105  0.095482  0.09064  -5e-05  1.056748  0.0
H  H12  1  0.54715456  0.03206586  0.82392813  1  0.053035  0.000319  0.098984  0.106113  0.000163  1.014033  0.0
H  H13  1  0.54521202  0.94320136  0.97171460  1  0.080736  0.000196  0.101196  0.100555  6.6e-05  1.03412  0.0
H  H14  1  0.91057561  0.47673980  0.02054306  1  0.119428  0.001352  0.115042  0.088687  2.5e-05  1.038652  0.001
H  H15  1  0.05554440  0.35064410  0.97115868  1  0.094885  0.000819  0.104383  0.115312  0.000321  1.042695  0.0
H  H16  1  0.85891912  0.24783698  0.77337950  1  0.072286  0.001125  0.10327  0.107082  0.000537  1.032517  0.0
H  H17  1  0.72273828  0.37537350  0.83233548  1  0.149976  0.002517  0.120911  0.1042  0.000915  1.019184  0.002
H  H18  1  0.11468591  0.25796191  0.80777618  1  0.061824  -0.000975  0.099482  0.108567  -0.000824  0.993326  -0.001
H  H19  1  0.09506047  0.17402015  0.89395869  1  0.031935  -0.000706  0.09466  0.093899  -0.000567  0.98418  0.0
H  H20  1  0.00063587  0.18046408  0.70375273  1  0.024088  0.00016  0.092556  0.08374  0.000103  0.988331  0.0
H  H21  1  0.97776570  0.09891854  0.79181172  1  0.017363  -8.5e-05  0.089231  0.077175  -6.4e-05  1.019384  0.0
H  H22  1  0.09947993  0.00850028  0.68927436  1  0.033871  -0.000571  0.098135  0.10013  -0.000472  0.972028  0.0
H  H23  1  0.15985329  0.02381657  0.79359205  1  0.022909  5e-05  0.096636  0.095925  5.8e-05  0.973735  0.0
H  H24  1  0.31931474  0.07746630  0.78646325  1  0.094462  0.000861  0.109228  0.118506  0.000429  0.994089  0.0
H  H25  1  0.44028671  0.16328506  0.70323074  1  0.10633  0.001539  0.121333  0.091328  0.0002  0.997324  0.001
H  H26  1  0.24234316  0.23999236  0.49154822  1  0.124172  0.001685  0.120101  0.090772  0.000537  0.985986  0.001
H  H27  1  0.10948769  0.16224493  0.56820939  1  0.092236  0.001101  0.105724  0.111021  0.000497  0.995453  0.0
H  H28  1  0.60750629  0.37031776  0.48639842  1  0.594859  0.001332  0.311935  0.403836  0.00082  0.883071  0.002
H  H29  1  0.35099138  0.50415374  0.26636940  1  0.648054  0.000246  0.294795  0.393468  4.3e-05  0.941448  0.0
H  H30  1  0.28468323  0.52980075  0.35606523  1  0.647255  0.000122  0.281358  0.368663  0.000173  0.978275  0.0
H  H31  1  0.06719809  0.45085320  0.82099395  1  0.075131  0.000105  0.095504  0.090662  -5e-05  1.056707  0.0
H  H32  1  0.96792814  0.45284265  0.67605794  1  0.052969  0.000319  0.099004  0.106134  0.000163  1.014015  0.0
H  H33  1  0.05680276  0.45478051  0.52827722  1  0.080839  0.000196  0.101282  0.100643  6.6e-05  1.034172  0.0
H  H34  1  0.52326611  0.08941306  0.47945943  1  0.119391  0.001352  0.11503  0.088635  2.5e-05  1.038735  0.001
H  H35  1  0.64936348  0.94444603  0.52884383  1  0.094667  0.000819  0.10439  0.11527  0.000321  1.042877  0.0
H  H36  1  0.75217698  0.14106809  0.72661381  1  0.07255  0.001124  0.103258  0.107149  0.000537  1.032519  0.0
H  H37  1  0.62464237  0.27725250  0.66766401  1  0.15111  0.002517  0.120915  0.104162  0.000915  1.019146  0.002
H  H38  1  0.74203601  0.88529624  0.69221961  1  0.061761  -0.000973  0.099462  0.108475  -0.000823  0.993449  -0.001
H  H39  1  0.82598701  0.90492016  0.60604555  1  0.031907  -0.000705  0.09472  0.093969  -0.000566  0.984102  0.0
H  H40  1  0.81952387  0.99935195  0.79624833  1  0.024333  0.00016  0.092558  0.083729  0.000103  0.988361  0.0
H  H41  1  0.90107840  0.02221631  0.70819378  1  0.018155  -8.5e-05  0.089184  0.077139  -6.4e-05  1.019461  0.0
H  H42  1  0.99148977  0.90049612  0.81073481  1  0.033504  -0.000572  0.098061  0.100083  -0.000473  0.972086  0.0
H  H43  1  0.97616329  0.84012306  0.70641599  1  0.022571  5e-05  0.096641  0.095809  5.8e-05  0.973934  0.0
H  H44  1  0.92252118  0.68067034  0.71354393  1  0.095245  0.000862  0.109235  0.118521  0.000429  0.993878  0.0
H  H45  1  0.83670625  0.55969831  0.79677932  1  0.106135  0.00154  0.121309  0.091326  0.000201  0.997302  0.001
H  H46  1  0.75999408  0.75763908  0.00845900  1  0.124012  0.001686  0.120139  0.09075  0.000538  0.985954  0.001
H  H47  1  0.83773797  0.89050392  0.93179908  1  0.092611  0.001102  0.105743  0.111076  0.000497  0.995274  0.0
H  H48  1  0.37030091  0.60745965  0.98629727  1  0.597034  0.001329  0.311901  0.403939  0.000821  0.883193  0.002
H  H49  1  0.50414625  0.35099229  0.76634204  1  0.647692  0.000247  0.29465  0.393288  4.4e-05  0.941748  0.0
H  H50  1  0.52979065  0.28468569  0.85603765  1  0.646664  0.000127  0.281254  0.368624  0.000174  0.978348  0.0
H  H51  1  0.45085359  0.06716847  0.32096554  1  0.075481  0.000106  0.095591  0.090891  -5e-05  1.056306  0.0
H  H52  1  0.45282161  0.96790794  0.17602588  1  0.052705  0.000319  0.098964  0.106036  0.000163  1.014012  0.0
H  H53  1  0.45476402  0.05678873  0.02825297  1  0.080002  0.000196  0.101296  0.100664  6.6e-05  1.034112  0.0
H  H54  1  0.08941673  0.52326489  0.97944076  1  0.119208  0.001351  0.115011  0.088608  2.4e-05  1.038785  0.001
H  H55  1  0.94444722  0.64935848  0.02882651  1  0.094636  0.000819  0.104399  0.115293  0.000321  1.042854  0.0
H  H56  1  0.14106785  0.75218029  0.22659957  1  0.072527  0.001125  0.103206  0.10706  0.000537  1.032555  0.0
H  H57  1  0.27725985  0.62464654  0.16764085  1  0.150878  0.002517  0.120948  0.104298  0.000916  1.019115  0.002
H  H58  1  0.88530036  0.74204955  0.19219610  1  0.06208  -0.000974  0.099539  0.108558  -0.000823  0.993476  -0.001
H  H59  1  0.90493173  0.82599934  0.10603054  1  0.031986  -0.000706  0.094698  0.09402  -0.000567  0.984204  0.0
H  H60  1  0.99935366  0.81952481  0.29623587  1  0.023825  0.00016  0.092548  0.083639  0.000103  0.988321  0.0
H  H61  1  0.02221771  0.90108826  0.20818774  1  0.017947  -8.5e-05  0.089255  0.077153  -6.4e-05  1.01932  0.0
H  H62  1  0.90049850  0.99148291  0.31072581  1  0.033617  -0.000572  0.098057  0.100064  -0.000473  0.972275  0.0
H  H63  1  0.84012661  0.97617010  0.20641422  1  0.022519  5e-05  0.096669  0.095849  5.8e-05  0.973879  0.0
H  H64  1  0.68066512  0.92252257  0.21353556  1  0.095031  0.000862  0.109212  0.118445  0.00043  0.994006  0.0
H  H65  1  0.55968712  0.83671212  0.29677825  1  0.106101  0.001541  0.121301  0.09137  0.000201  0.997071  0.001
H  H66  1  0.75763746  0.75999791  0.50846145  1  0.123967  0.001686  0.120102  0.090762  0.000538  0.985937  0.001
H  H67  1  0.89049816  0.83774382  0.43179756  1  0.09228  0.001102  0.105749  0.111102  0.000497  0.995351  0.0
H  H68  1  0.39254255  0.62973570  0.51369867  1  0.597215  0.001326  0.311858  0.403852  0.00082  0.883136  0.002
H  H69  1  0.64902710  0.49585900  0.73365649  1  0.647945  0.000247  0.294733  0.39333  4.5e-05  0.941677  0.0
H  H70  1  0.71531725  0.47021833  0.64395116  1  0.64714  0.000123  0.281356  0.36875  0.000174  0.97821  0.0
H  H71  1  0.93280870  0.54913320  0.17902044  1  0.075582  0.000106  0.095475  0.090671  -4.9e-05  1.05633  0.0
H  H72  1  0.03207687  0.54717057  0.32395370  1  0.052728  0.000319  0.098985  0.106046  0.000163  1.014037  0.0
H  H73  1  0.94321712  0.54523715  0.47173507  1  0.080177  0.000195  0.101301  0.100728  6.5e-05  1.034231  0.0
H  H74  1  0.47673841  0.91057813  0.52056311  1  0.119171  0.001351  0.115014  0.088542  2.4e-05  1.03882  0.001
H  H75  1  0.35064331  0.05554262  0.47118142  1  0.094704  0.000819  0.104391  0.115285  0.000321  1.042822  0.0
H  H76  1  0.24783130  0.85891736  0.27340126  1  0.072597  0.001126  0.10315  0.106946  0.000537  1.03251  0.0
H  H77  1  0.37537044  0.72273158  0.33236327  1  0.149927  0.002517  0.120947  0.10433  0.000915  1.019067  0.002
H  H78  1  0.25794689  0.11469225  0.30780160  1  0.061882  -0.000975  0.099449  0.108398  -0.000824  0.993376  -0.001
H  H79  1  0.17399970  0.09505962  0.39396752  1  0.031809  -0.000706  0.094704  0.09402  -0.000567  0.984106  0.0
H  H80  1  0.18046937  0.00064456  0.20375996  1  0.024219  0.00016  0.092575  0.08377  0.000103  0.988286  0.0
H  H81  1  0.09891421  0.97776699  0.29180705  1  0.017383  -8.5e-05  0.089253  0.077215  -6.4e-05  1.019353  0.0
H  H82  1  0.00850735  0.09948506  0.18927281  1  0.033984  -0.000572  0.098092  0.1001  -0.000472  0.97211  0.0
H  H83  1  0.02381145  0.15985626  0.29358622  1  0.023102  5e-05  0.096638  0.095867  5.8e-05  0.973873  0.0
H  H84  1  0.07747439  0.31931995  0.28647454  1  0.094826  0.000862  0.109263  0.118584  0.000429  0.99405  0.0
H  H85  1  0.16328397  0.44030310  0.20323711  1  0.105901  0.00154  0.121371  0.091399  0.000201  0.9972  0.001
H  H86  1  0.23998945  0.24235813  0.99154793  1  0.124137  0.001686  0.120177  0.090948  0.000538  0.985901  0.001
H  H87  1  0.16223879  0.10949873  0.06820786  1  0.092184  0.001101  0.105743  0.111111  0.000497  0.995436  0.0
C  C88  1  0.54937261  0.79856616  0.91179522  1  -0.002442  0.005141  -0.01947  -0.075145  0.002315  3.963175  0.004
C  C89  1  0.55395151  0.74238295  0.83083915  1  0.00701  0.005492  0.00691  -0.027777  0.002344  3.853195  0.004
C  C90  1  0.55443197  0.79237794  0.74695175  1  -0.03149  0.011866  -0.017204  -0.061697  0.006171  3.940057  0.009
C  C91  1  0.55096138  0.89612496  0.74486696  1  -0.043643  0.000685  -0.088639  -0.092797  0.00011  4.000805  0.0
C  C92  1  0.54896337  0.95131066  0.82510380  1  0.001665  0.003246  -0.098979  -0.10125  0.001626  4.032389  0.002
C  C93  1  0.54774133  0.90213616  0.90796905  1  -0.094408  -3e-06  -0.085632  -0.091641  -0.000566  3.99605  0.0
C  C94  1  0.54125686  0.75039914  0.00280173  1  1.571308  0.003551  0.210761  0.587834  0.00236  4.17916  0.003
C  C95  1  0.55620808  0.63045488  0.83605358  1  1.610886  0.005878  0.217051  0.605267  0.004071  4.183716  0.003
C  C96  1  0.55367582  0.73387048  0.66047398  1  1.576457  -0.00152  0.21599  0.589135  -0.002422  4.167004  -0.001
C  C97  1  0.90357232  0.42380000  0.96607563  1  0.483681  -0.009711  0.037852  0.083931  -0.010998  3.963493  -0.006
C  C98  1  0.98296706  0.35290742  0.93874585  1  -0.077532  0.006156  -0.093222  -0.195729  0.002752  3.968755  0.005
C  C99  1  0.97055443  0.28715870  0.86744404  1  -0.066956  -0.015688  0.007699  0.1599  -0.016906  3.945683  -0.01
C  C100  1  0.87496467  0.29564144  0.82922046  1  -0.038267  0.007102  -0.092195  -0.193733  0.003059  3.950184  0.006
C  C101  1  0.79796005  0.36798187  0.86089609  1  0.485524  -0.009824  0.046569  0.100459  -0.010813  3.918151  -0.006
C  C102  1  0.05895237  0.21446664  0.83467625  1  -0.016541  -5.9e-05  -0.157852  -0.199017  -0.000586  3.951625  0.0
C  C103  1  0.03453657  0.14006280  0.76388490  1  -0.022863  -0.000652  -0.163381  -0.141319  -0.000713  3.965871  -0.001
C  C104  1  0.12537784  0.06451415  0.73395056  1  0.022169  2.7e-05  -0.15381  -0.199371  -0.000398  3.957286  0.0
C  C105  1  0.20291374  0.11218158  0.68465580  1  -0.042092  -0.011867  0.009195  0.165005  -0.012772  3.948648  -0.008
C  C106  1  0.29806908  0.11297860  0.72135584  1  -0.052191  0.00493  -0.084991  -0.188092  0.002185  3.941204  0.004
C  C107  1  0.36674241  0.15983916  0.67467562  1  0.487777  -0.009556  0.051732  0.112448  -0.011027  3.943999  -0.006
C  C108  1  0.25556490  0.20356548  0.55746211  1  0.485369  -0.005836  0.045442  0.088383  -0.006392  3.985856  -0.004
C  C109  1  0.18245315  0.15929882  0.60045252  1  -0.086153  0.005139  -0.090572  -0.194846  0.002329  3.960388  0.004
C  C110  1  0.20142007  0.45066032  0.58819594  1  -0.002927  0.005138  -0.01957  -0.075148  0.002314  3.962889  0.004
C  C111  1  0.25760936  0.44607876  0.66915502  1  0.007586  0.005494  0.007038  -0.02774  0.002346  3.852988  0.004
C  C112  1  0.20761870  0.44558585  0.75304490  1  -0.031197  0.011865  -0.017213  -0.061728  0.006171  3.939868  0.009
C  C113  1  0.10387078  0.44904328  0.75512851  1  -0.044099  0.000689  -0.088551  -0.092541  0.000113  4.000456  0.0
C  C114  1  0.04868811  0.45103970  0.67489003  1  0.001473  0.003245  -0.099105  -0.101584  0.001625  4.032531  0.002
C  C115  1  0.09785769  0.45226847  0.59202162  1  -0.094411  2e-06  -0.085678  -0.091612  -0.000562  3.996  0.0
C  C116  1  0.24958921  0.45878239  0.49718878  1  1.572518  0.003553  0.210882  0.588131  0.002361  4.179196  0.003
C  C117  1  0.36953755  0.44383700  0.66393297  1  1.610492  0.005874  0.217061  0.605595  0.004066  4.18431  0.003
C  C118  1  0.26613362  0.44634432  0.83952498  1  1.576862  -0.001514  0.215801  0.58884  -0.002417  4.166811  -0.001
C  C119  1  0.57620630  0.09641648  0.53392588  1  0.483806  -0.0097  0.037884  0.083988  -0.010984  3.963706  -0.006
C  C120  1  0.64709811  0.01702378  0.56125299  1  -0.078003  0.006152  -0.093115  -0.195472  0.002751  3.968801  0.005
C  C121  1  0.71284681  0.02943548  0.63255438  1  -0.066825  -0.015669  0.007775  0.159841  -0.016886  3.945782  -0.01
C  C122  1  0.70437191  0.12502702  0.67077812  1  -0.030364  0.007094  -0.092202  -0.193961  0.003057  3.950241  0.006
C  C123  1  0.63203378  0.20202828  0.63910448  1  0.476363  -0.009805  0.046657  0.100691  -0.010796  3.918177  -0.006
C  C124  1  0.78553461  0.94103151  0.66532356  1  -0.016502  -5.8e-05  -0.157989  -0.199059  -0.000585  3.951646  0.0
C  C125  1  0.85993120  0.96544658  0.73612059  1  -0.023301  -0.000653  -0.163313  -0.141208  -0.000714  3.965912  -0.001
C  C126  1  0.93547343  0.87460532  0.76605778  1  0.023284  2.7e-05  -0.153772  -0.199268  -0.000399  3.957504  0.0
C  C127  1  0.88780787  0.79706930  0.81535268  1  -0.041857  -0.011884  0.00917  0.164996  -0.012791  3.948442  -0.008
C  C128  1  0.88701059  0.70191417  0.77865514  1  -0.053556  0.004935  -0.084936  -0.188025  0.002187  3.941168  0.004
C  C129  1  0.84015654  0.63323810  0.82534089  1  0.488589  -0.009572  0.051673  0.112384  -0.011043  3.944019  -0.006
C  C130  1  0.79643015  0.74441645  0.94254890  1  0.484336  -0.005841  0.045478  0.08855  -0.006401  3.986092  -0.004
C  C131  1  0.84069000  0.81753287  0.89955767  1  -0.086499  0.005141  -0.090621  -0.194929  0.00233  3.960248  0.004
C  C132  1  0.45064920  0.20140093  0.08818318  1  -0.002375  0.005131  -0.01964  -0.075417  0.002312  3.963253  0.004
C  C133  1  0.44607610  0.25760024  0.16913651  1  0.007492  0.005497  0.007045  -0.027678  0.002348  3.852653  0.004
C  C134  1  0.44560007  0.20761201  0.25303340  1  -0.030769  0.011866  -0.017216  -0.061673  0.006173  3.939381  0.009
C  C135  1  0.44904761  0.10385137  0.25509379  1  -0.044287  0.000696  -0.088647  -0.092825  0.000118  3.999954  0.0
C  C136  1  0.45103065  0.04866711  0.17484746  1  0.000532  0.003244  -0.099069  -0.101402  0.001625  4.032681  0.002
C  C137  1  0.45225643  0.09784256  0.09199036  1  -0.093745  6e-06  -0.085798  -0.091755  -0.000558  3.996531  0.0
C  C138  1  0.45875058  0.24958855  0.99718278  1  1.571946  0.003549  0.210975  0.588453  0.00236  4.178579  0.003
C  C139  1  0.44383730  0.36953073  0.16388267  1  1.610673  0.005876  0.217089  0.605503  0.004064  4.184366  0.003
C  C140  1  0.44634739  0.26611273  0.33953293  1  1.576641  -0.00151  0.215831  0.589109  -0.002412  4.167027  -0.001
C  C141  1  0.09642370  0.57621005  0.03390818  1  0.484209  -0.009707  0.037873  0.08404  -0.010992  3.963397  -0.006
C  C142  1  0.01702745  0.64710359  0.06123864  1  -0.078182  0.006152  -0.093228  -0.195759  0.00275  3.968626  0.005
C  C143  1  0.02943034  0.71285670  0.13254114  1  -0.066909  -0.015675  0.007879  0.160135  -0.016892  3.945403  -0.01
C  C144  1  0.12502756  0.70437285  0.17075860  1  -0.029883  0.007094  -0.092187  -0.193853  0.003058  3.950038  0.006
C  C145  1  0.20203511  0.63203789  0.13908567  1  0.476678  -0.009804  0.046466  0.100271  -0.010798  3.918424  -0.006
C  C146  1  0.94103321  0.78554200  0.16530487  1  -0.016617  -5.8e-05  -0.157954  -0.199195  -0.000586  3.952002  0.0
C  C147  1  0.96544318  0.85993492  0.23610574  1  -0.022802  -0.000654  -0.163448  -0.141209  -0.000714  3.965701  -0.001
C  C148  1  0.87460350  0.93547598  0.26605095  1  0.023044  2.7e-05  -0.153754  -0.199188  -0.000399  3.957917  0.0
C  C149  1  0.79707944  0.88781638  0.31533822  1  -0.042184  -0.011883  0.009218  0.165014  -0.01279  3.949238  -0.008
C  C150  1  0.70192193  0.88701528  0.27864905  1  -0.052532  0.004937  -0.084917  -0.187898  0.002188  3.941114  0.004
C  C151  1  0.63323433  0.84016645  0.32533743  1  0.487401  -0.009574  0.051701  0.112241  -0.011046  3.94343  -0.006
C  C152  1  0.74441702  0.79644304  0.44254549  1  0.483847  -0.005842  0.045389  0.088352  -0.006403  3.985847  -0.004
C  C153  1  0.81753181  0.84070109  0.39954422  1  -0.085839  0.005141  -0.090619  -0.194894  0.00233  3.960621  0.004
C  C154  1  0.79859363  0.54937817  0.41181362  1  -0.002054  0.005136  -0.019526  -0.075374  0.002313  3.963141  0.004
C  C155  1  0.74238507  0.55394933  0.33086273  1  0.007457  0.005488  0.007011  -0.027554  0.002342  3.852883  0.004
C  C156  1  0.79237609  0.55440603  0.24697017  1  -0.031195  0.011874  -0.017152  -0.061679  0.006176  3.939535  0.009
C  C157  1  0.89613452  0.55094560  0.24490014  1  -0.044205  0.000689  -0.088495  -0.092514  0.000113  3.999867  0.0
C  C158  1  0.95132522  0.54896718  0.32513994  1  0.001044  0.003248  -0.099155  -0.101456  0.001627  4.032858  0.002
C  C159  1  0.90215621  0.54775306  0.40799950  1  -0.094296  -2e-06  -0.085764  -0.091852  -0.000565  3.997006  0.0
C  C160  1  0.75040709  0.54128009  0.50282349  1  1.571616  0.003545  0.210891  0.588317  0.002362  4.178645  0.003
C  C161  1  0.63046434  0.55619894  0.33611735  1  1.610126  0.005877  0.216682  0.605055  0.004068  4.184534  0.003
C  C162  1  0.73388558  0.55366157  0.16046628  1  1.576616  -0.001522  0.215885  0.588895  -0.002423  4.167207  -0.001
C  C163  1  0.42379602  0.90357061  0.46609599  1  0.48392  -0.009712  0.03796  0.084286  -0.011  3.96332  -0.006
C  C164  1  0.35289746  0.98296503  0.43876345  1  -0.078094  0.006154  -0.093202  -0.195845  0.002751  3.968582  0.005
C  C165  1  0.28714568  0.97056190  0.36745933  1  -0.067018  -0.015687  0.007871  0.160086  -0.016905  3.94552  -0.01
C  C166  1  0.29563783  0.87496413  0.32924237  1  -0.029477  0.007099  -0.092211  -0.193713  0.003059  3.949954  0.006
C  C167  1  0.36797677  0.79795611  0.36091534  1  0.477488  -0.009814  0.046435  0.100114  -0.010809  3.918356  -0.006
C  C168  1  0.21445426  0.05895608  0.33469221  1  -0.016524  -5.9e-05  -0.157939  -0.199001  -0.000586  3.95166  0.0
C  C169  1  0.14006285  0.03454465  0.26388974  1  -0.023194  -0.000653  -0.163356  -0.141391  -0.000713  3.965802  -0.001
C  C170  1  0.06451318  0.12538259  0.23395324  1  0.021859  2.7e-05  -0.153785  -0.19924  -0.000398  3.957546  0.0
C  C171  1  0.11217357  0.20291571  0.18466514  1  -0.042576  -0.011871  0.009161  0.165063  -0.012777  3.948878  -0.008
C  C172  1  0.11297906  0.29806961  0.22136200  1  -0.052233  0.004933  -0.085001  -0.188176  0.002187  3.941066  0.004
C  C173  1  0.15983379  0.36675371  0.17467895  1  0.487932  -0.009562  0.05173  0.112338  -0.011034  3.943789  -0.006
C  C174  1  0.20355344  0.25557708  0.05746619  1  0.485314  -0.005839  0.045474  0.088313  -0.006395  3.986026  -0.004
C  C175  1  0.15928983  0.18246345  0.10045878  1  -0.085966  0.005139  -0.090635  -0.195063  0.002329  3.960653  0.004
N  N176  1  0.81222906  0.43275055  0.92730927  1  -1.232962  0.061227  -0.339326  -0.263503  0.031987  3.622847  0.054
N  N177  1  0.34669987  0.20440611  0.59361875  1  -1.232517  0.05434  -0.32559  -0.255974  0.028839  3.582095  0.047
N  N178  1  0.56726400  0.18775425  0.57269582  1  -1.232538  0.061211  -0.33941  -0.263564  0.031977  3.622719  0.054
N  N179  1  0.79559382  0.65327402  0.90639813  1  -1.232131  0.054363  -0.325676  -0.256129  0.028854  3.582488  0.047
N  N180  1  0.18776309  0.56727337  0.07267996  1  -1.233066  0.061211  -0.339284  -0.263403  0.031978  3.622677  0.054
N  N181  1  0.65326634  0.79560919  0.40639837  1  -1.231011  0.054368  -0.325596  -0.256008  0.028858  3.58199  0.047
N  N182  1  0.43273909  0.81222977  0.42732469  1  -1.232961  0.06122  -0.339298  -0.263379  0.031986  3.62281  0.054
N  N183  1  0.20439201  0.34671919  0.09361968  1  -1.232201  0.054351  -0.325711  -0.256011  0.028845  3.582267  0.047
O  O184  1  0.60345604  0.45656841  0.98604282  1  -1.169961  0.217632  -0.556877  -0.881939  0.119358  2.346518  0.185
O  O185  1  0.58086581  0.65748431  0.01073257  1  -1.190293  0.080535  -0.317644  -0.621523  0.043066  2.551175  0.07
O  O186  1  0.49474131  0.80054653  0.06598402  1  -1.17688  0.011783  -0.323661  -0.540513  0.005427  2.096757  0.01
O  O187  1  0.64233671  0.57421883  0.82852280  1  -1.18149  0.06  -0.323505  -0.605299  0.030257  2.375962  0.048
O  O188  1  0.47632997  0.59936878  0.85529816  1  -1.137722  0.07515  -0.291964  -0.518598  0.037667  2.344984  0.066
O  O189  1  0.53670174  0.64557628  0.66979028  1  -1.146283  0.065564  -0.28865  -0.523838  0.033915  2.46425  0.057
O  O190  1  0.56785042  0.77614570  0.58474819  1  -1.165283  0.069085  -0.317742  -0.57558  0.035772  2.349973  0.058
O  O191  1  0.45561552  0.65408490  0.17669606  1  -1.264144  0.064284  -0.572967  -0.758871  0.033531  2.130969  0.051
O  O192  1  0.54342872  0.39657139  0.51394889  1  -1.170362  0.217587  -0.55696  -0.881898  0.119333  2.346643  0.185
O  O193  1  0.34250979  0.41918997  0.48926262  1  -1.190717  0.080521  -0.317624  -0.621662  0.043052  2.551067  0.07
O  O194  1  0.19943870  0.50527468  0.43400673  1  -1.17769  0.011784  -0.323749  -0.540623  0.005428  2.096807  0.01
O  O195  1  0.42578528  0.35770929  0.67146646  1  -1.180895  0.060022  -0.323645  -0.605623  0.030274  2.376342  0.048
O  O196  1  0.40060958  0.52371710  0.64468477  1  -1.137573  0.075145  -0.291848  -0.518647  0.037665  2.345224  0.066
O  O197  1  0.35443108  0.46332992  0.83019814  1  -1.146454  0.065543  -0.288445  -0.523683  0.033916  2.463545  0.057
O  O198  1  0.22386769  0.43216331  0.91524587  1  -1.165268  0.069029  -0.317809  -0.575562  0.035748  2.349949  0.058
O  O199  1  0.34592161  0.54440283  0.32329925  1  -1.264602  0.064266  -0.572888  -0.758863  0.033527  2.130996  0.051
O  O200  1  0.39656923  0.54341428  0.01389278  1  -1.172866  0.217604  -0.556899  -0.882087  0.119325  2.346624  0.185
O  O201  1  0.41911490  0.34248590  0.98923366  1  -1.190467  0.080529  -0.317703  -0.621761  0.043061  2.551108  0.07
O  O202  1  0.50529877  0.19945994  0.93400178  1  -1.177404  0.01179  -0.323807  -0.540814  0.005432  2.096043  0.01
O  O203  1  0.35772857  0.42579636  0.17143511  1  -1.181152  0.060009  -0.32372  -0.605637  0.030265  2.376429  0.048
O  O204  1  0.52372014  0.40058057  0.14458991  1  -1.1378  0.075112  -0.291741  -0.518518  0.037654  2.344959  0.066
O  O205  1  0.46333414  0.35440426  0.33020031  1  -1.145839  0.065473  -0.288447  -0.523806  0.03388  2.4631  0.057
O  O206  1  0.43215264  0.22383456  0.41524516  1  -1.165566  0.068984  -0.317743  -0.575687  0.035718  2.349556  0.058
O  O207  1  0.54440290  0.34591809  0.82327211  1  -1.263698  0.064305  -0.57272  -0.758734  0.033551  2.131286  0.051
O  O208  1  0.45659040  0.60345980  0.48610820  1  -1.172911  0.217628  -0.556964  -0.882089  0.119355  2.34674  0.185
O  O209  1  0.65751271  0.58094397  0.51077668  1  -1.190535  0.080554  -0.317768  -0.621776  0.043082  2.5507  0.07
O  O210  1  0.80053146  0.49471267  0.56598598  1  -1.176964  0.011786  -0.323714  -0.540724  0.00543  2.096815  0.01
O  O211  1  0.57420110  0.64230750  0.32856625  1  -1.180821  0.059986  -0.323428  -0.605302  0.030253  2.376365  0.048
O  O212  1  0.59940961  0.47631863  0.35541442  1  -1.137655  0.07511  -0.291696  -0.5185  0.037651  2.345018  0.066
O  O213  1  0.64558340  0.53670177  0.16979581  1  -1.145807  0.065519  -0.288553  -0.523692  0.033899  2.463458  0.057
O  O214  1  0.77616953  0.56783402  0.08475149  1  -1.165637  0.069017  -0.317714  -0.575561  0.035737  2.34974  0.058
O  O215  1  0.65408638  0.45561368  0.67672325  1  -1.264309  0.064303  -0.572907  -0.758884  0.033549  2.131253  0.051
