# generated using pymatgen
data_NaH12C6SNO3
_symmetry_space_group_name_H-M   'P 1'
_cell_length_a   6.27612975
_cell_length_b   8.44235194
_cell_length_c   15.73230403
_cell_angle_alpha   93.72041607
_cell_angle_beta   101.51367183
_cell_angle_gamma   90.00736374
_symmetry_Int_Tables_number   1
_chemical_formula_structural   NaH12C6SNO3
_chemical_formula_sum   'Na4 H48 C24 S4 N4 O12'
_cell_volume   815.01242636
_cell_formula_units_Z   4
loop_
 _symmetry_equiv_pos_site_id
 _symmetry_equiv_pos_as_xyz
  1  'x, y, z'
loop_
 _atom_site_type_symbol
 _atom_site_label
 _atom_site_symmetry_multiplicity
 _atom_site_fract_x
 _atom_site_fract_y
 _atom_site_fract_z
 _atom_site_occupancy
 _atom_site_hle17_bader_spin_density
 _atom_site_hle17_ddec_charge
 _atom_site_hle17_ddec_spin_density
 _atom_site_hle17_ddec_sum_bond_order
 _atom_site_hle17_magmom
 _atom_site_hse06_10hf_bader_spin_density
 _atom_site_hse06_10hf_ddec_charge
 _atom_site_hse06_10hf_ddec_spin_density
 _atom_site_hse06_10hf_ddec_sum_bond_order
 _atom_site_hse06_10hf_magmom
 _atom_site_hse06_bader_spin_density
 _atom_site_hse06_ddec_charge
 _atom_site_hse06_ddec_spin_density
 _atom_site_hse06_ddec_sum_bond_order
 _atom_site_hse06_magmom
 _atom_site_pbe_bader_spin_density
 _atom_site_pbe_cm5_charge
 _atom_site_pbe_ddec_charge
 _atom_site_pbe_ddec_spin_density
 _atom_site_pbe_ddec_sum_bond_order
 _atom_site_pbe_magmom
Na  Na0  1  0.86030286  0.18735490  0.46232810  1  0  0.924685  0  0.356198  0  0  0.895669  0  0.490853  0  0  0.903041  0  0.472655  0  0  0.705336  0.889761  0  0.504415  0
Na  Na1  1  0.39785124  0.31265969  0.53759896  1  0  0.924973  0  0.356436  0  0  0.89567  0  0.491524  0  0  0.903012  0  0.473377  0  0  0.705607  0.889777  0  0.5051  0
Na  Na2  1  0.13969605  0.81264944  0.53767198  1  0  0.924689  0  0.35618  0  0  0.895678  0  0.490835  0  0  0.903046  0  0.472635  0  0  0.705339  0.889765  0  0.504394  0
Na  Na3  1  0.60214759  0.68733987  0.46240411  1  0  0.924969  0  0.356476  0  0  0.895656  0  0.491575  0  0  0.902997  0  0.47343  0  0  0.705606  0.889761  0  0.505154  0
H  H4  1  0.11443037  0.87944108  0.22689464  1  0  0.031965  0  0.943172  0  0  0.048518  0  1.004196  0  0  0.048281  0  1.00487  0  0  0.107175  0.048021  0  1.004967  0
H  H5  1  0.88754970  0.62035253  0.77307767  1  0  0.031496  0  0.942808  0  0  0.048205  0  1.003518  0  0  0.047967  0  1.004195  0  0  0.107089  0.047699  0  1.004316  0
H  H6  1  0.88556188  0.12055495  0.77310651  1  0  0.031913  0  0.94321  0  0  0.048544  0  1.004189  0  0  0.048309  0  1.004862  0  0  0.107191  0.048047  0  1.004963  0
H  H7  1  0.11244919  0.37965064  0.22692173  1  0  0.031483  0  0.942846  0  0  0.04815  0  1.003616  0  0  0.047911  0  1.004294  0  0  0.107054  0.047646  0  1.004412  0
H  H8  1  0.85694058  0.90336147  0.32881736  1  0  0.084772  0  0.95748  0  0  0.099335  0  1.023186  0  0  0.101428  0  1.022055  0  0  0.09942  0.097776  0  1.024096  0
H  H9  1  0.52825995  0.59596372  0.67114721  1  0  0.084008  0  0.957763  0  0  0.098813  0  1.023127  0  0  0.100843  0  1.022102  0  0  0.099384  0.097298  0  1.023965  0
H  H10  1  0.14305662  0.09663810  0.67118495  1  0  0.084784  0  0.957508  0  0  0.099341  0  1.023239  0  0  0.101435  0  1.022106  0  0  0.099431  0.097783  0  1.024147  0
H  H11  1  0.47173552  0.40403114  0.32885160  1  0  0.083933  0  0.957735  0  0  0.098726  0  1.023107  0  0  0.100756  0  1.022081  0  0  0.099347  0.097213  0  1.023943  0
H  H12  1  0.73886516  0.07189223  0.27701592  1  0  0.071433  0  0.946767  0  0  0.090935  0  1.008976  0  0  0.091866  0  1.009287  0  0  0.095195  0.090231  0  1.008758  0
H  H13  1  0.46234550  0.42722772  0.72289538  1  0  0.071678  0  0.946232  0  0  0.090514  0  1.009259  0  0  0.091422  0  1.009603  0  0  0.095321  0.089819  0  1.009025  0
H  H14  1  0.26113210  0.92810969  0.72298903  1  0  0.071495  0  0.946715  0  0  0.090981  0  1.008924  0  0  0.091907  0  1.009235  0  0  0.095223  0.090277  0  1.008709  0
H  H15  1  0.53765490  0.57276949  0.27710582  1  0  0.071701  0  0.946214  0  0  0.090543  0  1.009225  0  0  0.091451  0  1.009566  0  0  0.095338  0.089847  0  1.00899  0
H  H16  1  0.51439233  0.83314163  0.22305280  1  0  0.065906  0  0.960925  0  0  0.082213  0  1.025469  0  0  0.083344  0  1.025368  0  0  0.086188  0.081076  0  1.026273  0
H  H17  1  0.29106680  0.66571462  0.77679433  1  0  0.065805  0  0.961335  0  0  0.082111  0  1.025996  0  0  0.083289  0  1.025846  0  0  0.086045  0.080925  0  1.026866  0
H  H18  1  0.48560810  0.16685799  0.77694532  1  0  0.06588  0  0.960936  0  0  0.08219  0  1.025495  0  0  0.083321  0  1.025394  0  0  0.086178  0.081055  0  1.026296  0
H  H19  1  0.70892709  0.33428261  0.22320445  1  0  0.065853  0  0.961334  0  0  0.082154  0  1.026011  0  0  0.083338  0  1.025848  0  0  0.08603  0.080964  0  1.026889  0
H  H20  1  0.74197207  0.73181349  0.19747168  1  0  0.058635  0  0.961097  0  0  0.074111  0  1.031509  0  0  0.075031  0  1.031622  0  0  0.084629  0.073126  0  1.031706  0
H  H21  1  0.54405699  0.76735802  0.80250673  1  0  0.057965  0  0.961746  0  0  0.073493  0  1.032199  0  0  0.074434  0  1.032239  0  0  0.084248  0.072504  0  1.032418  0
H  H22  1  0.25803981  0.26818846  0.80253060  1  0  0.058648  0  0.961212  0  0  0.074165  0  1.031558  0  0  0.075087  0  1.031667  0  0  0.084643  0.073178  0  1.03176  0
H  H23  1  0.45593860  0.23264278  0.19749168  1  0  0.057959  0  0.961806  0  0  0.073486  0  1.03226  0  0  0.074427  0  1.032302  0  0  0.084235  0.072498  0  1.032476  0
H  H24  1  0.51915770  0.82669103  0.06251184  1  0  0.053058  0  0.952711  0  0  0.073045  0  1.014081  0  0  0.073931  0  1.014117  0  0  0.083994  0.07241  0  1.013922  0
H  H25  1  0.45633136  0.67234559  0.93738293  1  0  0.052575  0  0.95194  0  0  0.073038  0  1.012757  0  0  0.073969  0  1.01274  0  0  0.083457  0.072368  0  1.012639  0
H  H26  1  0.48084751  0.17330262  0.93748961  1  0  0.053071  0  0.952684  0  0  0.073054  0  1.014071  0  0  0.07394  0  1.014105  0  0  0.084006  0.072419  0  1.013912  0
H  H27  1  0.54366416  0.32765165  0.06261598  1  0  0.052586  0  0.951964  0  0  0.073042  0  1.012795  0  0  0.073974  0  1.012776  0  0  0.083454  0.072372  0  1.012678  0
H  H28  1  0.52406950  0.02196064  0.11045300  1  0  0.056363  0  0.950551  0  0  0.0775  0  1.011689  0  0  0.077721  0  1.012907  0  0  0.085772  0.077474  0  1.010444  0
H  H29  1  0.41369926  0.47699324  0.88950860  1  0  0.056191  0  0.951581  0  0  0.077528  0  1.012208  0  0  0.0778  0  1.013399  0  0  0.085879  0.077475  0  1.010979  0
H  H30  1  0.47593428  0.97804373  0.88954493  1  0  0.056338  0  0.950633  0  0  0.0775  0  1.011747  0  0  0.077723  0  1.012961  0  0  0.085734  0.077474  0  1.010501  0
H  H31  1  0.58630103  0.52299927  0.11048796  1  0  0.056177  0  0.95166  0  0  0.077554  0  1.012243  0  0  0.077828  0  1.013431  0  0  0.085874  0.077501  0  1.011014  0
H  H32  1  0.79243055  0.00354202  0.01552024  1  0  0.057129  0  0.954728  0  0  0.075643  0  1.018945  0  0  0.076135  0  1.019727  0  0  0.086376  0.075307  0  1.018332  0
H  H33  1  0.77707438  0.49601978  0.98447805  1  0  0.056997  0  0.955104  0  0  0.075704  0  1.019213  0  0  0.076242  0  1.019924  0  0  0.086356  0.07535  0  1.01861  0
H  H34  1  0.20757307  0.99645403  0.98447862  1  0  0.05713  0  0.954751  0  0  0.075674  0  1.018934  0  0  0.076166  0  1.019711  0  0  0.086366  0.075335  0  1.018318  0
H  H35  1  0.22291959  0.50398224  0.01551838  1  0  0.056951  0  0.955016  0  0  0.075628  0  1.019158  0  0  0.076161  0  1.019868  0  0  0.086323  0.075274  0  1.018555  0
H  H36  1  0.91609033  0.83892131  0.06804238  1  0  0.055274  0  0.947686  0  0  0.076209  0  1.008687  0  0  0.076491  0  1.009783  0  0  0.086192  0.075976  0  1.007984  0
H  H37  1  0.84755937  0.66082159  0.93187988  1  0  0.05508  0  0.947514  0  0  0.076133  0  1.008627  0  0  0.076388  0  1.00975  0  0  0.085969  0.075865  0  1.007954  0
H  H38  1  0.08391663  0.16107827  0.93195943  1  0  0.055311  0  0.947666  0  0  0.07625  0  1.008671  0  0  0.076531  0  1.009769  0  0  0.086214  0.076016  0  1.007967  0
H  H39  1  0.15243783  0.33917798  0.06812243  1  0  0.055052  0  0.947512  0  0  0.076103  0  1.008609  0  0  0.07636  0  1.009731  0  0  0.085962  0.075842  0  1.007932  0
H  H40  1  0.90192426  0.17695062  0.15052767  1  0  0.065624  0  0.946311  0  0  0.086059  0  1.005803  0  0  0.086516  0  1.006626  0  0  0.090384  0.085547  0  1.005802  0
H  H41  1  0.75206461  0.32260584  0.84948449  1  0  0.065185  0  0.947903  0  0  0.086091  0  1.006726  0  0  0.08655  0  1.007558  0  0  0.090416  0.085569  0  1.006722  0
H  H42  1  0.09806644  0.82305019  0.84946973  1  0  0.065586  0  0.946311  0  0  0.086051  0  1.005801  0  0  0.086508  0  1.006623  0  0  0.090378  0.085537  0  1.0058  0
H  H43  1  0.24794231  0.67739257  0.15051600  1  0  0.06521  0  0.947928  0  0  0.0861  0  1.006763  0  0  0.086556  0  1.007591  0  0  0.090412  0.085577  0  1.006758  0
H  H44  1  0.13395487  0.08233415  0.12398167  1  0  0.065213  0  0.952989  0  0  0.08015  0  1.02238  0  0  0.081422  0  1.021812  0  0  0.088385  0.079124  0  1.022908  0
H  H45  1  0.01035331  0.41764168  0.87611608  1  0  0.067314  0  0.95331  0  0  0.082213  0  1.022679  0  0  0.083554  0  1.022015  0  0  0.089099  0.081128  0  1.02328  0
H  H46  1  0.86604561  0.91766659  0.87602221  1  0  0.065192  0  0.952943  0  0  0.080125  0  1.022381  0  0  0.081397  0  1.021812  0  0  0.088358  0.0791  0  1.022908  0
H  H47  1  0.98965217  0.58236623  0.12388402  1  0  0.067255  0  0.95338  0  0  0.082223  0  1.022648  0  0  0.083552  0  1.021997  0  0  0.089112  0.081138  0  1.023248  0
H  H48  1  0.11816937  0.20552530  0.30810071  1  0  0.291643  0  0.934211  0  0  0.278247  0  0.996289  0  0  0.284957  0  0.990944  0  0  0.300064  0.272786  0  1.001323  0
H  H49  1  0.81015916  0.29428218  0.69184428  1  0  0.291185  0  0.933894  0  0  0.277951  0  0.996076  0  0  0.284635  0  0.99073  0  0  0.299946  0.272427  0  1.001249  0
H  H50  1  0.88183275  0.79447665  0.69190144  1  0  0.29156  0  0.934295  0  0  0.278178  0  0.99638  0  0  0.284884  0  0.991035  0  0  0.30006  0.272718  0  1.001418  0
H  H51  1  0.18984459  0.70571977  0.30815737  1  0  0.29115  0  0.933924  0  0  0.277876  0  0.99616  0  0  0.284561  0  0.990814  0  0  0.299901  0.272357  0  1.001332  0
C  C52  1  0.02945233  0.99169972  0.23446990  1  0  0.199992  0  3.603786  0  0  0.181921  0  3.847649  0  0  0.186601  0  3.862579  0  0  0.004638  0.178927  0  3.837608  0
C  C53  1  0.79522856  0.50796668  0.76555171  1  0  0.199646  0  3.60367  0  0  0.182367  0  3.846696  0  0  0.186997  0  3.861629  0  0  0.003789  0.179329  0  3.836628  0
C  C54  1  0.97054326  0.00830106  0.76553042  1  0  0.200034  0  3.603626  0  0  0.181853  0  3.847709  0  0  0.186524  0  3.862633  0  0  0.004624  0.178857  0  3.837674  0
C  C55  1  0.20477351  0.49203292  0.23444844  1  0  0.199723  0  3.603661  0  0  0.182426  0  3.846684  0  0  0.187055  0  3.861617  0  0  0.003794  0.179396  0  3.836614  0
C  C56  1  0.81962685  0.95847840  0.26629994  1  0  -0.18092  0  3.655993  0  0  -0.224575  0  3.909405  0  0  -0.226699  0  3.922598  0  0  -0.16959  -0.222821  0  3.89995  0
C  C57  1  0.55349554  0.54080473  0.73365422  1  0  -0.179447  0  3.654772  0  0  -0.22274  0  3.907685  0  0  -0.224774  0  3.92079  0  0  -0.168824  -0.221072  0  3.898353  0
C  C58  1  0.18037044  0.04152594  0.73370128  1  0  -0.181024  0  3.655938  0  0  -0.22467  0  3.909424  0  0  -0.226788  0  3.922609  0  0  -0.169621  -0.222916  0  3.899972  0
C  C59  1  0.44650318  0.45919014  0.26634421  1  0  -0.179402  0  3.654789  0  0  -0.222641  0  3.90764  0  0  -0.22467  0  3.92074  0  0  -0.168806  -0.220971  0  3.898299  0
C  C60  1  0.66634309  0.84933625  0.19992454  1  0  -0.104248  0  3.682598  0  0  -0.142616  0  3.943589  0  0  -0.143679  0  3.957908  0  0  -0.171038  -0.141829  0  3.933856  0
C  C61  1  0.46617757  0.64975834  0.79996481  1  0  -0.103323  0  3.683218  0  0  -0.142114  0  3.944227  0  0  -0.143114  0  3.958385  0  0  -0.170854  -0.141375  0  3.934607  0
C  C62  1  0.33365907  0.15066808  0.80007644  1  0  -0.104263  0  3.682693  0  0  -0.142649  0  3.943687  0  0  -0.143715  0  3.958008  0  0  -0.171046  -0.141863  0  3.933956  0
C  C63  1  0.53381468  0.35023891  0.20003257  1  0  -0.103344  0  3.683176  0  0  -0.142178  0  3.944218  0  0  -0.143183  0  3.958381  0  0  -0.170818  -0.141441  0  3.934595  0
C  C64  1  0.61993357  0.91268702  0.10928796  1  0  -0.108044  0  3.692029  0  0  -0.147989  0  3.953456  0  0  -0.14916  0  3.968664  0  0  -0.169763  -0.146773  0  3.942145  0
C  C65  1  0.51042394  0.58642027  0.89062373  1  0  -0.108324  0  3.692367  0  0  -0.148365  0  3.953407  0  0  -0.149644  0  3.968624  0  0  -0.169417  -0.147088  0  3.942077  0
C  C66  1  0.38006527  0.08731376  0.89071198  1  0  -0.108  0  3.692188  0  0  -0.147967  0  3.953636  0  0  -0.149139  0  3.968849  0  0  -0.169718  -0.146752  0  3.942319  0
C  C67  1  0.48956838  0.41358057  0.10937124  1  0  -0.108371  0  3.692368  0  0  -0.148428  0  3.953387  0  0  -0.149709  0  3.968603  0  0  -0.169412  -0.147152  0  3.942065  0
C  C68  1  0.82979725  0.94992562  0.07855212  1  0  -0.100888  0  3.689305  0  0  -0.141177  0  3.949258  0  0  -0.142209  0  3.96464  0  0  -0.167051  -0.140297  0  3.938177  0
C  C69  1  0.75113871  0.54960062  0.92142850  1  0  -0.100267  0  3.690996  0  0  -0.141043  0  3.951595  0  0  -0.142093  0  3.966997  0  0  -0.166762  -0.140101  0  3.940456  0
C  C70  1  0.17020807  0.05007398  0.92144765  1  0  -0.100966  0  3.689371  0  0  -0.141257  0  3.949357  0  0  -0.14229  0  3.964742  0  0  -0.167061  -0.140368  0  3.938261  0
C  C71  1  0.24886010  0.45039900  0.07856948  1  0  -0.100136  0  3.690828  0  0  -0.140885  0  3.951423  0  0  -0.141929  0  3.966816  0  0  -0.166733  -0.139948  0  3.940289  0
C  C72  1  0.98021665  0.06074120  0.14507484  1  0  -0.154799  0  3.648226  0  0  -0.198451  0  3.906921  0  0  -0.199838  0  3.919787  0  0  -0.163594  -0.19705  0  3.897934  0
C  C73  1  0.83546884  0.43894193  0.85496967  1  0  -0.156376  0  3.650745  0  0  -0.201008  0  3.910412  0  0  -0.202432  0  3.923238  0  0  -0.163805  -0.199565  0  3.901428  0
C  C74  1  0.01978222  0.93926076  0.85492579  1  0  -0.154662  0  3.648004  0  0  -0.198374  0  3.906863  0  0  -0.199759  0  3.91973  0  0  -0.163545  -0.196973  0  3.897871  0
C  C75  1  0.16453653  0.56106002  0.14503274  1  0  -0.156428  0  3.650755  0  0  -0.201069  0  3.910373  0  0  -0.20248  0  3.923192  0  0  -0.163799  -0.199624  0  3.901389  0
S  S76  1  0.31747183  0.03733685  0.38775455  1  0  1.510231  0  5.703792  0  0  1.402074  0  6.239667  0  0  1.452218  0  6.20938  0  0  0.597099  1.366899  0  6.260381  0
S  S77  1  0.92960074  0.46255829  0.61218315  1  0  1.510839  0  5.705747  0  0  1.402792  0  6.24155  0  0  1.452887  0  6.211306  0  0  0.597157  1.367568  0  6.262215  0
S  S78  1  0.68253194  0.96266630  0.61224650  1  0  1.509957  0  5.704162  0  0  1.401832  0  6.240022  0  0  1.451967  0  6.209734  0  0  0.597027  1.366657  0  6.260736  0
S  S79  1  0.07039963  0.53743774  0.38781673  1  0  1.51073  0  5.705781  0  0  1.402679  0  6.241589  0  0  1.452779  0  6.211344  0  0  0.597106  1.367465  0  6.262251  0
N  N80  1  0.18613375  0.09833849  0.29391931  1  0  -0.610907  0  3.062847  0  0  -0.561874  0  3.330009  0  0  -0.57945  0  3.330092  0  0  -0.471406  -0.549724  0  3.331161  0
N  N81  1  0.89239995  0.40146824  0.70603793  1  0  -0.607872  0  3.060493  0  0  -0.559574  0  3.327817  0  0  -0.577127  0  3.328071  0  0  -0.470068  -0.547231  0  3.328698  0
N  N82  1  0.81387158  0.90166232  0.70607860  1  0  -0.610733  0  3.062977  0  0  -0.561713  0  3.330182  0  0  -0.579256  0  3.330235  0  0  -0.471408  -0.549567  0  3.331336  0
N  N83  1  0.10760382  0.59853493  0.29396186  1  0  -0.607803  0  3.060421  0  0  -0.559473  0  3.327766  0  0  -0.577025  0  3.328019  0  0  -0.469988  -0.547154  0  3.328665  0
O  O84  1  0.49110869  0.15733171  0.41684086  1  0  -0.787677  0  1.957441  0  0  -0.749593  0  2.231402  0  0  -0.76724  0  2.212078  0  0  -0.460198  -0.736649  0  2.244703  0
O  O85  1  0.07457563  0.34290068  0.58316624  1  0  -0.787637  0  1.958637  0  0  -0.749705  0  2.232931  0  0  -0.767259  0  2.213438  0  0  -0.459868  -0.736818  0  2.246363  0
O  O86  1  0.50888522  0.84266672  0.58315797  1  0  -0.787654  0  1.957303  0  0  -0.749585  0  2.231288  0  0  -0.767231  0  2.211968  0  0  -0.460239  -0.736639  0  2.244586  0
O  O87  1  0.92541658  0.65709295  0.41683608  1  0  -0.787603  0  1.958689  0  0  -0.749675  0  2.232999  0  0  -0.76723  0  2.213506  0  0  -0.459852  -0.736786  0  2.24643  0
O  O88  1  0.17113301  0.03847212  0.45118446  1  0  -0.820349  0  1.947189  0  0  -0.782171  0  2.223312  0  0  -0.798862  0  2.202902  0  0  -0.460127  -0.76994  0  2.237248  0
O  O89  1  0.71986268  0.46091155  0.54868276  1  0  -0.822607  0  1.948155  0  0  -0.784257  0  2.224072  0  0  -0.800966  0  2.203704  0  0  -0.461838  -0.772057  0  2.238115  0
O  O90  1  0.82886424  0.96153108  0.54881227  1  0  -0.820329  0  1.947222  0  0  -0.782101  0  2.223242  0  0  -0.798807  0  2.202859  0  0  -0.460128  -0.769846  0  2.237127  0
O  O91  1  0.28013782  0.53909039  0.45131989  1  0  -0.822573  0  1.948028  0  0  -0.784219  0  2.223942  0  0  -0.800929  0  2.203575  0  0  -0.461833  -0.77202  0  2.237986  0
O  O92  1  0.39410965  0.87725172  0.36846738  1  0  -0.7243  0  1.94105  0  0  -0.673398  0  2.194848  0  0  -0.692105  0  2.178022  0  0  -0.368115  -0.659487  0  2.206824  0
O  O93  1  0.02478381  0.62289074  0.63141394  1  0  -0.724861  0  1.942434  0  0  -0.673572  0  2.195843  0  0  -0.692292  0  2.179004  0  0  -0.368267  -0.659633  0  2.207786  0
O  O94  1  0.60589226  0.12273956  0.63153244  1  0  -0.724179  0  1.941288  0  0  -0.673338  0  2.195122  0  0  -0.692046  0  2.1783  0  0  -0.368069  -0.65943  0  2.2071  0
O  O95  1  0.97522634  0.37710649  0.36858548  1  0  -0.724864  0  1.942561  0  0  -0.673573  0  2.195983  0  0  -0.692294  0  2.179142  0  0  -0.368266  -0.659656  0  2.207971  0
