# generated using pymatgen
data_U3H36C28(NO10)2
_symmetry_space_group_name_H-M   'P 1'
_cell_length_a   8.91403920
_cell_length_b   9.48112235
_cell_length_c   11.99315537
_cell_angle_alpha   84.34799092
_cell_angle_beta   73.92878951
_cell_angle_gamma   68.02978793
_symmetry_Int_Tables_number   1
_chemical_formula_structural   U3H36C28(NO10)2
_chemical_formula_sum   'U3 H36 C28 N2 O20'
_cell_volume   903.24215752
_cell_formula_units_Z   1
loop_
 _symmetry_equiv_pos_site_id
 _symmetry_equiv_pos_as_xyz
  1  'x, y, z'
loop_
 _atom_site_type_symbol
 _atom_site_label
 _atom_site_symmetry_multiplicity
 _atom_site_fract_x
 _atom_site_fract_y
 _atom_site_fract_z
 _atom_site_occupancy
 _atom_site_hle17_bader_spin_density
 _atom_site_hle17_ddec_charge
 _atom_site_hle17_ddec_spin_density
 _atom_site_hle17_ddec_sum_bond_order
 _atom_site_hle17_magmom
 _atom_site_hse06_10hf_bader_spin_density
 _atom_site_hse06_10hf_ddec_charge
 _atom_site_hse06_10hf_ddec_spin_density
 _atom_site_hse06_10hf_ddec_sum_bond_order
 _atom_site_hse06_10hf_magmom
 _atom_site_hse06_bader_spin_density
 _atom_site_hse06_ddec_charge
 _atom_site_hse06_ddec_spin_density
 _atom_site_hse06_ddec_sum_bond_order
 _atom_site_hse06_magmom
 _atom_site_pbe_bader_spin_density
 _atom_site_pbe_cm5_charge
 _atom_site_pbe_ddec_charge
 _atom_site_pbe_ddec_spin_density
 _atom_site_pbe_ddec_sum_bond_order
 _atom_site_pbe_magmom
U  U0  1  0.49999979  0.99999976  0.49999919  1  0  2.465721  0  4.075163  0  0  2.532231  0  4.717894  0  0  2.644048  0  4.680244  0  0  2.181013  2.452086  0  4.746629  0
U  U1  1  0.41560758  0.29200126  0.17914561  1  0  2.526494  0  4.120034  0  0  2.595442  0  4.772216  0  0  2.706603  0  4.731503  0  0  2.196238  2.515954  0  4.802284  0
U  U2  1  0.58439301  0.70800243  0.82085477  1  0  2.526472  0  4.119989  0  0  2.5954  0  4.772158  0  0  2.706546  0  4.731469  0  0  2.196197  2.515896  0  4.802249  0
H  H3  1  0.24793737  0.05180597  0.17376390  1  0  0.080889  0  0.9457  0  0  0.090801  0  1.008431  0  0  0.092253  0  1.007973  0  0  0.111023  0.089932  0  1.00869  0
H  H4  1  0.75206317  0.94819203  0.82623695  1  0  0.080907  0  0.945698  0  0  0.090833  0  1.008413  0  0  0.092285  0  1.007953  0  0  0.111029  0.089964  0  1.008673  0
H  H5  1  0.01700333  0.93656784  0.37009639  1  0  0.088323  0  0.923746  0  0  0.106472  0  0.983293  0  0  0.107975  0  0.982987  0  0  0.103179  0.105356  0  0.983679  0
H  H6  1  0.98299305  0.06343471  0.62990495  1  0  0.088298  0  0.923836  0  0  0.10649  0  0.983324  0  0  0.107992  0  0.983015  0  0  0.10317  0.105374  0  0.983712  0
H  H7  1  0.98626153  0.12934368  0.33963522  1  0  0.079677  0  0.949879  0  0  0.096417  0  1.010955  0  0  0.097307  0  1.011799  0  0  0.097551  0.095777  0  1.010375  0
H  H8  1  0.01373996  0.87065773  0.66036349  1  0  0.079696  0  0.94988  0  0  0.096419  0  1.010976  0  0  0.097292  0  1.011839  0  0  0.097547  0.095781  0  1.010396  0
H  H9  1  0.98432137  0.08793845  0.13478885  1  0  0.074296  0  0.90985  0  0  0.088034  0  0.966404  0  0  0.089224  0  0.966593  0  0  0.106415  0.087343  0  0.965868  0
H  H10  1  0.01567709  0.91206182  0.86521141  1  0  0.074288  0  0.909857  0  0  0.08803  0  0.966413  0  0  0.089221  0  0.966602  0  0  0.106394  0.08734  0  0.965876  0
H  H11  1  0.99726032  0.77057610  0.22367928  1  0  0.086419  0  0.917772  0  0  0.106957  0  0.971964  0  0  0.107947  0  0.972473  0  0  0.101815  0.106191  0  0.971427  0
H  H12  1  0.00273931  0.22942418  0.77632241  1  0  0.086406  0  0.917759  0  0  0.106945  0  0.971944  0  0  0.107935  0  0.972451  0  0  0.101806  0.106179  0  0.971406  0
H  H13  1  0.96137607  0.84851981  0.08819774  1  0  0.077019  0  0.922075  0  0  0.094152  0  0.982007  0  0  0.095509  0  0.981435  0  0  0.094696  0.093072  0  0.982445  0
H  H14  1  0.03862285  0.15147932  0.91180418  1  0  0.077039  0  0.922056  0  0  0.094144  0  0.982016  0  0  0.0955  0  0.981443  0  0  0.094696  0.093063  0  0.982453  0
H  H15  1  0.23660243  0.87943842  0.03039410  1  0  0.089065  0  0.943795  0  0  0.097293  0  1.007307  0  0  0.099947  0  1.006172  0  0  0.11019  0.095418  0  1.008115  0
H  H16  1  0.76339602  0.12056184  0.96960616  1  0  0.089054  0  0.94379  0  0  0.097281  0  1.007312  0  0  0.099938  0  1.006174  0  0  0.110186  0.095407  0  1.00812  0
H  H17  1  0.43828715  0.78329791  0.14929471  1  0  0.091527  0  0.933087  0  0  0.108898  0  0.992553  0  0  0.109873  0  0.992499  0  0  0.105574  0.108202  0  0.992734  0
H  H18  1  0.56171177  0.21670122  0.85070555  1  0  0.091536  0  0.933066  0  0  0.108914  0  0.992528  0  0  0.109889  0  0.992475  0  0  0.105584  0.108215  0  0.99271  0
H  H19  1  0.29326234  0.72719622  0.26109364  1  0  0.085665  0  0.929815  0  0  0.103202  0  0.991438  0  0  0.104557  0  0.991708  0  0  0.102582  0.102182  0  0.991375  0
H  H20  1  0.70673587  0.27280177  0.73890602  1  0  0.085672  0  0.92982  0  0  0.10321  0  0.99145  0  0  0.104566  0  0.991722  0  0  0.10257  0.102188  0  0.991387  0
H  H21  1  0.92716165  0.37121299  0.13421397  1  0  0.106512  0  0.915285  0  0  0.125169  0  0.96865  0  0  0.127397  0  0.96781  0  0  0.109111  0.123719  0  0.968885  0
H  H22  1  0.07283680  0.62878728  0.86578463  1  0  0.106521  0  0.915248  0  0  0.125178  0  0.968608  0  0  0.127407  0  0.967766  0  0  0.109113  0.123727  0  0.968844  0
H  H23  1  0.97719580  0.53586159  0.12844016  1  0  0.11719  0  0.937713  0  0  0.133143  0  0.995124  0  0  0.13555  0  0.994504  0  0  0.110231  0.131557  0  0.99523  0
H  H24  1  0.02280220  0.46413981  0.87155927  1  0  0.117199  0  0.937708  0  0  0.133129  0  0.995145  0  0  0.135535  0  0.994529  0  0  0.110223  0.131545  0  0.995252  0
H  H25  1  0.70185040  0.68178586  0.24383317  1  0  0.080481  0  0.927029  0  0  0.099286  0  0.982252  0  0  0.099904  0  0.982877  0  0  0.100764  0.098761  0  0.981898  0
H  H26  1  0.29814735  0.31821326  0.75616733  1  0  0.080466  0  0.927045  0  0  0.099271  0  0.982259  0  0  0.09989  0  0.982882  0  0  0.100751  0.098746  0  0.981906  0
H  H27  1  0.64041181  0.54633569  0.19351702  1  0  0.094893  0  0.954117  0  0  0.108904  0  1.017848  0  0  0.11074  0  1.017275  0  0  0.104677  0.107444  0  1.018544  0
H  H28  1  0.35958756  0.45366230  0.80648241  1  0  0.094921  0  0.954147  0  0  0.108929  0  1.017865  0  0  0.110763  0  1.017292  0  0  0.1047  0.107469  0  1.01856  0
H  H29  1  0.61113564  0.58817187  0.42986795  1  0  0.094415  0  0.93026  0  0  0.110646  0  0.988261  0  0  0.111336  0  0.987856  0  0  0.118525  0.110179  0  0.988623  0
H  H30  1  0.38886581  0.41182385  0.57013206  1  0  0.09439  0  0.930228  0  0  0.110618  0  0.988249  0  0  0.111311  0  0.98784  0  0  0.118507  0.110148  0  0.988612  0
H  H31  1  0.63468101  0.41065677  0.37406046  1  0  0.088595  0  0.936969  0  0  0.105117  0  0.994316  0  0  0.105809  0  0.993873  0  0  0.112491  0.104518  0  0.994866  0
H  H32  1  0.36532115  0.58934009  0.62593931  1  0  0.088592  0  0.936953  0  0  0.105129  0  0.994295  0  0  0.10582  0  0.993852  0  0  0.112497  0.104526  0  0.994842  0
H  H33  1  0.01619779  0.32080358  0.49179805  1  0  0.121182  0  0.932567  0  0  0.140442  0  0.994154  0  0  0.142348  0  0.992441  0  0  0.118276  0.138895  0  0.995662  0
H  H34  1  0.98380488  0.67919783  0.50819959  1  0  0.12117  0  0.932544  0  0  0.14043  0  0.994145  0  0  0.142337  0  0.992433  0  0  0.118272  0.138883  0  0.995654  0
H  H35  1  0.81954998  0.29259846  0.52900665  1  0  0.112622  0  0.9429  0  0  0.130975  0  1.010634  0  0  0.132194  0  1.009564  0  0  0.110097  0.130026  0  1.011431  0
H  H36  1  0.18045198  0.70740182  0.47099288  1  0  0.112566  0  0.942929  0  0  0.130958  0  1.010631  0  0  0.132177  0  1.00956  0  0  0.110098  0.13001  0  1.011428  0
H  H37  1  0.82477936  0.47091074  0.55973281  1  0  0.120629  0  0.941797  0  0  0.139763  0  1.004988  0  0  0.140446  0  1.004618  0  0  0.117505  0.139421  0  1.005157  0
H  H38  1  0.17522376  0.52908954  0.44026565  1  0  0.120616  0  0.941823  0  0  0.139748  0  1.005026  0  0  0.140431  0  1.004656  0  0  0.117496  0.139407  0  1.005193  0
C  C39  1  0.22870004  0.97194562  0.24433869  1  0  -0.117841  0  3.646048  0  0  -0.120732  0  3.885003  0  0  -0.126635  0  3.898223  0  0  -0.08259  -0.116758  0  3.875822  0
C  C40  1  0.77130050  0.02805238  0.75566216  1  0  -0.117956  0  3.646029  0  0  -0.120869  0  3.885007  0  0  -0.126775  0  3.898221  0  0  -0.082605  -0.11689  0  3.875829  0
C  C41  1  0.03987853  0.01583378  0.30000008  1  0  -0.123853  0  3.637818  0  0  -0.174405  0  3.894011  0  0  -0.173828  0  3.905821  0  0  -0.157672  -0.174538  0  3.885867  0
C  C42  1  0.96012063  0.98416763  0.69999994  1  0  -0.123847  0  3.637933  0  0  -0.174414  0  3.894123  0  0  -0.173821  0  3.905923  0  0  -0.157663  -0.174554  0  3.885988  0
C  C43  1  0.95514950  0.01172351  0.20634011  1  0  -0.106126  0  3.631756  0  0  -0.110202  0  3.873197  0  0  -0.116404  0  3.886527  0  0  -0.079691  -0.106088  0  3.863881  0
C  C44  1  0.04484896  0.98827675  0.79365932  1  0  -0.106122  0  3.631998  0  0  -0.110209  0  3.873431  0  0  -0.116412  0  3.886757  0  0  -0.079652  -0.106093  0  3.864116  0
C  C45  1  0.02417973  0.85031294  0.15491214  1  0  -0.115994  0  3.62362  0  0  -0.165429  0  3.88066  0  0  -0.16505  0  3.893322  0  0  -0.151677  -0.165542  0  3.871805  0
C  C46  1  0.97582081  0.14968506  0.84508871  1  0  -0.116012  0  3.623753  0  0  -0.165416  0  3.880776  0  0  -0.165035  0  3.893438  0  0  -0.151683  -0.165529  0  3.871922  0
C  C47  1  0.21376322  0.80234057  0.10218436  1  0  -0.135051  0  3.645826  0  0  -0.141425  0  3.889616  0  0  -0.148427  0  3.902912  0  0  -0.085296  -0.13668  0  3.88056  0
C  C48  1  0.78623641  0.19765971  0.89781649  1  0  -0.134987  0  3.645765  0  0  -0.141366  0  3.88954  0  0  -0.148372  0  3.902846  0  0  -0.085279  -0.136619  0  3.880477  0
C  C49  1  0.30456398  0.81095147  0.19208960  1  0  -0.122532  0  3.603782  0  0  -0.172772  0  3.858207  0  0  -0.173279  0  3.871778  0  0  -0.147765  -0.172179  0  3.848731  0
C  C50  1  0.69543564  0.18904881  0.80791125  1  0  -0.122534  0  3.603753  0  0  -0.172796  0  3.858225  0  0  -0.173308  0  3.871801  0  0  -0.147764  -0.172201  0  3.848745  0
C  C51  1  0.32021643  0.98279159  0.32960295  1  0  0.694878  0  3.775082  0  0  0.662117  0  4.075647  0  0  0.699766  0  4.064866  0  0  0.23383  0.636295  0  4.081812  0
C  C52  1  0.67978457  0.01720528  0.67039789  1  0  0.694988  0  3.774867  0  0  0.662264  0  4.075382  0  0  0.699923  0  4.06458  0  0  0.233869  0.63644  0  4.081548  0
C  C53  1  0.76556402  0.06776449  0.24714324  1  0  0.722219  0  3.766842  0  0  0.691548  0  4.06355  0  0  0.731258  0  4.050606  0  0  0.253228  0.664191  0  4.070979  0
C  C54  1  0.23443585  0.93223806  0.75285738  1  0  0.722341  0  3.766839  0  0  0.691685  0  4.063519  0  0  0.731401  0  4.050564  0  0  0.253243  0.664327  0  4.070949  0
C  C55  1  0.29146374  0.64220872  0.05265015  1  0  0.733654  0  3.753023  0  0  0.705444  0  4.046516  0  0  0.745302  0  4.032033  0  0  0.254875  0.677901  0  4.055389  0
C  C56  1  0.70853472  0.35779155  0.94735011  1  0  0.733652  0  3.75305  0  0  0.705457  0  4.046531  0  0  0.745317  0  4.032045  0  0  0.254872  0.677916  0  4.055403  0
C  C57  1  0.98067322  0.41035266  0.28769578  1  0  0.5481  0  3.751118  0  0  0.511263  0  4.041125  0  0  0.542678  0  4.04024  0  0  0.262995  0.48989  0  4.040817  0
C  C58  1  0.01932619  0.58965102  0.71230234  1  0  0.548132  0  3.75109  0  0  0.511255  0  4.041112  0  0  0.54267  0  4.040228  0  0  0.262988  0.489881  0  4.040807  0
C  C59  1  0.90843508  0.46994799  0.18521093  1  0  -0.24271  0  3.661809  0  0  -0.286058  0  3.918227  0  0  -0.291175  0  3.92586  0  0  -0.146416  -0.282621  0  3.91248  0
C  C60  1  0.09156454  0.53005228  0.81478826  1  0  -0.242743  0  3.661759  0  0  -0.286082  0  3.918193  0  0  -0.291204  0  3.925829  0  0  -0.146417  -0.282648  0  3.912453  0
C  C61  1  0.72269757  0.56034688  0.24085556  1  0  -0.110604  0  3.631199  0  0  -0.152757  0  3.892868  0  0  -0.153408  0  3.904962  0  0  -0.152105  -0.152054  0  3.884401  0
C  C62  1  0.27730251  0.43965225  0.75914362  1  0  -0.110613  0  3.631278  0  0  -0.152732  0  3.892915  0  0  -0.153379  0  3.905008  0  0  -0.152106  -0.152038  0  3.884446  0
C  C63  1  0.69010713  0.49841437  0.36516951  1  0  -0.008228  0  3.569326  0  0  -0.066409  0  3.822656  0  0  -0.062269  0  3.834656  0  0  -0.051806  -0.069  0  3.814023  0
C  C64  1  0.30989296  0.50158476  0.63483051  1  0  -0.008158  0  3.569374  0  0  -0.0664  0  3.822716  0  0  -0.062263  0  3.834717  0  0  -0.051785  -0.068979  0  3.814068  0
C  C65  1  0.88178311  0.37514616  0.49828968  1  0  -0.175984  0  3.623796  0  0  -0.276661  0  3.871907  0  0  -0.272663  0  3.880689  0  0  -0.124629  -0.279141  0  3.865881  0
C  C66  1  0.11821885  0.62485411  0.50170903  1  0  -0.175895  0  3.623764  0  0  -0.276635  0  3.871869  0  0  -0.27264  0  3.880654  0  0  -0.124623  -0.279114  0  3.865843  0
N  N67  1  0.85809966  0.42954934  0.38474435  1  0  -0.123521  0  3.416376  0  0  -0.033892  0  3.649909  0  0  -0.05518  0  3.67304  0  0  -0.258535  -0.019327  0  3.633651  0
N  N68  1  0.14190114  0.57045094  0.61525626  1  0  -0.123597  0  3.416444  0  0  -0.033857  0  3.649889  0  0  -0.055143  0  3.673019  0  0  -0.258541  -0.019294  0  3.63363  0
O  O69  1  0.34595209  0.18700143  0.54360982  1  0  -0.701327  0  1.552853  0  0  -0.713855  0  1.838256  0  0  -0.733765  0  1.824759  0  0  -0.757709  -0.702066  0  1.848636  0
O  O70  1  0.65404870  0.81299884  0.45638913  1  0  -0.701352  0  1.552895  0  0  -0.713872  0  1.838271  0  0  -0.733783  0  1.824771  0  0  -0.757722  -0.702081  0  1.848647  0
O  O71  1  0.44026346  0.38309565  0.29490316  1  0  -0.70658  0  1.571061  0  0  -0.719166  0  1.864742  0  0  -0.73948  0  1.850784  0  0  -0.751604  -0.70742  0  1.875631  0
O  O72  1  0.55973525  0.61690690  0.70509687  1  0  -0.706614  0  1.571002  0  0  -0.71918  0  1.864668  0  0  -0.739491  0  1.850709  0  0  -0.751606  -0.707431  0  1.875563  0
O  O73  1  0.39341520  0.20037406  0.06234156  1  0  -0.710535  0  1.501744  0  0  -0.717366  0  1.765023  0  0  -0.737428  0  1.749845  0  0  -0.761565  -0.70567  0  1.776465  0
O  O74  1  0.60658605  0.79962508  0.93765905  1  0  -0.710488  0  1.501731  0  0  -0.717304  0  1.765  0  0  -0.737362  0  1.749827  0  0  -0.761529  -0.705604  0  1.776445  0
O  O75  1  0.40244113  0.07401222  0.31087096  1  0  -0.747849  0  2.14447  0  0  -0.739541  0  2.431512  0  0  -0.777495  0  2.428977  0  0  -0.378053  -0.712116  0  2.431762  0
O  O76  1  0.59755709  0.92598578  0.68913204  1  0  -0.747888  0  2.144357  0  0  -0.739583  0  2.431372  0  0  -0.777538  0  2.42883  0  0  -0.378048  -0.712155  0  2.431619  0
O  O77  1  0.32144667  0.90279972  0.42042046  1  0  -0.594238  0  1.939656  0  0  -0.573124  0  2.182406  0  0  -0.603033  0  2.177045  0  0  -0.319364  -0.551455  0  2.185039  0
O  O78  1  0.67855875  0.09719487  0.57957881  1  0  -0.594277  0  1.939576  0  0  -0.573188  0  2.182322  0  0  -0.6031  0  2.176955  0  0  -0.319397  -0.551517  0  2.184953  0
O  O79  1  0.69496443  0.07554033  0.35488785  1  0  -0.649087  0  2.102654  0  0  -0.640629  0  2.382648  0  0  -0.676541  0  2.376648  0  0  -0.355892  -0.614066  0  2.385154  0
O  O80  1  0.30503402  0.92445993  0.64511158  1  0  -0.649161  0  2.102649  0  0  -0.640685  0  2.382618  0  0  -0.676601  0  2.376615  0  0  -0.355882  -0.614123  0  2.385124  0
O  O81  1  0.68665637  0.10489256  0.16831026  1  0  -0.659289  0  2.053298  0  0  -0.648917  0  2.318726  0  0  -0.684166  0  2.312521  0  0  -0.363182  -0.623046  0  2.321381  0
O  O82  1  0.31334538  0.89511113  0.83168821  1  0  -0.6593  0  2.053298  0  0  -0.648982  0  2.318759  0  0  -0.68423  0  2.31255  0  0  -0.363188  -0.623108  0  2.321416  0
O  O83  1  0.38715623  0.61746168  0.95004341  1  0  -0.665236  0  2.079025  0  0  -0.655887  0  2.352176  0  0  -0.691671  0  2.346762  0  0  -0.361933  -0.629692  0  2.354448  0
O  O84  1  0.61284106  0.38253859  0.04995709  1  0  -0.665279  0  2.079  0  0  -0.655925  0  2.352144  0  0  -0.691712  0  2.346729  0  0  -0.361948  -0.629732  0  2.354416  0
O  O85  1  0.25966225  0.53659375  0.11728270  1  0  -0.678748  0  2.053608  0  0  -0.666363  0  2.322377  0  0  -0.701304  0  2.315172  0  0  -0.36732  -0.640672  0  2.325615  0
O  O86  1  0.74033829  0.46340425  0.88271731  1  0  -0.67871  0  2.053679  0  0  -0.666327  0  2.32243  0  0  -0.701267  0  2.315232  0  0  -0.367293  -0.640634  0  2.325671  0
O  O87  1  0.13469144  0.34582778  0.28446639  1  0  -0.65226  0  2.128165  0  0  -0.64201  0  2.414461  0  0  -0.67474  0  2.409601  0  0  -0.371582  -0.618135  0  2.416615  0
O  O88  1  0.86530914  0.65417591  0.71553232  1  0  -0.652261  0  2.128129  0  0  -0.64201  0  2.414443  0  0  -0.674738  0  2.409581  0  0  -0.371575  -0.618131  0  2.416597  0
