# generated using pymatgen
data_K2H12C10O11
_symmetry_space_group_name_H-M   'P 1'
_cell_length_a   6.83255490
_cell_length_b   13.02306590
_cell_length_c   18.23905562
_cell_angle_alpha   109.53481998
_cell_angle_beta   89.97499588
_cell_angle_gamma   105.21286938
_symmetry_Int_Tables_number   1
_chemical_formula_structural   K2H12C10O11
_chemical_formula_sum   'K8 H48 C40 O44'
_cell_volume   1469.09297739
_cell_formula_units_Z   4
loop_
 _symmetry_equiv_pos_site_id
 _symmetry_equiv_pos_as_xyz
  1  'x, y, z'
loop_
 _atom_site_type_symbol
 _atom_site_label
 _atom_site_symmetry_multiplicity
 _atom_site_fract_x
 _atom_site_fract_y
 _atom_site_fract_z
 _atom_site_occupancy
 _atom_site_hle17_bader_spin_density
 _atom_site_hle17_ddec_charge
 _atom_site_hle17_ddec_spin_density
 _atom_site_hle17_ddec_sum_bond_order
 _atom_site_hle17_magmom
 _atom_site_hse06_10hf_bader_spin_density
 _atom_site_hse06_10hf_ddec_charge
 _atom_site_hse06_10hf_ddec_spin_density
 _atom_site_hse06_10hf_ddec_sum_bond_order
 _atom_site_hse06_10hf_magmom
 _atom_site_hse06_bader_spin_density
 _atom_site_hse06_ddec_charge
 _atom_site_hse06_ddec_spin_density
 _atom_site_hse06_ddec_sum_bond_order
 _atom_site_hse06_magmom
 _atom_site_pbe_bader_spin_density
 _atom_site_pbe_cm5_charge
 _atom_site_pbe_ddec_charge
 _atom_site_pbe_ddec_spin_density
 _atom_site_pbe_ddec_sum_bond_order
 _atom_site_pbe_magmom
K  K0  1  0.92754028  0.16523155  0.23438681  1  0  0.913305  0  0.495077  0  0  0.861984  0  0.683606  0  0  0.877699  0  0.660163  0  0  0.806162  0.850238  0  0.700414  0
K  K1  1  0.76317484  0.83531297  0.26567677  1  0  0.912712  0  0.496653  0  0  0.861475  0  0.685239  0  0  0.877228  0  0.661792  0  0  0.807088  0.849727  0  0.702049  0
K  K2  1  0.07246230  0.83476975  0.76561434  1  0  0.913311  0  0.495047  0  0  0.861985  0  0.683586  0  0  0.877718  0  0.660113  0  0  0.806139  0.850239  0  0.700395  0
K  K3  1  0.23681022  0.16469427  0.73432799  1  0  0.912728  0  0.496619  0  0  0.861464  0  0.685239  0  0  0.877216  0  0.661798  0  0  0.807053  0.849717  0  0.702048  0
K  K4  1  0.50799742  0.29939643  0.56387856  1  0  0.943375  0  0.387334  0  0  0.901912  0  0.551315  0  0  0.91369  0  0.532978  0  0  0.7118  0.892917  0  0.564669  0
K  K5  1  0.20847276  0.70076176  0.93647025  1  0  0.943086  0  0.387821  0  0  0.901816  0  0.551876  0  0  0.913421  0  0.533636  0  0  0.712082  0.892805  0  0.565269  0
K  K6  1  0.49200597  0.70060062  0.43611829  1  0  0.943412  0  0.387292  0  0  0.901923  0  0.551314  0  0  0.913686  0  0.532985  0  0  0.711814  0.892925  0  0.564669  0
K  K7  1  0.79152709  0.29923699  0.06352865  1  0  0.943092  0  0.387822  0  0  0.901817  0  0.551883  0  0  0.913426  0  0.533636  0  0  0.712091  0.8928  0  0.565279  0
H  H8  1  0.13790314  0.47497307  0.40084424  1  0  0.102673  0  0.935467  0  0  0.119138  0  0.998555  0  0  0.12029  0  0.997832  0  0  0.11129  0.118127  0  0.999322  0
H  H9  1  0.66277523  0.52538875  0.09934093  1  0  0.102288  0  0.936023  0  0  0.119496  0  0.998053  0  0  0.120719  0  0.997251  0  0  0.111503  0.118436  0  0.998859  0
H  H10  1  0.86209674  0.52503162  0.59915553  1  0  0.102698  0  0.935499  0  0  0.119111  0  0.998654  0  0  0.120262  0  0.997934  0  0  0.111296  0.118102  0  0.99942  0
H  H11  1  0.33722126  0.47460916  0.90065887  1  0  0.102311  0  0.936034  0  0  0.119518  0  0.998062  0  0  0.12074  0  0.997261  0  0  0.111515  0.118458  0  0.998869  0
H  H12  1  0.21643267  0.38547052  0.31493890  1  0  0.093893  0  0.961495  0  0  0.108525  0  1.030862  0  0  0.110614  0  1.028617  0  0  0.10797  0.10682  0  1.032659  0
H  H13  1  0.83067636  0.61479504  0.18527195  1  0  0.09393  0  0.961939  0  0  0.108273  0  1.031376  0  0  0.110358  0  1.029153  0  0  0.107937  0.106578  0  1.033146  0
H  H14  1  0.78357203  0.61453503  0.68506051  1  0  0.093887  0  0.961548  0  0  0.108547  0  1.030869  0  0  0.110635  0  1.028625  0  0  0.107983  0.10684  0  1.032669  0
H  H15  1  0.16932117  0.38520202  0.81472874  1  0  0.093932  0  0.961959  0  0  0.108282  0  1.031399  0  0  0.110369  0  1.029172  0  0  0.107937  0.106586  0  1.033168  0
H  H16  1  0.36533454  0.42954674  0.40639527  1  0  0.092841  0  0.972196  0  0  0.107058  0  1.04203  0  0  0.109023  0  1.039446  0  0  0.108397  0.1055  0  1.044044  0
H  H17  1  0.93572792  0.57047319  0.09384514  1  0  0.093827  0  0.970199  0  0  0.107702  0  1.040254  0  0  0.109663  0  1.037693  0  0  0.108822  0.106119  0  1.042296  0
H  H18  1  0.63466639  0.57045711  0.59360375  1  0  0.092864  0  0.972141  0  0  0.107076  0  1.041989  0  0  0.109042  0  1.039405  0  0  0.108395  0.105517  0  1.044003  0
H  H19  1  0.06426961  0.42952387  0.90615445  1  0  0.093816  0  0.970234  0  0  0.107698  0  1.040286  0  0  0.109657  0  1.037725  0  0  0.108835  0.106114  0  1.042329  0
H  H20  1  0.74886162  0.91577999  0.69071358  1  0  0.089875  0  0.969823  0  0  0.100619  0  1.047087  0  0  0.102215  0  1.045064  0  0  0.106246  0.099416  0  1.048632  0
H  H21  1  0.83229492  0.08398173  0.80922996  1  0  0.090466  0  0.968532  0  0  0.101081  0  1.045865  0  0  0.102673  0  1.043829  0  0  0.106493  0.099888  0  1.047414  0
H  H22  1  0.25113445  0.08421707  0.30928163  1  0  0.089875  0  0.969844  0  0  0.100576  0  1.04717  0  0  0.102174  0  1.045145  0  0  0.10623  0.099374  0  1.048715  0
H  H23  1  0.16770931  0.91601703  0.19077168  1  0  0.090451  0  0.968511  0  0  0.101025  0  1.045889  0  0  0.102615  0  1.043856  0  0  0.10648  0.099832  0  1.047438  0
H  H24  1  0.54221550  0.80526576  0.62689738  1  0  0.103036  0  0.961148  0  0  0.12404  0  1.019827  0  0  0.124828  0  1.019325  0  0  0.112556  0.123318  0  1.020312  0
H  H25  1  0.73574224  0.19436350  0.87299765  1  0  0.101837  0  0.961346  0  0  0.122862  0  1.02014  0  0  0.123646  0  1.019642  0  0  0.112127  0.122147  0  1.020618  0
H  H26  1  0.45777702  0.19473299  0.37309768  1  0  0.103023  0  0.961184  0  0  0.124035  0  1.019855  0  0  0.124822  0  1.019355  0  0  0.112571  0.123313  0  1.02034  0
H  H27  1  0.26426431  0.80563696  0.12700275  1  0  0.101858  0  0.961262  0  0  0.122859  0  1.020082  0  0  0.123644  0  1.019581  0  0  0.112114  0.122145  0  1.02056  0
H  H28  1  0.50171062  0.93699437  0.68742570  1  0  0.089394  0  0.957802  0  0  0.105931  0  1.025051  0  0  0.106686  0  1.024161  0  0  0.10882  0.105351  0  1.025771  0
H  H29  1  0.56387387  0.06241790  0.81257629  1  0  0.088993  0  0.956958  0  0  0.105347  0  1.024597  0  0  0.106131  0  1.023666  0  0  0.108631  0.104765  0  1.02531  0
H  H30  1  0.49828714  0.06300607  0.31257141  1  0  0.089352  0  0.957829  0  0  0.105884  0  1.025094  0  0  0.106641  0  1.024202  0  0  0.108803  0.105304  0  1.025814  0
H  H31  1  0.43613267  0.93758257  0.18742740  1  0  0.08894  0  0.957117  0  0  0.105283  0  1.024757  0  0  0.106067  0  1.023824  0  0  0.108604  0.104702  0  1.025471  0
H  H32  1  0.71964722  0.45920214  0.46126278  1  0  0.414716  0  0.89185  0  0  0.387078  0  0.951898  0  0  0.397278  0  0.936727  0  0  0.285079  0.379862  0  0.962637  0
H  H33  1  0.26015402  0.54077506  0.03869154  1  0  0.414997  0  0.891299  0  0  0.387875  0  0.950655  0  0  0.398053  0  0.935476  0  0  0.285513  0.380677  0  0.961393  0
H  H34  1  0.28035201  0.54079831  0.53873597  1  0  0.414729  0  0.891837  0  0  0.387087  0  0.951893  0  0  0.397287  0  0.936721  0  0  0.285082  0.37987  0  0.962633  0
H  H35  1  0.73984687  0.45922285  0.96130716  1  0  0.414964  0  0.891341  0  0  0.387834  0  0.950712  0  0  0.398013  0  0.935531  0  0  0.285501  0.380636  0  0.961451  0
H  H36  1  0.67002698  0.35122380  0.38635135  1  0  0.422044  0  0.876918  0  0  0.396963  0  0.931734  0  0  0.406901  0  0.91706  0  0  0.283922  0.389945  0  0.942086  0
H  H37  1  0.31946316  0.64876512  0.11361756  1  0  0.422322  0  0.87647  0  0  0.39723  0  0.931219  0  0  0.40713  0  0.916623  0  0  0.284127  0.390206  0  0.941578  0
H  H38  1  0.32997475  0.64877581  0.61364775  1  0  0.422045  0  0.87692  0  0  0.396955  0  0.931743  0  0  0.406892  0  0.91707  0  0  0.283935  0.389939  0  0.942093  0
H  H39  1  0.68053541  0.35123109  0.88638238  1  0  0.422338  0  0.876434  0  0  0.397221  0  0.931226  0  0  0.407122  0  0.916628  0  0  0.284102  0.390197  0  0.941585  0
H  H40  1  0.51974075  0.52957477  0.77275510  1  0  0.421641  0  0.881579  0  0  0.390713  0  0.945225  0  0  0.401773  0  0.929192  0  0  0.289219  0.382919  0  0.956491  0
H  H41  1  0.99066700  0.47048719  0.72739842  1  0  0.421515  0  0.881628  0  0  0.39049  0  0.945623  0  0  0.401589  0  0.929513  0  0  0.289079  0.382669  0  0.956944  0
H  H42  1  0.48025698  0.47041975  0.22724608  1  0  0.421614  0  0.881621  0  0  0.390694  0  0.945249  0  0  0.401755  0  0.929216  0  0  0.289214  0.3829  0  0.956516  0
H  H43  1  0.00933095  0.52951072  0.27260083  1  0  0.421492  0  0.881649  0  0  0.39047  0  0.945641  0  0  0.401568  0  0.929534  0  0  0.289069  0.382648  0  0.956963  0
H  H44  1  0.37087911  0.41797919  0.71141991  1  0  0.410149  0  0.898745  0  0  0.380688  0  0.961748  0  0  0.391446  0  0.945909  0  0  0.288027  0.3731  0  0.97289  0
H  H45  1  0.95319195  0.58210732  0.78861624  1  0  0.407659  0  0.901822  0  0  0.378165  0  0.964928  0  0  0.388909  0  0.949121  0  0  0.28693  0.370575  0  0.976073  0
H  H46  1  0.62911696  0.58201788  0.28857914  1  0  0.410132  0  0.898747  0  0  0.380665  0  0.961764  0  0  0.391422  0  0.945929  0  0  0.287998  0.373078  0  0.972904  0
H  H47  1  0.04680894  0.41789059  0.21138410  1  0  0.407647  0  0.901835  0  0  0.378157  0  0.964935  0  0  0.3889  0  0.949128  0  0  0.286922  0.370566  0  0.97608  0
H  H48  1  0.76481173  0.36822308  0.26372903  1  0  0.423164  0  0.881156  0  0  0.392256  0  0.9448  0  0  0.403582  0  0.92823  0  0  0.285198  0.384191  0  0.95658  0
H  H49  1  0.39773923  0.63189383  0.23619069  1  0  0.422525  0  0.881986  0  0  0.391488  0  0.945923  0  0  0.402826  0  0.92934  0  0  0.285261  0.383399  0  0.957741  0
H  H50  1  0.23518854  0.63177653  0.73626953  1  0  0.423186  0  0.881126  0  0  0.39227  0  0.944784  0  0  0.403596  0  0.928213  0  0  0.285203  0.384205  0  0.956565  0
H  H51  1  0.60226038  0.36810154  0.76380850  1  0  0.422608  0  0.881875  0  0  0.391568  0  0.945817  0  0  0.402909  0  0.929232  0  0  0.285298  0.383482  0  0.957632  0
H  H52  1  0.55290077  0.27480256  0.24528464  1  0  0.426114  0  0.85053  0  0  0.399332  0  0.914482  0  0  0.408232  0  0.901448  0  0  0.306739  0.392993  0  0.923772  0
H  H53  1  0.27922424  0.72527239  0.25463997  1  0  0.426983  0  0.848006  0  0  0.400333  0  0.912699  0  0  0.409211  0  0.899676  0  0  0.307455  0.394007  0  0.921984  0
H  H54  1  0.44710200  0.72519620  0.75471481  1  0  0.426103  0  0.850557  0  0  0.399317  0  0.914504  0  0  0.408218  0  0.90147  0  0  0.306705  0.392978  0  0.923795  0
H  H55  1  0.72076971  0.27472043  0.74535861  1  0  0.427011  0  0.847933  0  0  0.400348  0  0.91268  0  0  0.409227  0  0.899658  0  0  0.307498  0.39402  0  0.92197  0
C  C56  1  0.81256843  0.08178992  0.54162436  1  0  -0.318954  0  3.782974  0  0  -0.31998  0  4.052976  0  0  -0.345102  0  4.074186  0  0  -0.061715  -0.30301  0  4.038552  0
C  C57  1  0.73088430  0.91814653  0.95841596  1  0  -0.317117  0  3.783886  0  0  -0.318773  0  4.05353  0  0  -0.3439  0  4.074918  0  0  -0.061256  -0.301802  0  4.038936  0
C  C58  1  0.18742768  0.91821308  0.45837500  1  0  -0.318839  0  3.783164  0  0  -0.319889  0  4.053169  0  0  -0.345008  0  4.074411  0  0  -0.061708  -0.302921  0  4.038744  0
C  C59  1  0.26912017  0.08185562  0.04158758  1  0  -0.317055  0  3.783831  0  0  -0.318668  0  4.053495  0  0  -0.343795  0  4.074876  0  0  -0.061215  -0.301704  0  4.038912  0
C  C60  1  0.92798563  0.19239688  0.54749346  1  0  0.076932  0  3.646677  0  0  0.069626  0  3.901946  0  0  0.087222  0  3.912035  0  0  0.03786  0.057486  0  3.8952  0
C  C61  1  0.73579421  0.80758398  0.95259073  1  0  0.076259  0  3.646898  0  0  0.069828  0  3.901535  0  0  0.087517  0  3.911513  0  0  0.038654  0.05767  0  3.894807  0
C  C62  1  0.07200963  0.80760441  0.45250385  1  0  0.076857  0  3.646786  0  0  0.069578  0  3.902018  0  0  0.087172  0  3.912113  0  0  0.037917  0.057439  0  3.895271  0
C  C63  1  0.26420691  0.19241733  0.04741207  1  0  0.076319  0  3.647005  0  0  0.069797  0  3.901692  0  0  0.087472  0  3.911678  0  0  0.038612  0.057642  0  3.894962  0
C  C64  1  0.99968855  0.28860574  0.62377751  1  0  0.677467  0  3.969969  0  0  0.62324  0  4.280022  0  0  0.657324  0  4.266191  0  0  0.210481  0.59987  0  4.288495  0
C  C65  1  0.71104400  0.71125133  0.87633309  1  0  0.677534  0  3.966375  0  0  0.622882  0  4.277067  0  0  0.656898  0  4.26333  0  0  0.209531  0.599513  0  4.285548  0
C  C66  1  0.00030775  0.71139471  0.37621905  1  0  0.677657  0  3.969847  0  0  0.623438  0  4.279867  0  0  0.657526  0  4.266033  0  0  0.210501  0.600062  0  4.288353  0
C  C67  1  0.28895438  0.28874743  0.12366910  1  0  0.677472  0  3.966342  0  0  0.622878  0  4.276947  0  0  0.656921  0  4.263159  0  0  0.209549  0.599508  0  4.285428  0
C  C68  1  0.96379921  0.20447231  0.47348157  1  0  -0.327761  0  3.792729  0  0  -0.33039  0  4.066191  0  0  -0.355072  0  4.085385  0  0  -0.061852  -0.313817  0  4.053181  0
C  C69  1  0.75993515  0.79566128  0.02661474  1  0  -0.326793  0  3.79255  0  0  -0.330265  0  4.066392  0  0  -0.354881  0  4.085585  0  0  -0.061916  -0.31369  0  4.053346  0
C  C70  1  0.03619813  0.79552729  0.52651588  1  0  -0.3277  0  3.792823  0  0  -0.330367  0  4.066298  0  0  -0.355049  0  4.085487  0  0  -0.06187  -0.313789  0  4.053285  0
C  C71  1  0.24006847  0.20433918  0.97338785  1  0  -0.326786  0  3.792581  0  0  -0.330197  0  4.066351  0  0  -0.354814  0  4.085547  0  0  -0.061839  -0.313619  0  4.05331  0
C  C72  1  0.08303798  0.30799578  0.46428244  1  0  0.617945  0  3.847801  0  0  0.564306  0  4.149812  0  0  0.601315  0  4.140699  0  0  0.222656  0.539171  0  4.155596  0
C  C73  1  0.77581707  0.69219779  0.03585128  1  0  0.616919  0  3.847063  0  0  0.563789  0  4.148738  0  0  0.600864  0  4.139533  0  0  0.223023  0.538659  0  4.154555  0
C  C74  1  0.91695978  0.69200468  0.53571631  1  0  0.617973  0  3.847722  0  0  0.564331  0  4.149764  0  0  0.601341  0  4.140654  0  0  0.222663  0.539196  0  4.155545  0
C  C75  1  0.22417796  0.30780013  0.96415016  1  0  0.616947  0  3.84701  0  0  0.563824  0  4.148627  0  0  0.6009  0  4.139417  0  0  0.22299  0.538693  0  4.154446  0
C  C76  1  0.86823847  0.09684611  0.41498534  1  0  0.366468  0  3.741566  0  0  0.34599  0  4.011059  0  0  0.370294  0  4.011009  0  0  0.140409  0.329366  0  4.011346  0
C  C77  1  0.77215384  0.90337550  0.08507853  1  0  0.365595  0  3.742245  0  0  0.345401  0  4.011337  0  0  0.369477  0  4.011729  0  0  0.13939  0.328809  0  4.011491  0
C  C78  1  0.13175972  0.90315519  0.58501252  1  0  0.366465  0  3.741509  0  0  0.346017  0  4.010952  0  0  0.370341  0  4.010895  0  0  0.140425  0.329385  0  4.011249  0
C  C79  1  0.22784936  0.09662411  0.91492496  1  0  0.365639  0  3.742205  0  0  0.345474  0  4.0112  0  0  0.369557  0  4.011575  0  0  0.139414  0.328871  0  4.011378  0
C  C80  1  0.76636399  0.01509376  0.45971340  1  0  0.360363  0  3.742075  0  0  0.33813  0  4.019315  0  0  0.36101  0  4.020461  0  0  0.140349  0.322403  0  4.01895  0
C  C81  1  0.75158885  0.98495971  0.04031135  1  0  0.360547  0  3.743336  0  0  0.338717  0  4.01982  0  0  0.361526  0  4.021201  0  0  0.141239  0.323118  0  4.019195  0
C  C82  1  0.23363524  0.98490669  0.54028536  1  0  0.360261  0  3.742304  0  0  0.338071  0  4.019459  0  0  0.360907  0  4.020677  0  0  0.140322  0.322345  0  4.019094  0
C  C83  1  0.24841623  0.01504075  0.95969289  1  0  0.360547  0  3.743263  0  0  0.338692  0  4.01975  0  0  0.361504  0  4.021119  0  0  0.141208  0.323094  0  4.019133  0
C  C84  1  0.21083867  0.40634857  0.37799906  1  0  -0.086938  0  3.597406  0  0  -0.185587  0  3.861318  0  0  -0.178198  0  3.861943  0  0  -0.145751  -0.190389  0  3.861103  0
C  C85  1  0.80444754  0.59387858  0.12220311  1  0  -0.087962  0  3.597178  0  0  -0.186585  0  3.86146  0  0  -0.179274  0  3.862186  0  0  -0.146364  -0.191259  0  3.86117  0
C  C86  1  0.78916707  0.59365612  0.62200015  1  0  -0.086981  0  3.597518  0  0  -0.185616  0  3.861492  0  0  -0.178223  0  3.862116  0  0  -0.145781  -0.190418  0  3.861279  0
C  C87  1  0.19555041  0.40611933  0.87779724  1  0  -0.087963  0  3.597297  0  0  -0.186605  0  3.861571  0  0  -0.179297  0  3.862302  0  0  -0.146407  -0.19128  0  3.861282  0
C  C88  1  0.61001045  0.89665217  0.65313516  1  0  -0.075079  0  3.596683  0  0  -0.178196  0  3.865236  0  0  -0.170371  0  3.86683  0  0  -0.138536  -0.183317  0  3.864055  0
C  C89  1  0.71246407  0.10298402  0.84683568  1  0  -0.074371  0  3.594552  0  0  -0.177239  0  3.863322  0  0  -0.169459  0  3.864974  0  0  -0.138737  -0.182329  0  3.862143  0
C  C90  1  0.38998542  0.10334743  0.34686066  1  0  -0.074987  0  3.59675  0  0  -0.178133  0  3.865339  0  0  -0.17031  0  3.866932  0  0  -0.138512  -0.18325  0  3.86415  0
C  C91  1  0.28754290  0.89701729  0.15316602  1  0  -0.074243  0  3.594419  0  0  -0.177029  0  3.86321  0  0  -0.169249  0  3.864868  0  0  -0.138613  -0.182119  0  3.862025  0
C  C92  1  0.75970879  0.04777649  0.60828987  1  0  0.616823  0  3.841307  0  0  0.565806  0  4.138528  0  0  0.601667  0  4.131733  0  0  0.222139  0.541529  0  4.142536  0
C  C93  1  0.71156132  0.95202481  0.89173363  1  0  0.613746  0  3.846653  0  0  0.563419  0  4.142973  0  0  0.599214  0  4.136323  0  0  0.220603  0.539171  0  4.146928  0
C  C94  1  0.24028794  0.95222481  0.39170799  1  0  0.616474  0  3.841682  0  0  0.565415  0  4.138931  0  0  0.601274  0  4.132149  0  0  0.222055  0.54114  0  4.142934  0
C  C95  1  0.28844315  0.04797734  0.10826992  1  0  0.613449  0  3.846694  0  0  0.563088  0  4.143097  0  0  0.598898  0  4.13643  0  0  0.220514  0.538843  0  4.147049  0
O  O96  1  0.17884294  0.39297674  0.51972558  1  0  -0.587389  0  1.998571  0  0  -0.535049  0  2.218335  0  0  -0.556847  0  2.208344  0  0  -0.304319  -0.520276  0  2.225132  0
O  O97  1  0.78689394  0.60719834  0.98044697  1  0  -0.588711  0  1.998712  0  0  -0.536615  0  2.218438  0  0  -0.558365  0  2.208265  0  0  -0.305192  -0.521835  0  2.225274  0
O  O98  1  0.82115336  0.60702371  0.48027208  1  0  -0.587394  0  1.998533  0  0  -0.535051  0  2.218319  0  0  -0.55685  0  2.208327  0  0  -0.304313  -0.520278  0  2.225115  0
O  O99  1  0.21309377  0.39279957  0.01955448  1  0  -0.58869  0  1.998633  0  0  -0.536617  0  2.218342  0  0  -0.558376  0  2.208188  0  0  -0.305189  -0.52183  0  2.225164  0
O  O100  1  0.08846480  0.30409873  0.38902106  1  0  -0.318103  0  2.321611  0  0  -0.238457  0  2.565042  0  0  -0.259824  0  2.563378  0  0  -0.21995  -0.22359  0  2.565667  0
O  O101  1  0.78495921  0.69618361  0.11112873  1  0  -0.316502  0  2.321373  0  0  -0.237139  0  2.564737  0  0  -0.258618  0  2.563163  0  0  -0.220613  -0.222317  0  2.565366  0
O  O102  1  0.91153716  0.69590426  0.61097720  1  0  -0.318111  0  2.321559  0  0  -0.238469  0  2.564992  0  0  -0.259844  0  2.563333  0  0  -0.219937  -0.223604  0  2.565615  0
O  O103  1  0.21504252  0.30381600  0.88887257  1  0  -0.316541  0  2.321451  0  0  -0.237171  0  2.564805  0  0  -0.258648  0  2.563228  0  0  -0.220611  -0.222345  0  2.565432  0
O  O104  1  0.85894015  0.06349727  0.34244984  1  0  -0.537549  0  2.024714  0  0  -0.500397  0  2.257678  0  0  -0.518326  0  2.250963  0  0  -0.40212  -0.488393  0  2.262493  0
O  O105  1  0.79661528  0.93689785  0.15760744  1  0  -0.536708  0  2.025297  0  0  -0.49974  0  2.258231  0  0  -0.517568  0  2.251657  0  0  -0.401354  -0.487796  0  2.263025  0
O  O106  1  0.14106158  0.93650234  0.65754817  1  0  -0.537549  0  2.024586  0  0  -0.500405  0  2.257526  0  0  -0.518338  0  2.250803  0  0  -0.402103  -0.488399  0  2.262344  0
O  O107  1  0.20338853  0.06310006  0.84239455  1  0  -0.536786  0  2.025269  0  0  -0.499835  0  2.258203  0  0  -0.517669  0  2.251625  0  0  -0.401371  -0.487887  0  2.263005  0
O  O108  1  0.66947017  0.91516880  0.42430749  1  0  -0.51635  0  2.008134  0  0  -0.488478  0  2.24665  0  0  -0.504771  0  2.241714  0  0  -0.3512  -0.477826  0  2.250422  0
O  O109  1  0.75438560  0.08486607  0.07568447  1  0  -0.516782  0  2.008031  0  0  -0.489174  0  2.246507  0  0  -0.505367  0  2.241568  0  0  -0.351865  -0.478568  0  2.250211  0
O  O110  1  0.33053010  0.08483081  0.57569271  1  0  -0.516288  0  2.008159  0  0  -0.488452  0  2.246665  0  0  -0.504729  0  2.241757  0  0  -0.351179  -0.4778  0  2.250435  0
O  O111  1  0.24561656  0.91513440  0.92431922  1  0  -0.516762  0  2.008009  0  0  -0.489153  0  2.246487  0  0  -0.50535  0  2.241545  0  0  -0.35185  -0.478542  0  2.250188  0
O  O112  1  0.65580675  0.93607586  0.58806637  1  0  -0.312412  0  2.297955  0  0  -0.233709  0  2.542711  0  0  -0.255497  0  2.542722  0  0  -0.182403  -0.21847  0  2.542104  0
O  O113  1  0.71924655  0.06372643  0.91194727  1  0  -0.310337  0  2.298432  0  0  -0.23188  0  2.542852  0  0  -0.253595  0  2.542889  0  0  -0.180963  -0.216733  0  2.542282  0
O  O114  1  0.34418955  0.06392459  0.41193074  1  0  -0.312351  0  2.298109  0  0  -0.233556  0  2.5428  0  0  -0.255337  0  2.54281  0  0  -0.182383  -0.21832  0  2.5422  0
O  O115  1  0.28076670  0.93627572  0.08805463  1  0  -0.310348  0  2.298217  0  0  -0.231931  0  2.542661  0  0  -0.253654  0  2.542693  0  0  -0.181003  -0.216782  0  2.542093  0
O  O116  1  0.80623281  0.11086233  0.67762870  1  0  -0.593813  0  1.948568  0  0  -0.543998  0  2.171202  0  0  -0.565741  0  2.163668  0  0  -0.318773  -0.529106  0  2.176101  0
O  O117  1  0.69475401  0.88888076  0.82240041  1  0  -0.593445  0  1.95051  0  0  -0.543526  0  2.172526  0  0  -0.56525  0  2.165035  0  0  -0.317419  -0.528649  0  2.177405  0
O  O118  1  0.19376307  0.88913728  0.32237040  1  0  -0.593622  0  1.948684  0  0  -0.543801  0  2.171316  0  0  -0.565546  0  2.163788  0  0  -0.31873  -0.528909  0  2.17621  0
O  O119  1  0.30525612  0.11112394  0.17760374  1  0  -0.593252  0  1.950503  0  0  -0.543304  0  2.172516  0  0  -0.56503  0  2.165022  0  0  -0.317368  -0.528427  0  2.177392  0
O  O120  1  0.87798051  0.34794882  0.64878382  1  0  -0.656021  0  1.975092  0  0  -0.601416  0  2.201145  0  0  -0.629396  0  2.191824  0  0  -0.355253  -0.581041  0  2.206602  0
O  O121  1  0.52991981  0.65185941  0.85154595  1  0  -0.655872  0  1.972327  0  0  -0.601599  0  2.198985  0  0  -0.629498  0  2.189639  0  0  -0.355449  -0.581195  0  2.204377  0
O  O122  1  0.12201244  0.65205079  0.35121692  1  0  -0.656076  0  1.975065  0  0  -0.601506  0  2.201165  0  0  -0.629487  0  2.19184  0  0  -0.35528  -0.581126  0  2.206618  0
O  O123  1  0.47007984  0.34814190  0.14845684  1  0  -0.655876  0  1.97225  0  0  -0.601622  0  2.198874  0  0  -0.62953  0  2.189516  0  0  -0.355463  -0.581223  0  2.204281  0
O  O124  1  0.17265314  0.30088062  0.65573690  1  0  -0.704834  0  2.021744  0  0  -0.652464  0  2.26135  0  0  -0.680901  0  2.250999  0  0  -0.423643  -0.631483  0  2.267386  0
O  O125  1  0.87153946  0.69899655  0.84419104  1  0  -0.704205  0  2.020636  0  0  -0.651866  0  2.260935  0  0  -0.68022  0  2.25053  0  0  -0.422898  -0.630909  0  2.267047  0
O  O126  1  0.82734693  0.69912153  0.34426062  1  0  -0.704951  0  2.021672  0  0  -0.652578  0  2.261272  0  0  -0.680987  0  2.250861  0  0  -0.423658  -0.631595  0  2.267313  0
O  O127  1  0.12845934  0.30100307  0.15581190  1  0  -0.704188  0  2.020714  0  0  -0.651855  0  2.260963  0  0  -0.680217  0  2.250544  0  0  -0.422916  -0.630891  0  2.267061  0
O  O128  1  0.66162463  0.37605562  0.44360350  1  0  -0.896839  0  1.752221  0  0  -0.857528  0  1.910241  0  0  -0.875504  0  1.88198  0  0  -0.667574  -0.844609  0  1.930008  0
O  O129  1  0.28574041  0.62395030  0.05640421  1  0  -0.89704  0  1.752107  0  0  -0.858112  0  1.909398  0  0  -0.87598  0  1.881215  0  0  -0.668601  -0.845246  0  1.929143  0
O  O130  1  0.33837649  0.62394568  0.55639601  1  0  -0.896863  0  1.752227  0  0  -0.857531  0  1.910277  0  0  -0.875506  0  1.882022  0  0  -0.667582  -0.84461  0  1.930039  0
O  O131  1  0.71426193  0.37604761  0.94359558  1  0  -0.897012  0  1.752097  0  0  -0.858064  0  1.909402  0  0  -0.875931  0  1.881219  0  0  -0.66857  -0.845196  0  1.929146  0
O  O132  1  0.51622062  0.45686324  0.73024742  1  0  -0.857517  0  1.813358  0  0  -0.801124  0  1.970217  0  0  -0.821605  0  1.938976  0  0  -0.609874  -0.786495  0  1.992  0
O  O133  1  0.05977713  0.54327253  0.76983416  1  0  -0.854773  0  1.815041  0  0  -0.798515  0  1.971436  0  0  -0.818929  0  1.940127  0  0  -0.60814  -0.783926  0  1.99326  0
O  O134  1  0.48377460  0.54313213  0.26975397  1  0  -0.857471  0  1.813405  0  0  -0.801067  0  1.970235  0  0  -0.821553  0  1.939  0  0  -0.609835  -0.786439  0  1.99202  0
O  O135  1  0.94022125  0.45672623  0.23016529  1  0  -0.854728  0  1.815037  0  0  -0.798477  0  1.971422  0  0  -0.818889  0  1.940116  0  0  -0.608131  -0.783888  0  1.993246  0
O  O136  1  0.67880137  0.30572936  0.28023182  1  0  -0.87294  0  1.794227  0  0  -0.816604  0  1.951621  0  0  -0.836073  0  1.92139  0  0  -0.643211  -0.80269  0  1.972825  0
O  O137  1  0.37459483  0.69453227  0.21977636  1  0  -0.872932  0  1.792469  0  0  -0.816616  0  1.95051  0  0  -0.836032  0  1.920372  0  0  -0.643882  -0.802719  0  1.971683  0
O  O138  1  0.32119932  0.69427109  0.71976748  1  0  -0.872947  0  1.794224  0  0  -0.816598  0  1.951601  0  0  -0.836071  0  1.92137  0  0  -0.64318  -0.802685  0  1.972805  0
O  O139  1  0.62540374  0.30546394  0.78022359  1  0  -0.873031  0  1.792302  0  0  -0.816706  0  1.950368  0  0  -0.836124  0  1.92022  0  0  -0.64394  -0.802806  0  1.971543  0
