# generated using pymatgen
data_CuH9C6NO5
_symmetry_space_group_name_H-M   'P 1'
_cell_length_a   8.38809147
_cell_length_b   8.38655936
_cell_length_c   11.94430645
_cell_angle_alpha   89.99550041
_cell_angle_beta   90.02067179
_cell_angle_gamma   90.02624153
_symmetry_Int_Tables_number   1
_chemical_formula_structural   CuH9C6NO5
_chemical_formula_sum   'Cu4 H36 C24 N4 O20'
_cell_volume   840.24869207
_cell_formula_units_Z   4
loop_
 _symmetry_equiv_pos_site_id
 _symmetry_equiv_pos_as_xyz
  1  'x, y, z'
loop_
 _atom_site_type_symbol
 _atom_site_label
 _atom_site_symmetry_multiplicity
 _atom_site_fract_x
 _atom_site_fract_y
 _atom_site_fract_z
 _atom_site_occupancy
 _atom_site_hle17_ddec_charge
 _atom_site_hle17_ddec_spin_density
 _atom_site_hle17_ddec_sum_bond_order
 _atom_site_hle17_magmom
 _atom_site_hse06_10hf_ddec_charge
 _atom_site_hse06_10hf_ddec_spin_density
 _atom_site_hse06_10hf_ddec_sum_bond_order
 _atom_site_hse06_10hf_magmom
 _atom_site_hse06_ddec_charge
 _atom_site_hse06_ddec_spin_density
 _atom_site_hse06_ddec_sum_bond_order
 _atom_site_hse06_magmom
 _atom_site_pbe_cm5_charge
 _atom_site_pbe_ddec_charge
 _atom_site_pbe_ddec_spin_density
 _atom_site_pbe_ddec_sum_bond_order
 _atom_site_pbe_magmom
Cu  Cu0  1  0.90567366  0.30349237  0.11139451  1  0.978864  -0.712389  1.716285  -0.525  0.998456  -0.809871  2.084426  -0.654  1.088529  -0.878211  2.0185  -0.742  0.706354  0.922779  -0.756887  2.160511  -0.593
Cu  Cu1  1  0.09418661  0.69630990  0.61159628  1  0.978367  -0.707273  1.715485  -0.521  0.991763  -0.809031  2.093612  -0.653  1.079305  -0.877995  2.031968  -0.742  0.706104  0.922184  -0.752864  2.159689  -0.59
Cu  Cu2  1  0.69631659  0.90581406  0.86149208  1  0.977844  -0.713696  1.714946  -0.526  0.997238  -0.810889  2.083272  -0.654  1.087765  -0.878505  2.017021  -0.742  0.705559  0.921548  -0.760895  2.159346  -0.596
Cu  Cu3  1  0.30350530  0.09408665  0.36159891  1  0.978733  0.759768  1.714535  0.52  0.996131  0.855482  2.085441  0.652  1.088426  0.940848  2.016502  0.742  0.706069  0.922107  0.782919  2.158473  0.586
H  H4  1  0.02227507  0.12037304  0.91133749  1  0.049714  -0.000898  0.943829  -0.002  0.05464  -0.0004  1.021867  -0.001  0.056357  -0.000104  1.015224  -0.001  0.12619  0.053531  -0.000718  1.025882  -0.002
H  H5  1  0.97775604  0.87956388  0.41150147  1  0.049843  -0.001201  0.944054  -0.002  0.054758  -0.000839  1.021973  -0.001  0.056477  -0.000474  1.015326  -0.001  0.12638  0.053631  -0.00117  1.026086  -0.002
H  H6  1  0.87955666  0.02324893  0.66200102  1  0.049738  -0.000869  0.945163  -0.002  0.054977  -0.000385  1.022487  -0.001  0.056699  -9.4e-05  1.015842  -0.001  0.12631  0.053823  -0.000688  1.026635  -0.002
H  H7  1  0.12040231  0.97676594  0.16188974  1  0.049807  0.001291  0.944714  0.002  0.054955  0.000881  1.022202  0.001  0.056679  0.000501  1.015567  0.001  0.126331  0.053852  0.001214  1.026213  0.002
H  H8  1  0.41898004  0.18749546  0.11253329  1  0.146823  0.000346  0.929763  0.001  0.155772  -0.000105  0.989534  0.0  0.159091  -3.9e-05  0.988171  0.0  0.107647  0.153534  -0.000187  0.99041  0.0
H  H9  1  0.58107995  0.81274197  0.61251372  1  0.14657  0.000184  0.929655  0.0  0.155609  0.000157  0.989437  0.0  0.15892  0.000169  0.988064  0.0  0.107545  0.153395  0.000109  0.990239  0.0
H  H10  1  0.81244625  0.41895559  0.86222765  1  0.146875  0.000536  0.929809  0.001  0.155734  3.8e-05  0.989639  0.0  0.159052  9.1e-05  0.988291  0.0  0.107579  0.153523  -4.1e-05  0.990484  0.0
H  H11  1  0.18739744  0.58096413  0.36218949  1  0.146727  1.7e-05  0.929974  0.0  0.155683  2e-06  0.989672  0.0  0.159023  -2.6e-05  0.98826  0.0  0.107535  0.153442  5.7e-05  0.99058  0.0
H  H12  1  0.54133517  0.35318472  0.07431513  1  0.154054  0.000506  0.934729  0.001  0.168032  0.000155  0.991804  0.0  0.171399  0.000163  0.990893  0.0  0.117892  0.165469  0.000133  0.992684  0.0
H  H13  1  0.45868610  0.64694488  0.57437416  1  0.154442  0.000149  0.934997  0.0  0.168467  0.000133  0.991981  0.0  0.171865  5.6e-05  0.991004  0.0  0.117985  0.165868  0.000209  0.992935  0.0
H  H14  1  0.64658765  0.54117608  0.82425298  1  0.154549  0.000533  0.934105  0.001  0.168317  0.000184  0.991369  0.0  0.171669  0.000183  0.990501  0.0  0.118035  0.1658  0.000172  0.992208  0.0
H  H15  1  0.35339873  0.45890412  0.32437828  1  0.154255  -0.000114  0.934622  0.0  0.168208  -9.7e-05  0.991729  0.0  0.171587  -3.2e-05  0.990813  0.0  0.117882  0.165696  -0.000164  0.992604  0.0
H  H16  1  0.28723066  0.46137602  0.90505739  1  0.113947  -0.000203  0.953115  0.0  0.132893  -0.000217  1.017393  0.0  0.134557  -0.000146  1.016317  0.0  0.111319  0.131445  -0.000278  1.018533  0.0
H  H17  1  0.71278051  0.53861049  0.40507509  1  0.114116  -0.000184  0.953072  0.0  0.132981  -0.000203  1.017466  0.0  0.134627  -0.000134  1.016418  0.0  0.111469  0.131581  -0.000263  1.018539  0.0
H  H18  1  0.53861421  0.28784953  0.65519419  1  0.113774  -0.000228  0.953363  0.0  0.132868  -0.000213  1.0173  0.0  0.134471  -0.000147  1.016314  0.0  0.11143  0.131458  -0.000269  1.018411  0.0
H  H19  1  0.46138184  0.71221857  0.15523660  1  0.113883  0.000231  0.953272  0.0  0.132958  0.000228  1.017271  0.0  0.134552  0.000155  1.016283  0.0  0.11142  0.131583  0.000288  1.018346  0.0
H  H20  1  0.30870985  0.43414799  0.75737711  1  0.120249  0.000102  0.952047  0.0  0.137642  6.4e-05  1.017807  0.0  0.139309  5.9e-05  1.016448  0.0  0.109627  0.136287  6.7e-05  1.018763  0.0
H  H21  1  0.69129576  0.56584907  0.25738536  1  0.12012  0.000188  0.951941  0.0  0.137662  0.00012  1.017548  0.0  0.139335  9.7e-05  1.016188  0.0  0.109646  0.136286  0.000129  1.018522  0.0
H  H22  1  0.56584954  0.30908249  0.50747395  1  0.120471  5.7e-05  0.952053  0.0  0.137759  5.2e-05  1.017707  0.0  0.139404  4.1e-05  1.01641  0.0  0.109756  0.136415  5.1e-05  1.018667  0.0
H  H23  1  0.43412425  0.69097349  0.00751817  1  0.120517  4.5e-05  0.951996  0.0  0.137972  2e-05  1.017458  0.0  0.139644  9e-06  1.016125  0.0  0.109791  0.136596  2.9e-05  1.018443  0.0
H  H24  1  0.44213967  0.33410122  0.85186353  1  0.097967  0.000111  0.935691  0.0  0.120379  5.4e-05  0.997029  0.0  0.120345  5.4e-05  0.997569  0.0  0.104473  0.120145  4.9e-05  0.996993  0.0
H  H25  1  0.55785964  0.66586024  0.35180065  1  0.097962  6.6e-05  0.935772  0.0  0.120429  5.2e-05  0.996997  0.0  0.120397  3.9e-05  0.997533  0.0  0.104484  0.120189  6.3e-05  0.996945  0.0
H  H26  1  0.66592119  0.44274016  0.60182078  1  0.098309  8.7e-05  0.935337  0.0  0.120371  4.7e-05  0.996902  0.0  0.120374  4.8e-05  0.997394  0.0  0.104474  0.120131  4e-05  0.996855  0.0
H  H27  1  0.33407365  0.55730409  0.10185120  1  0.098558  -8.3e-05  0.935332  0.0  0.120582  -5.5e-05  0.996874  0.0  0.120569  -4e-05  0.997378  0.0  0.104608  0.12034  -6.8e-05  0.996846  0.0
H  H28  1  0.14855229  0.02302316  0.76834577  1  0.101455  0.000151  0.959805  0.0  0.117361  0.000107  1.032547  0.0  0.117927  0.000104  1.032319  0.0  0.105386  0.116923  9.4e-05  1.032578  0.0
H  H29  1  0.85145064  0.97699651  0.26841713  1  0.101977  0.000138  0.959741  0.0  0.117724  8.5e-05  1.032696  0.0  0.118247  8.4e-05  1.032542  0.0  0.105519  0.117324  7.1e-05  1.032648  0.0
H  H30  1  0.97646801  0.14852955  0.51843432  1  0.101815  -0.000111  0.959247  0.0  0.117997  -0.000142  1.031826  0.0  0.118467  -0.000111  1.031771  0.0  0.105605  0.117635  -0.000169  1.031716  0.0
H  H31  1  0.02349466  0.85148944  0.01826186  1  0.101591  0.00017  0.959503  0.0  0.117648  0.000183  1.032225  0.0  0.118111  0.000145  1.032161  0.0  0.105421  0.117283  0.000206  1.032122  0.0
H  H32  1  0.35524943  0.07190125  0.76394004  1  0.115898  7.4e-05  0.936964  0.0  0.134613  3.8e-05  0.998821  0.0  0.135871  4.6e-05  0.998433  0.0  0.107379  0.133599  2.6e-05  0.999148  0.0
H  H33  1  0.64476671  0.92812490  0.26387132  1  0.115778  4.9e-05  0.936467  0.0  0.134568  8e-06  0.998348  0.0  0.13584  1.2e-05  0.997911  0.0  0.107345  0.133573  4e-06  0.998669  0.0
H  H34  1  0.92802989  0.35527815  0.51350466  1  0.116043  1.8e-05  0.937039  0.0  0.134889  1.1e-05  0.998957  0.0  0.136165  3.8e-05  0.998516  0.0  0.107379  0.133856  -2.3e-05  0.999341  0.0
H  H35  1  0.07195173  0.64474498  0.01341196  1  0.115913  9e-06  0.93701  0.0  0.134734  2.1e-05  0.998926  0.0  0.136008  1.2e-05  0.998508  0.0  0.107323  0.133683  2.5e-05  0.999318  0.0
H  H36  1  0.21998383  0.17375385  0.67307849  1  0.123822  0.000209  0.950963  0.0  0.14178  0.000176  1.01247  0.0  0.144403  0.000111  1.011063  0.0  0.106255  0.139632  0.000227  1.013822  0.0
H  H37  1  0.78004286  0.82627171  0.17311328  1  0.123428  -0.000224  0.951037  0.0  0.141704  -0.000221  1.012249  0.0  0.144335  -0.000127  1.010845  0.0  0.106228  0.139503  -0.000298  1.013682  0.0
H  H38  1  0.82556497  0.21967612  0.42323568  1  0.12396  -0.000238  0.950842  0.0  0.141846  -0.000239  1.012633  0.0  0.144456  -0.000139  1.011244  0.0  0.106244  0.139703  -0.000329  1.013972  0.0
H  H39  1  0.17436491  0.78032027  0.92313582  1  0.123782  -0.000208  0.9513  0.0  0.141739  -0.000182  1.012925  0.0  0.144343  -0.000114  1.011552  0.0  0.10621  0.139589  -0.000243  1.014279  0.0
C  C40  1  0.61249057  0.24505525  0.22543426  1  0.719926  0.004711  3.834524  0.008  0.686001  -0.000526  4.134257  0.002  0.724463  -0.000182  4.126506  0.001  0.213062  0.659505  -0.000876  4.137182  0.002
C  C41  1  0.38771446  0.75508612  0.72544590  1  0.719993  0.006745  3.831883  0.01  0.686412  0.001507  4.130907  0.004  0.724828  0.001196  4.123038  0.003  0.213552  0.65984  0.001788  4.134025  0.004
C  C42  1  0.75523716  0.61230988  0.97519611  1  0.721058  0.005673  3.833761  0.009  0.687144  0.000196  4.133276  0.002  0.725604  0.000373  4.125528  0.002  0.21395  0.66058  6e-06  4.136139  0.003
C  C43  1  0.24492570  0.38770698  0.47524342  1  0.721015  -0.005054  3.833705  -0.008  0.687133  -0.000496  4.132862  -0.003  0.725533  -0.000391  4.125157  -0.002  0.213658  0.660697  -0.000625  4.135924  -0.003
C  C44  1  0.09912703  0.22616061  0.91966292  1  0.378644  0.001907  3.788024  0.004  0.313254  -0.000623  4.064352  0.001  0.34324  -0.000293  4.066701  0.001  0.176071  0.293334  -0.000916  4.060966  0.001
C  C45  1  0.90085709  0.77380161  0.41976972  1  0.379183  0.001914  3.787323  0.004  0.313811  -0.000595  4.063046  0.001  0.343786  -0.000273  4.065195  0.001  0.176441  0.293857  -0.000892  4.060177  0.001
C  C46  1  0.77382764  0.10008296  0.67024719  1  0.37869  0.001979  3.789419  0.004  0.313317  -0.000578  4.065438  0.001  0.343283  -0.000247  4.067829  0.001  0.176115  0.293391  -0.000885  4.062071  0.001
C  C47  1  0.22612484  0.89991310  0.17019623  1  0.378472  -0.001416  3.789285  -0.004  0.31306  0.000783  4.065466  -0.001  0.343048  0.000474  4.068026  -0.001  0.176247  0.293135  0.001028  4.062196  -0.001
C  C48  1  0.54174255  0.23067858  0.10796053  1  -0.448758  -0.008619  3.654625  -0.01  -0.489347  -0.005454  3.891745  -0.006  -0.50245  -0.003499  3.893635  -0.005  -0.170211  -0.480323  -0.006871  3.890271  -0.008
C  C49  1  0.45832462  0.76945443  0.60800769  1  -0.448846  0.006026  3.654623  0.005  -0.489415  0.003859  3.891566  0.004  -0.502382  0.002861  3.893274  0.003  -0.170096  -0.480532  0.004708  3.890292  0.005
C  C50  1  0.76917850  0.54169592  0.85776730  1  -0.449718  -0.008484  3.656113  -0.01  -0.489892  -0.005308  3.893188  -0.006  -0.503046  -0.003391  3.895173  -0.005  -0.170333  -0.480925  -0.00668  3.891724  -0.007
C  C51  1  0.23079168  0.45827441  0.35780967  1  -0.449297  -0.00544  3.655847  -0.005  -0.489666  -0.003516  3.892634  -0.004  -0.50273  -0.002566  3.894518  -0.003  -0.170439  -0.480879  -0.004356  3.8913  -0.004
C  C52  1  0.31939244  0.37663477  0.83952211  1  -0.171545  -0.000361  3.604736  0.0  -0.271523  -0.000357  3.845077  0.0  -0.267364  -0.000211  3.85277  0.0  -0.13423  -0.274058  -0.000494  3.840448  0.0
C  C53  1  0.68061246  0.62334953  0.33952197  1  -0.171464  -0.000316  3.604871  0.0  -0.271462  -0.000334  3.845028  0.0  -0.267296  -0.000213  3.852735  0.0  -0.134162  -0.273982  -0.000444  3.840375  0.0
C  C54  1  0.62332721  0.31992983  0.58962635  1  -0.171841  -0.000375  3.604862  0.0  -0.271283  -0.000403  3.844804  0.0  -0.267103  -0.00027  3.852434  0.0  -0.134131  -0.273816  -0.000524  3.840137  0.0
C  C55  1  0.37665660  0.68011339  0.08964153  1  -0.172204  0.000561  3.604845  0.0  -0.271718  0.000479  3.844951  0.0  -0.267486  0.000331  3.852485  0.0  -0.134218  -0.274269  0.000601  3.840328  0.0
C  C56  1  0.23402123  0.12029067  0.75647629  1  -0.189484  -0.000116  3.619998  0.0  -0.288268  -0.000195  3.863014  0.0  -0.286186  -0.000194  3.87342  0.0  -0.13703  -0.289266  -0.000214  3.856255  0.0
C  C57  1  0.76600539  0.87971961  0.25650374  1  -0.189401  -0.001022  3.619481  -0.001  -0.288384  -0.000779  3.862693  -0.001  -0.286268  -0.000521  3.873082  -0.001  -0.136962  -0.289413  -0.000979  3.856012  -0.001
C  C58  1  0.87936590  0.23405678  0.50650353  1  -0.18996  -0.001265  3.618843  -0.001  -0.289161  -0.000969  3.862512  -0.001  -0.28703  -0.000669  3.872907  -0.001  -0.137187  -0.290204  -0.001214  3.855787  -0.001
C  C59  1  0.12059900  0.76596712  0.00638466  1  -0.189477  0.000467  3.618827  0.0  -0.288451  0.000402  3.861953  0.0  -0.286327  0.000403  3.872362  0.0  -0.136921  -0.289482  0.000389  3.855263  0.0
C  C60  1  0.63687538  0.13172276  0.02582403  1  0.729611  0.009743  3.789387  0.015  0.696386  0.001601  4.085842  0.006  0.737698  0.002033  4.076483  0.005  0.216955  0.668298  0.001067  4.089064  0.006
C  C61  1  0.36287658  0.86830727  0.52596718  1  0.730775  0.000177  3.788002  0.0  0.697052  0.000195  4.084027  0.0  0.738366  -0.000191  4.074571  -0.001  0.217314  0.668932  0.00053  4.087844  0.0
C  C62  1  0.86788462  0.63702561  0.77550366  1  0.730218  0.009726  3.787417  0.015  0.696824  0.001606  4.083408  0.006  0.738153  0.002026  4.07375  0.005  0.216567  0.6687  0.001097  4.087364  0.006
C  C63  1  0.13225664  0.36276794  0.27550371  1  0.729495  0.00024  3.789142  0.0  0.69627  7.1e-05  4.085082  0.0  0.737632  0.000458  4.075667  0.001  0.216466  0.668178  -0.000309  4.088383  0.0
N  N64  1  0.21150327  0.24079734  0.84267269  1  -0.047864  -0.001417  3.506811  -0.002  0.056792  -0.001342  3.7308  -0.002  0.038192  -0.000664  3.755103  -0.001  -0.269113  0.068725  -0.00187  3.714557  -0.003
N  N65  1  0.78848419  0.75919972  0.34271835  1  -0.048106  -0.00147  3.50596  -0.002  0.056523  -0.001285  3.730171  -0.002  0.037927  -0.00063  3.754488  -0.001  -0.269327  0.068435  -0.001727  3.713885  -0.002
N  N66  1  0.75909827  0.21210243  0.59295939  1  -0.047344  -0.001762  3.505304  -0.002  0.057069  -0.001465  3.729617  -0.002  0.038532  -0.000732  3.75382  -0.001  -0.26928  0.068931  -0.00204  3.713465  -0.003
N  N67  1  0.24088962  0.78794877  0.09288401  1  -0.047011  0.00112  3.504805  0.002  0.05733  0.001177  3.729146  0.002  0.0388  0.000646  3.753319  0.001  -0.269246  0.069209  0.001466  3.712949  0.002
O  O68  1  0.76397904  0.26323382  0.23665661  1  -0.609862  -0.100349  2.090239  -0.137  -0.591307  -0.059835  2.374911  -0.089  -0.635388  -0.04415  2.36589  -0.07  -0.32594  -0.558986  -0.06977  2.381876  -0.099
O  O69  1  0.23636859  0.73571633  0.73671632  1  -0.609255  -0.099622  2.08917  -0.136  -0.589915  -0.059341  2.374961  -0.088  -0.633617  -0.04388  2.366264  -0.069  -0.325788  -0.558696  -0.068832  2.38137  -0.098
O  O70  1  0.73649097  0.76371389  0.98650876  1  -0.609467  -0.100414  2.090414  -0.137  -0.591037  -0.05983  2.375499  -0.089  -0.635344  -0.044065  2.366618  -0.07  -0.325697  -0.558542  -0.069747  2.382404  -0.099
O  O71  1  0.26309592  0.23623837  0.48660091  1  -0.609827  0.107417  2.089319  0.136  -0.591259  0.06308  2.37459  0.088  -0.635952  0.047452  2.365576  0.07  -0.325959  -0.559327  0.072029  2.381325  0.098
O  O72  1  0.78876867  0.14714445  0.01892490  1  -0.649862  -0.078085  2.086609  -0.109  -0.641102  -0.050963  2.38971  -0.078  -0.683155  -0.037392  2.372705  -0.061  -0.328942  -0.608005  -0.060322  2.399946  -0.088
O  O73  1  0.21097747  0.85303300  0.51935945  1  -0.65162  -0.075421  2.087013  -0.102  -0.639975  -0.050885  2.389876  -0.075  -0.681275  -0.038833  2.37312  -0.06  -0.329461  -0.608864  -0.058387  2.400177  -0.082
O  O74  1  0.85238490  0.78894053  0.76857706  1  -0.650713  -0.077093  2.084525  -0.107  -0.641046  -0.050605  2.386615  -0.077  -0.682804  -0.037167  2.369278  -0.061  -0.328594  -0.608675  -0.059734  2.397715  -0.087
O  O75  1  0.14792210  0.21090033  0.26860868  1  -0.650932  0.082145  2.087811  0.103  -0.640989  0.054217  2.390721  0.075  -0.683388  0.041974  2.373503  0.061  -0.328986  -0.608585  0.061387  2.400993  0.083
O  O76  1  0.07755963  0.32607785  0.99795164  1  -0.536312  -0.052622  2.153747  -0.071  -0.506493  -0.038667  2.439779  -0.057  -0.540944  -0.03066  2.429831  -0.048  -0.318722  -0.480573  -0.043346  2.447067  -0.061
O  O77  1  0.92238246  0.67385772  0.49807611  1  -0.53674  -0.052413  2.154116  -0.071  -0.505465  -0.038639  2.440648  -0.057  -0.539432  -0.030644  2.430971  -0.048  -0.319144  -0.480838  -0.043165  2.447487  -0.06
O  O78  1  0.67408360  0.07865722  0.74866666  1  -0.537435  -0.052353  2.154397  -0.071  -0.507115  -0.038564  2.440191  -0.057  -0.541685  -0.030556  2.430437  -0.048  -0.319286  -0.481268  -0.043112  2.447472  -0.06
O  O79  1  0.32582216  0.92125136  0.24870257  1  -0.536905  0.056584  2.153584  0.071  -0.506596  0.040992  2.439641  0.057  -0.54173  0.033045  2.429825  0.048  -0.319132  -0.48102  0.045213  2.446701  0.06
O  O80  1  0.52110239  0.24424748  0.30857530  1  -0.625706  -0.021565  1.994015  -0.027  -0.600317  -0.009935  2.250732  -0.013  -0.631121  -0.005602  2.238901  -0.007  -0.318316  -0.575393  -0.015316  2.258145  -0.02
O  O81  1  0.47887384  0.75699465  0.80876319  1  -0.624809  -0.015308  1.995416  -0.022  -0.600522  -0.006035  2.252831  -0.01  -0.631202  -0.002426  2.241153  -0.005  -0.318132  -0.574464  -0.010819  2.259959  -0.016
O  O82  1  0.75697877  0.52100104  0.05842982  1  -0.625433  -0.019848  1.994414  -0.028  -0.60122  -0.008008  2.251958  -0.012  -0.631857  -0.003429  2.240372  -0.006  -0.318808  -0.575426  -0.013943  2.25922  -0.02
O  O83  1  0.24400235  0.47916276  0.55836825  1  -0.625958  0.017822  1.994003  0.021  -0.599904  0.008311  2.251084  0.01  -0.629865  0.004943  2.239422  0.006  -0.31862  -0.575279  0.012036  2.257906  0.015
O  O84  1  0.55980157  0.03674133  0.96326940  1  -0.550966  -0.082974  1.991694  -0.111  -0.525426  -0.05574  2.248147  -0.081  -0.56496  -0.042027  2.238613  -0.065  -0.306144  -0.496932  -0.064274  2.255621  -0.089
O  O85  1  0.43974471  0.96315630  0.46317451  1  -0.552299  0.069238  1.992931  0.087  -0.525557  0.046977  2.249706  0.066  -0.565555  0.038083  2.239972  0.056  -0.30624  -0.496755  0.050835  2.256679  0.069
O  O86  1  0.96274135  0.55988926  0.71293819  1  -0.55144  -0.08287  1.991401  -0.111  -0.524599  -0.055567  2.248385  -0.081  -0.563526  -0.041915  2.238874  -0.065  -0.306077  -0.497269  -0.064118  2.255516  -0.089
O  O87  1  0.03725202  0.43964178  0.21281451  1  -0.551755  -0.063256  1.993226  -0.086  -0.5258  -0.043818  2.249579  -0.065  -0.565217  -0.035037  2.239896  -0.055  -0.305711  -0.496639  -0.048007  2.256677  -0.068
