# generated using pymatgen
data_Zn4H24C44(N2O5)3
_symmetry_space_group_name_H-M   'P 1'
_cell_length_a   19.18959071
_cell_length_b   19.24374427
_cell_length_c   19.22697240
_cell_angle_alpha   94.90058967
_cell_angle_beta   90.13481077
_cell_angle_gamma   94.79310054
_symmetry_Int_Tables_number   1
_chemical_formula_structural   Zn4H24C44(N2O5)3
_chemical_formula_sum   'Zn4 H24 C44 N6 O15'
_cell_volume   7049.11213054
_cell_formula_units_Z   1
loop_
 _symmetry_equiv_pos_site_id
 _symmetry_equiv_pos_as_xyz
  1  'x, y, z'
loop_
 _atom_site_type_symbol
 _atom_site_label
 _atom_site_symmetry_multiplicity
 _atom_site_fract_x
 _atom_site_fract_y
 _atom_site_fract_z
 _atom_site_occupancy
 _atom_site_pbe_bader_charge
 _atom_site_pbe_bader_spin_density
 _atom_site_pbe_cm5_charge
 _atom_site_pbe_ddec_charge
 _atom_site_pbe_ddec_spin_density
 _atom_site_pbe_ddec_sum_bond_order
 _atom_site_pbe_magmom
Zn  Zn0  1  0.55956765  0.56065707  0.44226497  1  1.315388  0  0.67222  0.968615  0  2.358235  0
Zn  Zn1  1  0.44563340  0.56040109  0.56232689  1  1.313124  0  0.670673  0.963567  0  2.378995  0
Zn  Zn2  1  0.55827204  0.44572322  0.55351057  1  1.315421  0  0.671997  0.960803  0  2.391297  0
Zn  Zn3  1  0.43622893  0.43463049  0.44044900  1  1.318224  0  0.679169  0.97874  0  2.340876  0
H  H4  1  0.09860309  0.58761268  0.55269246  1  0.087331  0  0.108737  0.112292  0  1.003489  0
H  H5  1  0.43999683  0.08661824  0.38005637  1  0.073772  0  0.109601  0.114211  0  0.987819  0
H  H6  1  0.50677814  0.40267004  0.90007204  1  0.140483  0  0.114457  0.118647  0  1.015667  0
H  H7  1  0.43689692  0.21803560  0.38819049  1  0.124505  0  0.111276  0.118382  0  0.989688  0
H  H8  1  0.47005223  0.77501906  0.61596276  1  0.08239  0  0.109632  0.116082  0  0.990314  0
H  H9  1  0.55307277  0.10319971  0.57487801  1  0.108459  0  0.108978  0.111696  0  1.005362  0
H  H10  1  0.47066866  0.90652258  0.62303420  1  0.081311  0  0.11107  0.115716  0  0.98665  0
H  H11  1  0.55274105  0.23423822  0.58139375  1  0.128113  0  0.111595  0.118479  0  0.985812  0
H  H12  1  0.47864529  0.36646563  0.09043290  1  0.105545  0  0.114167  0.114137  0  0.997823  0
H  H13  1  0.50117528  0.61892152  0.77635332  1  0.096138  0  0.113121  0.119312  0  0.980788  0
H  H14  1  0.50690877  0.59082513  0.10197362  1  0.118479  0  0.113  0.112407  0  1.004227  0
H  H15  1  0.90863111  0.61641797  0.44673871  1  0.090022  0  0.110419  0.115084  0  0.98794  0
H  H16  1  0.50881018  0.59488414  0.23265326  1  0.066632  0  0.113977  0.119006  0  0.974797  0
H  H17  1  0.23010388  0.59255305  0.55836561  1  0.092325  0  0.109927  0.115475  0  0.987158  0
H  H18  1  0.48809172  0.36996041  0.70681267  1  0.060102  0  0.103388  0.045428  0  0.977277  0
H  H19  1  0.46857539  0.30370324  0.18878284  1  0.027395  0  0.100374  0.031193  0  0.953538  0
H  H20  1  0.50512615  0.62682707  0.90764845  1  0.096985  0  0.114269  0.116417  0  0.983483  0
H  H21  1  0.77681083  0.60865727  0.44333081  1  0.107739  0  0.109953  0.116241  0  0.988944  0
H  H22  1  0.22361453  0.38244160  0.46149356  1  0.104015  0  0.110744  0.117363  0  0.987279  0
H  H23  1  0.90180837  0.42685071  0.55031259  1  0.066389  0  0.108186  0.11056  0  1.00636  0
H  H24  1  0.09174777  0.37548829  0.46107557  1  0.099021  0  0.111302  0.116531  0  0.986501  0
H  H25  1  0.77033509  0.42132355  0.55061750  1  0.131818  0  0.111563  0.11843  0  0.985922  0
H  H26  1  0.54969711  0.77508978  0.40725761  1  0.104406  0  0.10879  0.113699  0  0.989414  0
H  H27  1  0.54491398  0.90589885  0.41231022  1  0.127516  0  0.108823  0.113297  0  1.003882  0
C  C28  1  0.31209686  0.49183020  0.50895118  1  1.562589  0  0.22712  0.603673  0  4.165364  0
C  C29  1  0.50477993  0.57662437  0.87670378  1  0.044451  0  -0.06772  -0.119996  0  3.937192  0
C  C30  1  0.76623109  0.51453272  0.49672089  1  -0.067267  0  -0.01466  -0.037551  0  3.96097  0
C  C31  1  0.68828336  0.51088295  0.49720430  1  1.57651  0  0.228707  0.60437  0  4.166849  0
C  C32  1  0.80121737  0.46316873  0.52716195  1  -0.09769  0  -0.077011  -0.075634  0  3.964487  0
C  C33  1  0.87364135  0.46615530  0.52722306  1  0.09657  0  -0.080239  -0.139341  0  3.953103  0
C  C34  1  0.91205135  0.52163594  0.49775868  1  0.321987  0  0.090722  0.173221  0  4.049123  0
C  C35  1  0.87738867  0.57376732  0.46859748  1  0.032201  0  -0.078576  -0.141754  0  3.955371  0
C  C36  1  0.80473876  0.56949702  0.46691360  1  -0.064936  0  -0.078154  -0.07926  0  3.97148  0
C  C37  1  0.12676519  0.54318704  0.53320879  1  0.019717  0  -0.081898  -0.144236  0  3.949072  0
C  C38  1  0.19922937  0.54581329  0.53607521  1  -0.067034  0  -0.077159  -0.075507  0  3.967873  0
C  C39  1  0.49246057  0.47816482  0.08863718  1  0.372687  0  0.089819  0.168607  0  4.043672  0
C  C40  1  0.08842803  0.48158476  0.50522975  1  0.380339  0  0.091728  0.177602  0  4.047299  0
C  C41  1  0.23415219  0.48806724  0.50930803  1  -0.05725  0  -0.014996  -0.037126  0  3.963064  0
C  C42  1  0.19561368  0.42663704  0.48180907  1  -0.067783  0  -0.079189  -0.079805  0  3.96987  0
C  C43  1  0.50819446  0.68979685  0.50696667  1  1.529631  0  0.225437  0.600714  0  4.172593  0
C  C44  1  0.12303822  0.42281456  0.48126313  1  0.029132  0  -0.078701  -0.143695  0  3.95495  0
C  C45  1  0.49386676  0.23321776  0.48558919  1  0.002707  0  -0.012386  -0.033757  0  3.955198  0
C  C46  1  0.52736761  0.20129558  0.53811846  1  -0.04412  0  -0.076657  -0.075218  0  3.959761  0
C  C47  1  0.52779477  0.12907716  0.53462521  1  -0.029781  0  -0.080395  -0.139535  0  3.947106  0
C  C48  1  0.49551917  0.08797851  0.47756471  1  0.30663  0  0.089662  0.172059  0  4.042575  0
C  C49  1  0.46367315  0.11982433  0.42408867  1  0.083655  0  -0.078755  -0.142871  0  3.949864  0
C  C50  1  0.48472906  0.41635436  0.12235199  1  -0.009155  0  -0.062381  -0.156549  0  3.909055  0
C  C51  1  0.46182298  0.19214926  0.42866229  1  -0.081468  0  -0.076039  -0.07523  0  3.960863  0
C  C52  1  0.52895170  0.87646568  0.45638264  1  0.005752  0  -0.082904  -0.14674  0  3.951702  0
C  C53  1  0.53130399  0.80436630  0.45369736  1  -0.072263  0  -0.078302  -0.075067  0  3.96993  0
C  C54  1  0.50596008  0.91283765  0.51752095  1  0.326389  0  0.090955  0.173952  0  4.048672  0
C  C55  1  0.49351907  0.31091942  0.49021334  1  1.527965  0  0.229578  0.603708  0  4.162058  0
C  C56  1  0.50909845  0.76761164  0.51092856  1  0.032785  0  -0.015933  -0.038011  0  3.966516  0
C  C57  1  0.48681075  0.80427032  0.57202136  1  -0.08466  0  -0.080594  -0.082916  0  3.974325  0
C  C58  1  0.48675879  0.87667577  0.57589997  1  0.033458  0  -0.078089  -0.139745  0  3.952143  0
C  C59  1  0.50450245  0.50613472  0.68757497  1  1.580621  0  0.230412  0.602576  0  4.183159  0
C  C60  1  0.49436471  0.48978745  0.31354096  1  1.556773  0  0.231818  0.610246  0  4.179308  0
C  C61  1  0.48732772  0.41787327  0.19513903  1  -0.031538  0  -0.012531  0.001336  0  3.981166  0
C  C62  1  0.49511711  0.48309952  0.23514158  1  0.026198  0  0.011526  -0.014353  0  3.872273  0
C  C63  1  0.50213943  0.54489232  0.20108773  1  0.025668  0  -0.073032  -0.085761  0  3.959748  0
C  C64  1  0.50101351  0.54299810  0.12866498  1  -0.026  0  -0.065489  -0.109706  0  3.913831  0
C  C65  1  0.50451740  0.37435702  0.76259777  1  0.951829  0  0.100897  0.277866  0  3.945641  0
C  C66  1  0.48838862  0.34953064  0.22533238  1  0.982331  0  0.102478  0.273226  0  3.97762  0
C  C67  1  0.50620434  0.45027935  0.87329546  1  0.073052  0  -0.061439  -0.139382  0  3.868366  0
C  C68  1  0.50636917  0.44556906  0.80047947  1  -0.058785  0  -0.009223  0.012492  0  3.95226  0
C  C69  1  0.50501109  0.51548150  0.91164558  1  0.359603  0  0.090883  0.168344  0  4.048143  0
C  C70  1  0.50399006  0.50715734  0.76555955  1  -0.073148  0  0.002162  -0.040101  0  3.909979  0
C  C71  1  0.50288249  0.57212386  0.80418593  1  -0.04964  0  -0.078074  -0.088619  0  3.978968  0
N  N72  1  0.49163566  0.46924892  0.01495360  1  -0.509983  0  -0.143552  -0.123386  0  3.267251  0
N  N73  1  0.50469357  0.52514029  0.98537627  1  -0.50106  0  -0.146141  -0.137058  0  3.268919  0
N  N74  1  0.98590846  0.52983682  0.49733117  1  -0.513475  0  -0.143757  -0.132054  0  3.269531  0
N  N75  1  0.01474586  0.47342082  0.50101000  1  -0.505291  0  -0.14376  -0.132497  0  3.280308  0
N  N76  1  0.49456898  0.01418436  0.46922599  1  -0.47436  0  -0.145041  -0.134292  0  3.266627  0
N  N77  1  0.50251463  0.98606264  0.52560846  1  -0.527562  0  -0.143028  -0.129966  0  3.277315  0
O  O78  1  0.49986473  0.50064359  0.49938605  1  -1.235402  0  -0.572341  -1.031847  0  2.536146  0
O  O79  1  0.46348261  0.54565787  0.66106666  1  -1.170742  0  -0.312171  -0.540644  0  2.32296  0
O  O80  1  0.44231736  0.45966104  0.34301565  1  -1.169107  0  -0.311343  -0.541554  0  2.324035  0
O  O81  1  0.54642175  0.46701461  0.65516767  1  -1.163692  0  -0.308124  -0.543595  0  2.343414  0
O  O82  1  0.54497553  0.52877549  0.34264688  1  -1.159792  0  -0.309574  -0.539598  0  2.314402  0
O  O83  1  0.51859423  0.32255683  0.79085870  1  -1.069144  0  -0.270976  -0.355818  0  2.07952  0
O  O84  1  0.51097969  0.34104572  0.28320448  1  -1.062879  0  -0.254348  -0.336657  0  2.132154  0
O  O85  1  0.53873656  0.65939223  0.45520460  1  -1.172205  0  -0.317053  -0.550125  0  2.321707  0
O  O86  1  0.45517400  0.33690841  0.44645633  1  -1.16635  0  -0.308139  -0.535812  0  2.340816  0
O  O87  1  0.34483816  0.54412656  0.54405217  1  -1.168996  0  -0.316336  -0.548228  0  2.326547  0
O  O88  1  0.65715149  0.46348230  0.53139072  1  -1.173799  0  -0.314917  -0.544929  0  2.342351  0
O  O89  1  0.33989270  0.44260104  0.47317247  1  -1.178488  0  -0.315265  -0.550379  0  2.336318  0
O  O90  1  0.65899894  0.55535945  0.46379010  1  -1.167831  0  -0.315016  -0.54769  0  2.332295  0
O  O91  1  0.47626161  0.65951860  0.55581623  1  -1.174425  0  -0.316876  -0.549526  0  2.343141  0
O  O92  1  0.53170960  0.34528982  0.53819611  1  -1.177174  0  -0.317032  -0.55268  0  2.34941  0
