# generated using pymatgen
data_TbH5(C3O4)2
_symmetry_space_group_name_H-M   'P 1'
_cell_length_a   6.22954985
_cell_length_b   8.65780322
_cell_length_c   8.81435389
_cell_angle_alpha   111.15040967
_cell_angle_beta   109.97717242
_cell_angle_gamma   91.32559222
_symmetry_Int_Tables_number   1
_chemical_formula_structural   TbH5(C3O4)2
_chemical_formula_sum   'Tb2 H10 C12 O16'
_cell_volume   410.83896186
_cell_formula_units_Z   2
loop_
 _symmetry_equiv_pos_site_id
 _symmetry_equiv_pos_as_xyz
  1  'x, y, z'
loop_
 _atom_site_type_symbol
 _atom_site_label
 _atom_site_symmetry_multiplicity
 _atom_site_fract_x
 _atom_site_fract_y
 _atom_site_fract_z
 _atom_site_occupancy
 _atom_site_hle17_bader_spin_density
 _atom_site_hle17_ddec_charge
 _atom_site_hle17_ddec_spin_density
 _atom_site_hle17_ddec_sum_bond_order
 _atom_site_hle17_magmom
 _atom_site_hse06_10hf_bader_spin_density
 _atom_site_hse06_10hf_ddec_charge
 _atom_site_hse06_10hf_ddec_spin_density
 _atom_site_hse06_10hf_ddec_sum_bond_order
 _atom_site_hse06_10hf_magmom
 _atom_site_hse06_bader_spin_density
 _atom_site_hse06_ddec_charge
 _atom_site_hse06_ddec_spin_density
 _atom_site_hse06_ddec_sum_bond_order
 _atom_site_hse06_magmom
 _atom_site_pbe_bader_spin_density
 _atom_site_pbe_cm5_charge
 _atom_site_pbe_ddec_charge
 _atom_site_pbe_ddec_spin_density
 _atom_site_pbe_ddec_sum_bond_order
 _atom_site_pbe_magmom
Tb  Tb0  1  0.18113386  0.64869104  0.31790595  1  0  2.318456  0  1.600485  0  0  2.239933  0  1.936204  0  0  2.285358  0  1.893569  0  0  1.517714  2.133601  0  2.103365  0
Tb  Tb1  1  0.81886744  0.35131346  0.68209667  1  0  2.318479  0  1.60045  0  0  2.239967  0  1.936172  0  0  2.285387  0  1.893536  0  0  1.517777  2.133659  0  2.103297  0
H  H2  1  0.72567225  0.64419310  0.03283020  1  0  0.438277  0  0.862063  0  0  0.404966  0  0.930078  0  0  0.41585  0  0.914191  0  0  0.299983  0.396889  0  0.941591  0
H  H3  1  0.27432727  0.35580383  0.96716482  1  0  0.438254  0  0.86211  0  0  0.404948  0  0.93012  0  0  0.415829  0  0.914238  0  0  0.299998  0.396872  0  0.941631  0
H  H4  1  0.68936897  0.71851814  0.21729209  1  0  0.44905  0  0.835078  0  0  0.422031  0  0.891102  0  0  0.431361  0  0.877584  0  0  0.316004  0.414945  0  0.901201  0
H  H5  1  0.31063339  0.28147629  0.78270614  1  0  0.448991  0  0.835134  0  0  0.421981  0  0.891165  0  0  0.43131  0  0.877649  0  0  0.315976  0.414895  0  0.901264  0
H  H6  1  0.01243263  0.66945175  0.60853760  1  0  0.44387  0  0.857123  0  0  0.412433  0  0.921268  0  0  0.423208  0  0.905544  0  0  0.3035  0.404541  0  0.932454  0
H  H7  1  0.98756750  0.33054776  0.39146754  1  0  0.443827  0  0.857171  0  0  0.412409  0  0.921293  0  0  0.42317  0  0.905584  0  0  0.303495  0.404531  0  0.932464  0
H  H8  1  0.81852933  0.72721306  0.47245738  1  0  0.444888  0  0.851825  0  0  0.417693  0  0.907861  0  0  0.428371  0  0.892257  0  0  0.308039  0.409564  0  0.919625  0
H  H9  1  0.18147334  0.27278266  0.52754477  1  0  0.444843  0  0.851881  0  0  0.417612  0  0.907972  0  0  0.428313  0  0.892338  0  0  0.308007  0.409486  0  0.919729  0
H  H10  1  0.75795970  0.96970561  0.83347340  1  0  0.113583  0  0.933353  0  0  0.12541  0  0.989911  0  0  0.128635  0  0.988876  0  0  0.115899  0.122953  0  0.991158  0
H  H11  1  0.24203019  0.03029392  0.16653042  1  0  0.113542  0  0.933299  0  0  0.125329  0  0.989921  0  0  0.12856  0  0.988874  0  0  0.115866  0.122872  0  0.991168  0
C  C12  1  0.49488378  0.84121384  0.87493530  1  0  -0.053985  0  3.690483  0  0  -0.042422  0  3.925667  0  0  -0.044842  0  3.943014  0  0  0.001992  -0.041665  0  3.91637  0
C  C13  1  0.50511871  0.15879573  0.12507618  1  0  -0.05403  0  3.690483  0  0  -0.042462  0  3.925684  0  0  -0.044893  0  3.943036  0  0  0.00195  -0.041699  0  3.916385  0
C  C14  1  0.50371013  0.67307681  0.74410541  1  0  0.740915  0  3.822707  0  0  0.693286  0  4.118929  0  0  0.728322  0  4.106384  0  0  0.249654  0.668542  0  4.12362  0
C  C15  1  0.49629398  0.32692514  0.25589359  1  0  0.740856  0  3.823159  0  0  0.693262  0  4.119329  0  0  0.72828  0  4.106817  0  0  0.249629  0.668519  0  4.124021  0
C  C16  1  0.35062633  0.85930898  0.97108879  1  0  -0.062581  0  3.700656  0  0  -0.047996  0  3.934213  0  0  -0.051661  0  3.952224  0  0  -0.002746  -0.046644  0  3.924913  0
C  C17  1  0.64935096  0.14068049  0.02890394  1  0  -0.062419  0  3.700385  0  0  -0.0479  0  3.934047  0  0  -0.051527  0  3.952008  0  0  -0.002728  -0.046556  0  3.924747  0
C  C18  1  0.64206241  0.98237949  0.90472857  1  0  -0.078755  0  3.680968  0  0  -0.111824  0  3.93171  0  0  -0.112288  0  3.949527  0  0  -0.072207  -0.111844  0  3.921216  0
C  C19  1  0.35794392  0.01760995  0.09527455  1  0  -0.078637  0  3.680705  0  0  -0.111688  0  3.93143  0  0  -0.112135  0  3.949254  0  0  -0.072147  -0.111719  0  3.920948  0
C  C20  1  0.39321526  0.03901786  0.50989349  1  0  0.5539  0  3.936498  0  0  0.504993  0  4.250255  0  0  0.533853  0  4.241924  0  0  0.222187  0.485877  0  4.247605  0
C  C21  1  0.60679946  0.96099292  0.49011795  1  0  0.553889  0  3.936748  0  0  0.504961  0  4.250536  0  0  0.533821  0  4.242203  0  0  0.222217  0.485846  0  4.247887  0
C  C22  1  0.18512712  0.71223772  0.94076791  1  0  0.731942  0  3.83953  0  0  0.681218  0  4.138925  0  0  0.716224  0  4.126432  0  0  0.243137  0.656616  0  4.143  0
C  C23  1  0.81486128  0.28776289  0.05920983  1  0  0.731881  0  3.839446  0  0  0.68115  0  4.138856  0  0  0.716149  0  4.12637  0  0  0.243153  0.656552  0  4.142924  0
O  O24  1  0.60966372  0.57100285  0.80569878  1  0  -0.712873  0  2.002964  0  0  -0.66499  0  2.241669  0  0  -0.690137  0  2.228935  0  0  -0.349442  -0.638338  0  2.252321  0
O  O25  1  0.39034041  0.42899916  0.19430706  1  0  -0.712821  0  2.002998  0  0  -0.664966  0  2.241701  0  0  -0.690113  0  2.228991  0  0  -0.349402  -0.63831  0  2.252351  0
O  O26  1  0.20220463  0.94319825  0.43912007  1  0  -0.613095  0  2.067874  0  0  -0.579997  0  2.314951  0  0  -0.60088  0  2.305131  0  0  -0.354645  -0.556561  0  2.323537  0
O  O27  1  0.79779923  0.05680253  0.56089095  1  0  -0.613114  0  2.068197  0  0  -0.580011  0  2.315293  0  0  -0.600891  0  2.305472  0  0  -0.354656  -0.556583  0  2.323878  0
O  O28  1  0.80350310  0.68615752  0.16281235  1  0  -0.914187  0  1.878552  0  0  -0.872927  0  2.069947  0  0  -0.891479  0  2.038959  0  0  -0.646641  -0.850569  0  2.097629  0
O  O29  1  0.19650410  0.31383567  0.83719002  1  0  -0.91413  0  1.87865  0  0  -0.87287  0  2.070025  0  0  -0.891421  0  2.039045  0  0  -0.646632  -0.850514  0  2.097701  0
O  O30  1  0.56959898  0.80186011  0.40329085  1  0  -0.691257  0  2.150838  0  0  -0.63871  0  2.384346  0  0  -0.663388  0  2.375804  0  0  -0.346155  -0.613888  0  2.391102  0
O  O31  1  0.43040716  0.19814316  0.59671819  1  0  -0.691256  0  2.150832  0  0  -0.638698  0  2.384324  0  0  -0.663382  0  2.375784  0  0  -0.346158  -0.613883  0  2.391078  0
O  O32  1  0.96917994  0.68681664  0.49716327  1  0  -0.931303  0  1.886384  0  0  -0.891095  0  2.085987  0  0  -0.91014  0  2.053549  0  0  -0.670256  -0.867805  0  2.114192  0
O  O33  1  0.03082472  0.31318034  0.50284094  1  0  -0.931182  0  1.886436  0  0  -0.890977  0  2.086054  0  0  -0.910023  0  2.053596  0  0  -0.670206  -0.867709  0  2.114222  0
O  O34  1  0.41579684  0.64644147  0.58375994  1  0  -0.714519  0  2.083821  0  0  -0.679651  0  2.350638  0  0  -0.704238  0  2.338241  0  0  -0.386914  -0.650709  0  2.360398  0
O  O35  1  0.58419989  0.35356549  0.41623336  1  0  -0.714529  0  2.083971  0  0  -0.679673  0  2.350762  0  0  -0.704251  0  2.338371  0  0  -0.386917  -0.650732  0  2.360519  0
O  O36  1  0.05405531  0.62190226  0.78244050  1  0  -0.723702  0  2.081032  0  0  -0.670283  0  2.31946  0  0  -0.696207  0  2.307739  0  0  -0.358286  -0.643157  0  2.328945  0
O  O37  1  0.94593849  0.37809214  0.21754885  1  0  -0.723696  0  2.080894  0  0  -0.670235  0  2.319273  0  0  -0.696155  0  2.307556  0  0  -0.358278  -0.643111  0  2.328759  0
O  O38  1  0.18203937  0.68395072  0.07076740  1  0  -0.738695  0  2.083284  0  0  -0.702106  0  2.35394  0  0  -0.725977  0  2.340277  0  0  -0.390879  -0.672381  0  2.363225  0
O  O39  1  0.81795303  0.31605240  0.92921331  1  0  -0.738676  0  2.083514  0  0  -0.702102  0  2.354218  0  0  -0.725974  0  2.340563  0  0  -0.390883  -0.672381  0  2.363496  0
