# generated using pymatgen
data_AlH6C13O5F2
_symmetry_space_group_name_H-M   'P 1'
_cell_length_a   6.70519613
_cell_length_b   11.20493738
_cell_length_c   17.80873536
_cell_angle_alpha   83.52820256
_cell_angle_beta   78.88673168
_cell_angle_gamma   72.84458116
_symmetry_Int_Tables_number   1
_chemical_formula_structural   AlH6C13O5F2
_chemical_formula_sum   'Al2 H12 C26 O10 F4'
_cell_volume   1252.26159233
_cell_formula_units_Z   2
loop_
 _symmetry_equiv_pos_site_id
 _symmetry_equiv_pos_as_xyz
  1  'x, y, z'
loop_
 _atom_site_type_symbol
 _atom_site_label
 _atom_site_symmetry_multiplicity
 _atom_site_fract_x
 _atom_site_fract_y
 _atom_site_fract_z
 _atom_site_occupancy
 _atom_site_pbe_bader_charge
 _atom_site_pbe_bader_spin_density
 _atom_site_pbe_cm5_charge
 _atom_site_pbe_ddec_charge
 _atom_site_pbe_ddec_spin_density
 _atom_site_pbe_ddec_sum_bond_order
 _atom_site_pbe_magmom
Al  Al0  1  0.50041356  0.50091328  0.50422336  1  2.505586  0  0.400309  1.642889  0  2.58154  0
Al  Al1  1  0.00105722  0.49915219  0.50436693  1  2.503595  0  0.4007  1.643505  0  2.579688  0
H  H2  1  0.28594035  0.36740448  0.56856219  1  0.626711  0  0.355769  0.435863  0  0.846897  0
H  H3  1  0.70992031  0.64145937  0.45030106  1  0.60467  0  0.35075  0.426213  0  0.864762  0
H  H4  1  0.68185973  0.50764309  0.27222711  1  0.10276  0  0.110462  0.119601  0  1.000835  0
H  H5  1  0.75270665  0.51217779  0.12892397  1  0.085723  0  0.106315  0.116373  0  1.011033  0
H  H6  1  0.07809744  0.44349846  0.27431992  1  0.114096  0  0.118636  0.147592  0  0.988045  0
H  H7  1  0.93542560  0.53617325  0.73517218  1  0.140914  0  0.118981  0.14691  0  0.990966  0
H  H8  1  0.30942255  0.50658437  0.73593105  1  0.086595  0  0.109992  0.11747  0  1.00533  0
H  H9  1  0.24000575  0.49816351  0.87925154  1  0.148037  0  0.104238  0.115488  0  1.027414  0
H  H10  1  0.42385987  0.12840017  0.46703135  1  0.060883  0  0.096391  0.113201  0  1.008215  0
H  H11  1  0.33299556  0.13316555  0.37864217  1  0.06268  0  0.101053  0.112243  0  0.974006  0
H  H12  1  0.45826583  0.89836029  0.37943512  1  0.036303  0  0.099268  0.108361  0  0.977034  0
H  H13  1  0.54743478  0.89281963  0.46855754  1  0.083436  0  0.093575  0.107257  0  1.021906  0
C  C14  1  0.85706597  0.27455325  0.50904646  1  1.626061  0  0.274364  0.672862  0  4.090297  0
C  C15  1  0.67333453  0.51526859  0.64207073  1  1.546084  0  0.266643  0.639669  0  4.102323  0
C  C16  1  0.13897659  0.72547556  0.50564889  1  1.617143  0  0.275853  0.676911  0  4.080354  0
C  C17  1  0.32840164  0.48303001  0.36682860  1  1.574829  0  0.26439  0.634073  0  4.105065  0
C  C18  1  0.37643125  0.47628012  0.28182930  1  0.049356  0  -0.013044  -0.018856  0  3.986548  0
C  C19  1  0.56722605  0.49398761  0.24063131  1  -0.055789  0  -0.086678  -0.110982  0  3.99464  0
C  C20  1  0.60609776  0.49692349  0.16114559  1  0.003549  0  -0.075986  -0.097946  0  3.936665  0
C  C21  1  0.45561556  0.48124120  0.12015570  1  0.154927  0  -0.002935  0.037609  0  4.119948  0
C  C22  1  0.26908320  0.45936590  0.16362534  1  0.475601  0  0.105056  0.24444  0  4.027192  0
C  C23  1  0.22629534  0.45764927  0.24274461  1  0.000158  0  -0.091618  -0.224365  0  3.984559  0
C  C24  1  0.48768357  0.49017522  0.03938316  1  -0.386965  0  -0.03643  -0.078754  0  4.116937  0
C  C25  1  0.51569893  0.50188539  0.96950986  1  -0.039519  0  -0.033954  -0.074381  0  4.114635  0
C  C26  1  0.54784294  0.51219502  0.88873453  1  0.214411  0  -0.002593  0.03711  0  4.120868  0
C  C27  1  0.74062819  0.52539273  0.84572832  1  0.369026  0  0.108768  0.248757  0  4.025977  0
C  C28  1  0.78283390  0.52889780  0.76661578  1  0.056031  0  -0.089644  -0.219399  0  3.979243  0
C  C29  1  0.62594462  0.52076186  0.72710946  1  0.007516  0  -0.010646  -0.014767  0  3.979707  0
C  C30  1  0.42928242  0.51187054  0.76789054  1  -0.062583  0  -0.08441  -0.105018  0  3.98848  0
C  C31  1  0.39093225  0.50709581  0.84738979  1  0.025285  0  -0.075321  -0.099166  0  3.937395  0
C  C32  1  0.92721116  0.13548083  0.51201390  1  0.022993  0  -0.013718  -0.172772  0  3.995272  0
C  C33  1  0.06780292  0.86366364  0.51109418  1  0.034027  0  -0.012846  -0.171811  0  3.986292  0
C  C34  1  0.13138195  0.06937703  0.47973350  1  -0.001311  0  -0.004394  0.068649  0  3.9068  0
C  C35  1  0.86284938  0.92924400  0.54556695  1  0.460325  0  0.099213  0.151265  0  4.058432  0
C  C36  1  0.19910154  0.93929938  0.47970626  1  0.039908  0  -0.004594  0.067384  0  3.904074  0
C  C37  1  0.79563842  0.06004984  0.54621232  1  0.542169  0  0.099162  0.151841  0  4.058386  0
C  C38  1  0.34026618  0.08501930  0.43573807  1  -0.040029  0  -0.147526  -0.191376  0  3.848905  0
C  C39  1  0.41813930  0.93708316  0.43620184  1  0.005137  0  -0.150097  -0.198131  0  3.862568  0
O  O40  1  0.66325896  0.32855100  0.50617097  1  -1.249739  0  -0.23022  -0.587962  0  2.350656  0
O  O41  1  0.86103085  0.51306715  0.60943109  1  -1.262321  0  -0.238064  -0.59536  0  2.349376  0
O  O42  1  0.00022585  0.67130666  0.50094426  1  -1.247518  0  -0.231312  -0.593005  0  2.34781  0
O  O43  1  0.47636096  0.49171066  0.39951651  1  -1.263698  0  -0.236997  -0.593953  0  2.352275  0
O  O44  1  0.33624215  0.67376542  0.50348618  1  -1.253821  0  -0.227232  -0.577847  0  2.309232  0
O  O45  1  0.14176158  0.48307715  0.39957152  1  -1.259668  0  -0.237661  -0.591163  0  2.345357  0
O  O46  1  0.00097818  0.32766233  0.50846038  1  -1.252452  0  -0.224311  -0.575733  0  2.319682  0
O  O47  1  0.52385324  0.50930330  0.60923444  1  -1.256633  0  -0.238369  -0.598232  0  2.356589  0
O  O48  1  0.25890195  0.44747487  0.53963022  1  -1.428177  0  -0.449309  -0.995381  0  2.193839  0
O  O49  1  0.74243296  0.55436972  0.46900160  1  -1.409055  0  -0.448956  -0.989609  0  2.185137  0
F  F50  1  0.12387264  0.44102463  0.12546295  1  -0.639117  0  -0.094907  -0.142753  0  1.355228  0
F  F51  1  0.89223826  0.53293781  0.88461732  1  -0.638672  0  -0.092781  -0.142164  0  1.368811  0
F  F52  1  0.72210360  0.86739231  0.58165618  1  -0.619765  0  -0.084334  -0.107121  0  1.383742  0
F  F53  1  0.59700005  0.11180678  0.58351942  1  -0.619699  0  -0.088998  -0.115531  0  1.376848  0
