# generated using pymatgen
data_AlH11C15O7
_symmetry_space_group_name_H-M   'P 1'
_cell_length_a   6.71902691
_cell_length_b   20.24163716
_cell_length_c   23.13231950
_cell_angle_alpha   93.43292445
_cell_angle_beta   90.99238446
_cell_angle_gamma   90.63454754
_symmetry_Int_Tables_number   1
_chemical_formula_structural   AlH11C15O7
_chemical_formula_sum   'Al4 H44 C60 O28'
_cell_volume   3139.74274628
_cell_formula_units_Z   4
loop_
 _symmetry_equiv_pos_site_id
 _symmetry_equiv_pos_as_xyz
  1  'x, y, z'
loop_
 _atom_site_type_symbol
 _atom_site_label
 _atom_site_symmetry_multiplicity
 _atom_site_fract_x
 _atom_site_fract_y
 _atom_site_fract_z
 _atom_site_occupancy
 _atom_site_pbe_bader_charge
 _atom_site_pbe_bader_spin_density
 _atom_site_pbe_cm5_charge
 _atom_site_pbe_ddec_charge
 _atom_site_pbe_ddec_spin_density
 _atom_site_pbe_ddec_sum_bond_order
 _atom_site_pbe_magmom
Al  Al0  1  0.73933222  0.24795403  0.74869427  1  2.499575  0  0.403175  1.63303  0  2.558874  0
Al  Al1  1  0.24503877  0.75328014  0.24897636  1  2.502985  0  0.401104  1.639857  0  2.569408  0
Al  Al2  1  0.23816403  0.25192910  0.74898284  1  2.49783  0  0.399193  1.643265  0  2.571584  0
Al  Al3  1  0.74455757  0.75162275  0.25034201  1  2.502149  0  0.399675  1.640242  0  2.572356  0
H  H4  1  0.71503511  0.98564917  0.55473214  1  0.060751  0  0.107795  0.132798  0  0.998441  0
H  H5  1  0.26814078  0.91839062  0.50788819  1  0.077905  0  0.106878  0.12511  0  1.000148  0
H  H6  1  0.31948199  0.40191136  0.01614997  1  0.084297  0  0.106077  0.122765  0  1.011939  0
H  H7  1  0.73450252  0.58575177  0.99299026  1  0.051088  0  0.105742  0.121029  0  1.017251  0
H  H8  1  0.33170454  0.03722689  0.53464573  1  0.056077  0  0.106951  0.132483  0  1.004739  0
H  H9  1  0.75252530  0.01491235  0.43854329  1  0.089855  0  0.108687  0.13024  0  0.993186  0
H  H10  1  0.67301153  0.53483768  0.91803682  1  0.056158  0  0.10643  0.124103  0  1.010091  0
H  H11  1  0.24557547  0.48134968  0.06841451  1  0.090358  0  0.105814  0.124348  0  1.010548  0
H  H12  1  0.27287364  0.00137788  0.07173088  1  0.064696  0  0.113197  0.117694  0  0.979298  0
H  H13  1  0.71414817  0.00227549  0.92749098  1  0.085166  0  0.111528  0.115284  0  0.983114  0
H  H14  1  0.77893076  0.57898460  0.48950086  1  0.090488  0  0.112138  0.116695  0  0.982371  0
H  H15  1  0.20642085  0.42399524  0.50951725  1  0.091686  0  0.1137  0.118347  0  0.979765  0
H  H16  1  0.27829101  0.08089476  0.99356475  1  0.089148  0  0.114011  0.118994  0  0.978331  0
H  H17  1  0.70902411  0.92264441  0.00559587  1  0.081411  0  0.114217  0.119999  0  0.977818  0
H  H18  1  0.78031013  0.50097846  0.56887117  1  0.079722  0  0.112684  0.116754  0  0.980993  0
H  H19  1  0.20467605  0.50206749  0.43019721  1  0.088597  0  0.111696  0.116057  0  0.982609  0
H  H20  1  0.68878875  0.99518015  0.73882419  1  0.053625  0  0.107438  0.113202  0  0.977191  0
H  H21  1  0.78162890  0.07853948  0.74277666  1  0.108066  0  0.103081  0.108006  0  1.034584  0
H  H22  1  0.94010838  0.01193351  0.71825934  1  0.051149  0  0.100567  0.101566  0  1.0059  0
H  H23  1  0.33126203  0.72987707  0.44207065  1  0.072551  0  0.101533  0.109344  0  0.997523  0
H  H24  1  0.11264278  0.74309631  0.39980762  1  0.068347  0  0.101046  0.106345  0  1.004792  0
H  H25  1  0.11466144  0.76409319  0.47658084  1  0.040536  0  0.090765  0.082821  0  0.995494  0
H  H26  1  0.04560156  0.25708688  0.94549721  1  0.038296  0  0.102919  0.109671  0  0.988418  0
H  H27  1  0.03586568  0.31598817  0.89054545  1  0.091671  0  0.100644  0.105015  0  1.015718  0
H  H28  1  0.03475214  0.34391062  0.96588101  1  0.029697  0  0.09178  0.085466  0  1.002583  0
H  H29  1  0.99489663  0.65508717  0.11564989  1  0.083585  0  0.09735  0.101128  0  1.027719  0
H  H30  1  0.01933181  0.72263465  0.06947733  1  0.070301  0  0.107088  0.116689  0  0.974974  0
H  H31  1  0.99925968  0.63943554  0.03843064  1  0.0384  0  0.090632  0.084209  0  1.008445  0
H  H32  1  0.37265470  0.01394846  0.68837618  1  0.039485  0  0.095686  0.093462  0  0.997159  0
H  H33  1  0.22100435  0.08009651  0.71747416  1  0.059977  0  0.097273  0.090313  0  1.056197  0
H  H34  1  0.48209148  0.08892068  0.72039515  1  0.051943  0  0.113942  0.118243  0  1.031485  0
H  H35  1  0.89565809  0.93010826  0.27385967  1  0.060005  0  0.097195  0.09476  0  1.018591  0
H  H36  1  0.82378487  0.01250314  0.29715638  1  0.02458  0  0.093773  0.087394  0  0.991027  0
H  H37  1  0.64454595  0.95509761  0.26316834  1  0.068751  0  0.11284  0.122684  0  0.963337  0
H  H38  1  0.95193661  0.39630450  0.82781282  1  0.09136  0  0.099108  0.104847  0  1.032629  0
H  H39  1  0.97735169  0.47712315  0.86471971  1  0.048626  0  0.091462  0.085606  0  1.001634  0
H  H40  1  0.96002163  0.46897017  0.78718802  1  0.058592  0  0.106415  0.112342  0  0.969277  0
H  H41  1  0.41894066  0.57378462  0.22765417  1  0.030431  0  0.097113  0.094767  0  1.021181  0
H  H42  1  0.35483156  0.48940454  0.20624113  1  0.043072  0  0.094302  0.089771  0  0.988447  0
H  H43  1  0.17713404  0.54247981  0.24268477  1  0.07159  0  0.110559  0.120183  0  0.966816  0
H  H44  1  0.47847976  0.18027200  0.70855198  1  0.621718  0  0.340691  0.411143  0  0.905555  0
H  H45  1  0.50047076  0.82905407  0.28509489  1  0.62409  0  0.351134  0.431698  0  0.858072  0
H  H46  1  0.98233569  0.32807712  0.72377988  1  0.624909  0  0.352049  0.428864  0  0.857107  0
H  H47  1  0.99257339  0.66960727  0.22396484  1  0.604546  0  0.349342  0.427746  0  0.862019  0
C  C48  1  0.48987467  0.32853913  0.67289136  1  1.686943  0  0.274081  0.721208  0  4.150071  0
C  C49  1  0.49476231  0.67175155  0.32361987  1  1.676221  0  0.267413  0.696444  0  4.190267  0
C  C50  1  0.99570443  0.17546145  0.82651940  1  1.654839  0  0.271455  0.695177  0  4.188958  0
C  C51  1  0.99014709  0.83116326  0.17509963  1  1.695281  0  0.269136  0.699054  0  4.18986  0
C  C52  1  0.49823802  0.32986615  0.82966685  1  1.611494  0  0.280648  0.694571  0  4.07068  0
C  C53  1  0.48813748  0.67361468  0.16741443  1  1.597819  0  0.274239  0.683988  0  4.078145  0
C  C54  1  0.98650458  0.15681447  0.67639566  1  1.540016  0  0.254958  0.65657  0  4.106176  0
C  C55  1  0.00028470  0.83106114  0.33214273  1  1.560319  0  0.268795  0.668939  0  4.1093  0
C  C56  1  0.84038650  0.01874233  0.56622283  1  0.044663  0  -0.114108  -0.292326  0  3.960184  0
C  C57  1  0.15648075  0.92387429  0.47384763  1  0.023671  0  -0.104698  -0.264499  0  3.970012  0
C  C58  1  0.39580232  0.41460730  0.97712714  1  -0.043595  0  -0.106919  -0.268834  0  3.974618  0
C  C59  1  0.62580191  0.57989265  0.02670126  1  0.011471  0  -0.106989  -0.267664  0  3.961624  0
C  C60  1  0.84605176  0.05257160  0.62056848  1  0.484635  0  0.104002  0.302156  0  4.0242  0
C  C61  1  0.14957300  0.87691238  0.42729047  1  0.513803  0  0.092696  0.271719  0  4.043413  0
C  C62  1  0.39682988  0.36747926  0.93062300  1  0.494668  0  0.088026  0.259621  0  4.063378  0
C  C63  1  0.62163261  0.62810633  0.07235090  1  0.517143  0  0.092665  0.272787  0  4.049088  0
C  C64  1  0.00413805  0.09716440  0.63664638  1  -0.018696  0  -0.047107  -0.307895  0  3.941905  0
C  C65  1  0.00419599  0.88032729  0.38261078  1  0.009964  0  -0.02985  -0.265983  0  3.918501  0
C  C66  1  0.50251975  0.37925672  0.88027495  1  0.020783  0  -0.023039  -0.238863  0  3.924254  0
C  C67  1  0.48576131  0.62315807  0.11773806  1  -0.010937  0  -0.028563  -0.257539  0  3.921834  0
C  C68  1  0.18709847  0.08219585  0.60881139  1  0.530878  0  0.09802  0.296581  0  4.018212  0
C  C69  1  0.86235354  0.93154202  0.38789771  1  0.493643  0  0.092514  0.271409  0  4.032585  0
C  C70  1  0.60510708  0.43984293  0.87763373  1  0.492551  0  0.085695  0.257779  0  4.066051  0
C  C71  1  0.35266788  0.56852215  0.11485187  1  0.501569  0  0.087286  0.257426  0  4.059157  0
C  C72  1  0.18987722  0.04657463  0.55559383  1  0.007658  0  -0.115666  -0.29417  0  3.959897  0
C  C73  1  0.86562031  0.97671079  0.43592466  1  -0.005225  0  -0.104355  -0.267277  0  3.964632  0
C  C74  1  0.59949464  0.48750067  0.92364186  1  -0.01338  0  -0.107038  -0.268805  0  3.972641  0
C  C75  1  0.35485869  0.52146589  0.06847204  1  -0.027664  0  -0.107922  -0.269579  0  3.971276  0
C  C76  1  0.01180525  0.01762430  0.53242658  1  -0.032188  0  0.003338  0.131423  0  4.008114  0
C  C77  1  0.01334591  0.97346855  0.47913569  1  -0.029237  0  -0.001929  0.11582  0  4.030663  0
C  C78  1  0.49558799  0.47566911  0.97432309  1  0.019712  0  -0.007915  0.104938  0  4.023838  0
C  C79  1  0.49207341  0.52604076  0.02356127  1  -0.044554  0  -0.003619  0.115048  0  4.017818  0
C  C80  1  0.15441375  0.04608145  0.99643183  1  0.008771  0  -0.076036  -0.117841  0  3.954844  0
C  C81  1  0.83285487  0.95745817  0.00268238  1  -0.036492  0  -0.075952  -0.119281  0  3.953431  0
C  C82  1  0.65500237  0.50150551  0.53835875  1  -0.004845  0  -0.075849  -0.117673  0  3.953477  0
C  C83  1  0.32988847  0.50161643  0.46077123  1  -0.048396  0  -0.076928  -0.119882  0  3.958841  0
C  C84  1  0.99658804  0.04674967  0.95536636  1  0.101259  0  0.003721  0.126015  0  4.113719  0
C  C85  1  0.99041217  0.95690109  0.04384665  1  0.109133  0  0.005825  0.13111  0  4.107408  0
C  C86  1  0.49340419  0.45739760  0.54432728  1  0.061335  0  0.005372  0.13042  0  4.110046  0
C  C87  1  0.49180842  0.54558846  0.45463562  1  0.102185  0  0.003788  0.128723  0  4.113101  0
C  C88  1  0.83588212  0.00172008  0.95919456  1  -0.037185  0  -0.077688  -0.119499  0  3.959744  0
C  C89  1  0.15133810  0.00184144  0.03994807  1  -0.030628  0  -0.075855  -0.118098  0  3.951778  0
C  C90  1  0.33071277  0.45820194  0.50490849  1  0.004573  0  -0.075098  -0.116679  0  3.953805  0
C  C91  1  0.65421657  0.54493351  0.49420817  1  -0.029502  0  -0.076786  -0.119418  0  3.95611  0
C  C92  1  0.99866695  0.09185348  0.91094240  1  -0.483286  0  -0.021635  -0.035619  0  4.087236  0
C  C93  1  0.98735054  0.91239970  0.08873524  1  -0.386622  0  -0.023548  -0.040868  0  4.085612  0
C  C94  1  0.49382183  0.41277475  0.58905848  1  -0.388545  0  -0.022322  -0.036566  0  4.093597  0
C  C95  1  0.49182305  0.58942772  0.40922605  1  -0.52479  0  -0.02576  -0.045933  0  4.093808  0
C  C96  1  0.98666701  0.87476379  0.12791713  1  0.101215  0  -0.03252  -0.180092  0  3.946119  0
C  C97  1  0.99862362  0.13058272  0.87258150  1  0.189581  0  -0.034622  -0.189804  0  3.95922  0
C  C98  1  0.49248157  0.62713846  0.37007902  1  0.213892  0  -0.034784  -0.185974  0  3.959984  0
C  C99  1  0.49227234  0.37402578  0.62735039  1  0.108096  0  -0.036278  -0.187693  0  3.950712  0
C  C100  1  0.78687531  0.03029706  0.71850271  1  0.343701  0  -0.138357  -0.187043  0  3.897713  0
C  C101  1  0.20405200  0.76252096  0.43701589  1  0.361719  0  -0.138356  -0.163303  0  3.907079  0
C  C102  1  0.09289747  0.30655051  0.93412216  1  0.422602  0  -0.137243  -0.161389  0  3.896545  0
C  C103  1  0.95027554  0.67396235  0.07384129  1  0.372496  0  -0.137375  -0.158738  0  3.885418  0
C  C104  1  0.35755656  0.06789812  0.69455698  1  0.390489  0  -0.148746  -0.188989  0  3.901591  0
C  C105  1  0.77467289  0.96028907  0.29238126  1  0.396054  0  -0.134456  -0.164181  0  3.916683  0
C  C106  1  0.90927938  0.44854416  0.82728089  1  0.370851  0  -0.138243  -0.163675  0  3.900534  0
C  C107  1  0.29786266  0.54025768  0.21140983  1  0.40487  0  -0.135641  -0.164536  0  3.916514  0
O  O108  1  0.32713921  0.31417789  0.80842481  1  -1.250887  0  -0.227269  -0.590107  0  2.347527  0
O  O109  1  0.65748296  0.69035354  0.18944224  1  -1.25918  0  -0.23017  -0.596759  0  2.366562  0
O  O110  1  0.81286550  0.17707797  0.69101315  1  -1.243651  0  -0.247874  -0.602516  0  2.303917  0
O  O111  1  0.16681759  0.81402909  0.31070090  1  -1.257552  0  -0.231775  -0.595298  0  2.361234  0
O  O112  1  0.65960299  0.30961002  0.69082397  1  -1.237949  0  -0.23345  -0.593351  0  2.270396  0
O  O113  1  0.32529966  0.68884875  0.30433292  1  -1.226941  0  -0.230912  -0.587383  0  2.307449  0
O  O114  1  0.16334786  0.19507333  0.80902830  1  -1.220294  0  -0.220883  -0.558583  0  2.284832  0
O  O115  1  0.82195915  0.81402361  0.19424028  1  -1.230156  0  -0.22686  -0.576918  0  2.292401  0
O  O116  1  0.66362693  0.30836117  0.81130993  1  -1.247646  0  -0.224681  -0.578789  0  2.343235  0
O  O117  1  0.32158616  0.69530184  0.18521493  1  -1.25859  0  -0.228846  -0.593558  0  2.361828  0
O  O118  1  0.14794340  0.18757489  0.69126083  1  -1.270097  0  -0.245512  -0.618081  0  2.441398  0
O  O119  1  0.83089546  0.80957231  0.31359748  1  -1.254984  0  -0.230743  -0.593399  0  2.375353  0
O  O120  1  0.82430881  0.19029968  0.80705719  1  -1.227486  0  -0.226351  -0.574373  0  2.301072  0
O  O121  1  0.16218432  0.81526139  0.19319986  1  -1.228685  0  -0.228599  -0.577319  0  2.288842  0
O  O122  1  0.31857483  0.31218977  0.69066126  1  -1.234698  0  -0.230796  -0.586648  0  2.267817  0
O  O123  1  0.66599477  0.68847655  0.30645564  1  -1.227173  0  -0.230743  -0.576076  0  2.285767  0
O  O124  1  0.48590131  0.21028480  0.74308680  1  -1.427432  0  -0.451704  -0.982075  0  2.174232  0
O  O125  1  0.49696290  0.79279499  0.25549101  1  -1.425451  0  -0.447562  -0.981689  0  2.150514  0
O  O126  1  0.98694069  0.29082703  0.74833990  1  -1.429996  0  -0.447533  -0.98765  0  2.182586  0
O  O127  1  0.99452670  0.71202602  0.24585289  1  -1.40852  0  -0.449053  -0.987223  0  2.17942  0
O  O128  1  0.71275083  0.03344890  0.65987992  1  -1.061519  0  -0.175664  -0.153796  0  2.608035  0
O  O129  1  0.28654325  0.82700200  0.42843883  1  -1.069617  0  -0.207905  -0.191875  0  2.512393  0
O  O130  1  0.30715247  0.30646910  0.93496794  1  -1.105932  0  -0.212206  -0.201114  0  2.508278  0
O  O131  1  0.73861744  0.68401040  0.07160105  1  -1.076808  0  -0.206421  -0.192669  0  2.523422  0
O  O132  1  0.36230881  0.09611935  0.63821587  1  -1.049283  0  -0.190928  -0.17275  0  2.500002  0
O  O133  1  0.71277246  0.93814699  0.34719234  1  -1.071659  0  -0.207593  -0.196524  0  2.523322  0
O  O134  1  0.69571290  0.45455260  0.82680166  1  -1.092019  0  -0.218187  -0.212223  0  2.505412  0
O  O135  1  0.21457171  0.55991755  0.15749414  1  -1.072436  0  -0.21208  -0.210348  0  2.532738  0
