# generated using pymatgen
data_Zn2H19C40N2O8F3
_symmetry_space_group_name_H-M   'P 1'
_cell_length_a   9.70589006
_cell_length_b   11.05789000
_cell_length_c   14.38624525
_cell_angle_alpha   88.38675806
_cell_angle_beta   79.46928923
_cell_angle_gamma   91.08362788
_symmetry_Int_Tables_number   1
_chemical_formula_structural   Zn2H19C40N2O8F3
_chemical_formula_sum   'Zn2 H19 C40 N2 O8 F3'
_cell_volume   1516.96540666
_cell_formula_units_Z   1
loop_
 _symmetry_equiv_pos_site_id
 _symmetry_equiv_pos_as_xyz
  1  'x, y, z'
loop_
 _atom_site_type_symbol
 _atom_site_label
 _atom_site_symmetry_multiplicity
 _atom_site_fract_x
 _atom_site_fract_y
 _atom_site_fract_z
 _atom_site_occupancy
 _atom_site_pbe_bader_charge
 _atom_site_pbe_bader_spin_density
 _atom_site_pbe_cm5_charge
 _atom_site_pbe_ddec_charge
 _atom_site_pbe_ddec_spin_density
 _atom_site_pbe_ddec_sum_bond_order
 _atom_site_pbe_magmom
Zn  Zn0  1  0.13072838  0.47318652  0.52311473  1  1.288941  0  0.678274  0.824709  0  2.416879  0
Zn  Zn1  1  0.85274523  0.47349365  0.49374073  1  1.292835  0  0.674638  0.833464  0  2.364343  0
H  H2  1  0.76333329  0.69523849  0.10467855  1  0.0695  0  0.105907  0.107933  0  0.986924  0
H  H3  1  0.38226977  0.58572911  0.40654086  1  0.151239  0  0.133117  0.114973  0  0.992639  0
H  H4  1  0.92705201  0.44053674  0.18907137  1  0.075864  0  0.109811  0.117563  0  0.987178  0
H  H5  1  0.20258041  0.48555960  0.87886232  1  0.093302  0  0.111926  0.138438  0  1.000878  0
H  H6  1  0.66440888  0.49829603  0.77045863  1  0.135363  0  0.09733  0.109222  0  1.064617  0
H  H7  1  0.01456316  0.44818918  0.01430378  1  0.07429  0  0.102861  0.111909  0  1.003415  0
H  H8  1  0.78149978  0.85602170  0.51097767  1  0.130087  0  0.110743  0.13837  0  1.001607  0
H  H9  1  0.64650492  0.58205718  0.39434026  1  0.131645  0  0.138742  0.117485  0  0.955771  0
H  H10  1  0.96236717  0.69102541  0.97366266  1  0.051411  0  0.103313  0.105031  0  0.996598  0
H  H11  1  0.06510865  0.63121049  0.80916868  1  0.079353  0  0.105089  0.111198  0  1.003291  0
H  H12  1  0.52156395  0.64133572  0.17390223  1  0.080041  0  0.097512  0.106752  0  1.044769  0
H  H13  1  0.25894502  0.20596294  0.48472569  1  0.057496  0  0.098059  0.108853  0  1.04775  0
H  H14  1  0.48171966  0.10247748  0.48404482  1  0.07387  0  0.096525  0.097209  0  1.009873  0
H  H15  1  0.48193334  0.87717647  0.50511787  1  0.01644  0  0.095788  0.091396  0  1.007476  0
H  H16  1  0.26225290  0.75824005  0.51086538  1  0.073047  0  0.095876  0.106027  0  1.073379  0
H  H17  1  0.71957646  0.29971233  0.62569010  1  0.164784  0  0.115962  0.136301  0  1.021557  0
H  H18  1  0.56242607  0.18228890  0.75277935  1  0.076531  0  0.115754  0.112412  0  0.967509  0
H  H19  1  0.30344688  0.20565179  0.77625448  1  0.094062  0  0.115528  0.111455  0  0.967531  0
H  H20  1  0.19992331  0.34191503  0.66895665  1  0.119738  0  0.116438  0.139218  0  1.016936  0
C  C21  1  0.98705565  0.23932674  0.51409463  1  1.57819  0  0.217478  0.616939  0  4.148511  0
C  C22  1  0.22541682  0.50299689  0.02600023  1  -0.059913  0  -0.003706  0.124455  0  4.048521  0
C  C23  1  0.32071388  0.53565563  0.08706277  1  0.015498  0  -0.015333  -0.101079  0  3.951889  0
C  C24  1  0.92912899  0.51520897  0.68711250  1  1.555655  0  0.21246  0.591911  0  4.164007  0
C  C25  1  0.08404148  0.47011739  0.06329279  1  -0.049631  0  -0.099495  -0.160645  0  4.015909  0
C  C26  1  0.03556280  0.46544651  0.15928506  1  0.046987  0  -0.083428  -0.070957  0  4.016934  0
C  C27  1  0.26462358  0.52525595  0.18531126  1  0.463854  0  0.111108  0.24171  0  3.971735  0
C  C28  1  0.25941931  0.10808215  0.49087765  1  0.00969  0  -0.099104  -0.135619  0  3.974961  0
C  C29  1  0.38387267  0.05005384  0.49081391  1  -0.122977  0  -0.096178  -0.080489  0  4.046272  0
C  C30  1  0.38440752  0.92297532  0.50112666  1  -0.003822  0  -0.100664  -0.090997  0  4.067515  0
C  C31  1  0.26201049  0.85617906  0.50526230  1  -0.015848  0  -0.102267  -0.14077  0  3.995991  0
C  C32  1  0.66265489  0.57695285  0.90805456  1  -0.033478  0  -0.002315  0.049789  0  3.944127  0
C  C33  1  0.13194190  0.91222197  0.50230046  1  -0.042298  0  -0.002442  0.053844  0  3.921452  0
C  C34  1  0.12935826  0.04297977  0.50064569  1  0.069125  0  0.002634  0.081154  0  3.922175  0
C  C35  1  0.99802770  0.10417467  0.50826029  1  0.097088  0  -0.018368  -0.185104  0  3.900139  0
C  C36  1  0.99174060  0.70935061  0.49620640  1  1.57921  0  0.216945  0.597198  0  4.133742  0
C  C37  1  0.87808734  0.03238980  0.51317809  1  0.404328  0  0.100724  0.2742  0  4.064994  0
C  C38  1  0.87944788  0.90647210  0.50868494  1  0.014139  0  -0.094633  -0.220016  0  4.016927  0
C  C39  1  0.00338892  0.84506304  0.50266007  1  -0.050391  0  -0.006024  -0.041317  0  3.906672  0
C  C40  1  0.60686869  0.30878874  0.63566843  1  0.04769  0  -0.073987  -0.137507  0  3.932647  0
C  C41  1  0.51830773  0.24415475  0.70627480  1  -0.047894  0  -0.067005  -0.050462  0  3.970264  0
C  C42  1  0.37131570  0.25714855  0.71946309  1  -0.057709  0  -0.066863  -0.046554  0  3.976825  0
C  C43  1  0.75264768  0.62782149  0.96609216  1  0.034427  0  -0.00752  0.078502  0  4.016221  0
C  C44  1  0.31273478  0.33284038  0.66063373  1  0.039529  0  -0.074604  -0.14569  0  3.932066  0
C  C45  1  0.40078271  0.39860469  0.58634381  1  0.416237  0  0.128345  0.169685  0  3.941344  0
C  C46  1  0.55041848  0.38905817  0.57494074  1  0.447562  0  0.129872  0.174531  0  3.923286  0
C  C47  1  0.57670114  0.52772744  0.44838094  1  0.549218  0  0.077795  0.063875  0  3.884479  0
C  C48  1  0.07199251  0.47524841  0.32704231  1  1.601697  0  0.214631  0.618612  0  4.154921  0
C  C49  1  0.42995858  0.53196502  0.45629385  1  0.534043  0  0.077784  0.070882  0  3.877668  0
C  C50  1  0.86817121  0.55819659  0.78312818  1  0.011581  0  -0.022181  -0.031547  0  3.988839  0
C  C51  1  0.12695791  0.49008390  0.22276040  1  0.02273  0  -0.028416  -0.14913  0  3.982188  0
C  C52  1  0.89682634  0.64938705  0.92869132  1  -0.038327  0  -0.089358  -0.13728  0  4.004059  0
C  C53  1  0.95433760  0.61564635  0.83866675  1  0.007467  0  -0.087105  -0.098161  0  4.005107  0
C  C54  1  0.51484702  0.55826250  0.94705177  1  0.058661  0  -0.007767  -0.073729  0  3.946467  0
C  C55  1  0.72545103  0.54183620  0.81658371  1  -0.128456  0  -0.085277  -0.139458  0  3.931779  0
C  C56  1  0.46445612  0.57115903  0.04595091  1  0.02705  0  0.002075  0.075012  0  3.939602  0
C  C57  1  0.55928500  0.62292118  0.10022448  1  -0.046472  0  -0.097047  -0.139267  0  4.014692  0
C  C58  1  0.69540583  0.65339414  0.06137391  1  -0.077026  0  -0.088388  -0.12419  0  4.015733  0
C  C59  1  0.41221730  0.52982990  0.89093579  1  0.384352  0  0.097649  0.247994  0  4.066384  0
C  C60  1  0.27450172  0.50467802  0.92685854  1  0.071917  0  -0.105067  -0.27603  0  4.018382  0
N  N61  1  0.63544092  0.45761935  0.50572589  1  -1.200038  0  -0.284678  -0.187191  0  3.451589  0
N  N62  1  0.34459731  0.46970783  0.52415283  1  -1.194252  0  -0.290245  -0.193683  0  3.462804  0
O  O63  1  0.07481672  0.29514039  0.55470480  1  -1.174722  0  -0.314611  -0.553477  0  2.383434  0
O  O64  1  0.89029585  0.28977152  0.47957656  1  -1.151184  0  -0.313766  -0.54497  0  2.323786  0
O  O65  1  0.06180705  0.52435311  0.66019533  1  -1.146028  0  -0.316397  -0.540327  0  2.295444  0
O  O66  1  0.84410681  0.47204839  0.63806648  1  -1.183426  0  -0.316227  -0.564375  0  2.409176  0
O  O67  1  0.10419384  0.64925694  0.48293808  1  -1.17157  0  -0.313654  -0.547103  0  2.391535  0
O  O68  1  0.86904448  0.66246275  0.50365784  1  -1.164867  0  -0.318775  -0.546987  0  2.28187  0
O  O69  1  0.15591322  0.43978824  0.37985466  1  -1.157695  0  -0.322137  -0.561413  0  2.334273  0
O  O70  1  0.94238191  0.49738287  0.35380382  1  -1.164571  0  -0.319283  -0.543531  0  2.286272  0
F  F71  1  0.74852883  0.08197772  0.52522287  1  -0.634689  0  -0.100554  -0.144199  0  1.373141  0
F  F72  1  0.35064083  0.55059061  0.24780859  1  -0.647746  0  -0.083702  -0.132159  0  1.44023  0
F  F73  1  0.44984278  0.53281621  0.79450621  1  -0.652733  0  -0.090124  -0.134802  0  1.388501  0
