# generated using pymatgen
data_ZnH8C10(BrN)2
_symmetry_space_group_name_H-M   'P 1'
_cell_length_a   4.95230338
_cell_length_b   12.92234878
_cell_length_c   17.79331866
_cell_angle_alpha   89.99997980
_cell_angle_beta   90.00003782
_cell_angle_gamma   90.00002279
_symmetry_Int_Tables_number   1
_chemical_formula_structural   ZnH8C10(BrN)2
_chemical_formula_sum   'Zn4 H32 C40 Br8 N8'
_cell_volume   1138.69039482
_cell_formula_units_Z   4
loop_
 _symmetry_equiv_pos_site_id
 _symmetry_equiv_pos_as_xyz
  1  'x, y, z'
loop_
 _atom_site_type_symbol
 _atom_site_label
 _atom_site_symmetry_multiplicity
 _atom_site_fract_x
 _atom_site_fract_y
 _atom_site_fract_z
 _atom_site_occupancy
 _atom_site_hle17_bader_spin_density
 _atom_site_hle17_ddec_charge
 _atom_site_hle17_ddec_spin_density
 _atom_site_hle17_ddec_sum_bond_order
 _atom_site_hle17_magmom
 _atom_site_hse06_10hf_bader_spin_density
 _atom_site_hse06_10hf_ddec_charge
 _atom_site_hse06_10hf_ddec_spin_density
 _atom_site_hse06_10hf_ddec_sum_bond_order
 _atom_site_hse06_10hf_magmom
 _atom_site_hse06_bader_spin_density
 _atom_site_hse06_ddec_charge
 _atom_site_hse06_ddec_spin_density
 _atom_site_hse06_ddec_sum_bond_order
 _atom_site_hse06_magmom
 _atom_site_pbe_bader_spin_density
 _atom_site_pbe_cm5_charge
 _atom_site_pbe_ddec_charge
 _atom_site_pbe_ddec_spin_density
 _atom_site_pbe_ddec_sum_bond_order
 _atom_site_pbe_magmom
Zn  Zn0  1  0.93983181  0.25000174  0.39018362  1  0  0.788368  0  2.082958  0  0  0.606182  0  2.567564  0  0  0.649761  0  2.52272  0  0  0.520654  0.576347  0  2.597774  0
Zn  Zn1  1  0.43982812  0.74999988  0.10981590  1  0  0.788421  0  2.082993  0  0  0.606206  0  2.56762  0  0  0.649798  0  2.522777  0  0  0.52064  0.576371  0  2.597834  0
Zn  Zn2  1  0.06017087  0.74999972  0.60981646  1  0  0.788341  0  2.082992  0  0  0.606158  0  2.567557  0  0  0.649739  0  2.52269  0  0  0.520642  0.576316  0  2.597768  0
Zn  Zn3  1  0.56017658  0.24999925  0.89018249  1  0  0.788413  0  2.083018  0  0  0.606186  0  2.567663  0  0  0.649775  0  2.522796  0  0  0.520635  0.576349  0  2.597873  0
H  H4  1  0.70230799  0.41008332  0.28762766  1  0  0.072217  0  0.963827  0  0  0.078273  0  1.033543  0  0  0.081316  0  1.030061  0  0  0.102545  0.075991  0  1.036098  0
H  H5  1  0.20231643  0.58991594  0.21237518  1  0  0.072237  0  0.963783  0  0  0.078287  0  1.033507  0  0  0.08133  0  1.030025  0  0  0.102543  0.076004  0  1.036065  0
H  H6  1  0.29768476  0.91008361  0.71237350  1  0  0.07223  0  0.963783  0  0  0.078284  0  1.033515  0  0  0.081327  0  1.030035  0  0  0.102541  0.076001  0  1.036071  0
H  H7  1  0.79768812  0.08991540  0.78762494  1  0  0.072247  0  0.96379  0  0  0.078291  0  1.033518  0  0  0.081335  0  1.030038  0  0  0.102537  0.076009  0  1.036075  0
H  H8  1  0.29768662  0.58991658  0.71237298  1  0  0.072198  0  0.963825  0  0  0.078249  0  1.03356  0  0  0.081292  0  1.030079  0  0  0.102539  0.075966  0  1.036115  0
H  H9  1  0.79769029  0.41008397  0.78762490  1  0  0.072229  0  0.963824  0  0  0.078273  0  1.033545  0  0  0.081318  0  1.030064  0  0  0.102544  0.075991  0  1.0361  0
H  H10  1  0.70230783  0.08991475  0.28762770  1  0  0.072254  0  0.963728  0  0  0.07829  0  1.033469  0  0  0.081329  0  1.029994  0  0  0.102541  0.076007  0  1.036026  0
H  H11  1  0.20230851  0.91008296  0.21237346  1  0  0.072238  0  0.963824  0  0  0.078283  0  1.033548  0  0  0.081328  0  1.030068  0  0  0.10255  0.076  0  1.036104  0
H  H12  1  0.39135360  0.41787448  0.17990854  1  0  0.102591  0  0.990376  0  0  0.112077  0  1.054783  0  0  0.115728  0  1.052588  0  0  0.09559  0.109411  0  1.056578  0
H  H13  1  0.89135346  0.58212404  0.32009210  1  0  0.102619  0  0.990357  0  0  0.112107  0  1.054744  0  0  0.115758  0  1.052548  0  0  0.095594  0.109424  0  1.056558  0
H  H14  1  0.60864319  0.91787553  0.82009206  1  0  0.102653  0  0.990322  0  0  0.112143  0  1.054702  0  0  0.115793  0  1.052508  0  0  0.095618  0.109462  0  1.056515  0
H  H15  1  0.10864704  0.08212422  0.67990690  1  0  0.102635  0  0.99033  0  0  0.112135  0  1.0547  0  0  0.115785  0  1.052505  0  0  0.095608  0.109453  0  1.056514  0
H  H16  1  0.60864504  0.58212388  0.82009154  1  0  0.102628  0  0.990357  0  0  0.112116  0  1.054749  0  0  0.115767  0  1.052552  0  0  0.095609  0.109438  0  1.056558  0
H  H17  1  0.10864518  0.41787510  0.67990686  1  0  0.102627  0  0.990342  0  0  0.112123  0  1.054722  0  0  0.115773  0  1.052527  0  0  0.095609  0.109452  0  1.056523  0
H  H18  1  0.39135344  0.08212437  0.17990914  1  0  0.102657  0  0.990349  0  0  0.112143  0  1.05473  0  0  0.115793  0  1.052536  0  0  0.095619  0.109467  0  1.056537  0
H  H19  1  0.89134757  0.91787492  0.32009093  1  0  0.102635  0  0.990376  0  0  0.112135  0  1.054743  0  0  0.115784  0  1.052551  0  0  0.095611  0.109473  0  1.056536  0
H  H20  1  0.11218647  0.41805247  0.09915235  1  0  0.106852  0  0.964104  0  0  0.115687  0  1.028734  0  0  0.119059  0  1.027185  0  0  0.101488  0.113219  0  1.030092  0
H  H21  1  0.61218849  0.58194833  0.40084878  1  0  0.106877  0  0.964063  0  0  0.115713  0  1.028697  0  0  0.119085  0  1.027148  0  0  0.101497  0.113246  0  1.030052  0
H  H22  1  0.88780830  0.91805043  0.90084825  1  0  0.106856  0  0.964106  0  0  0.115689  0  1.02875  0  0  0.119061  0  1.0272  0  0  0.101494  0.113222  0  1.030103  0
H  H23  1  0.38779990  0.08194860  0.59914853  1  0  0.106894  0  0.964068  0  0  0.115707  0  1.028731  0  0  0.119078  0  1.027184  0  0  0.101503  0.113241  0  1.030087  0
H  H24  1  0.88781016  0.58194744  0.90084716  1  0  0.106838  0  0.964048  0  0  0.115684  0  1.02868  0  0  0.119055  0  1.027131  0  0  0.101477  0.113215  0  1.030036  0
H  H25  1  0.38780814  0.41805081  0.59915017  1  0  0.106816  0  0.964103  0  0  0.11567  0  1.028725  0  0  0.119041  0  1.027177  0  0  0.1015  0.113202  0  1.030083  0
H  H26  1  0.11219236  0.08194948  0.09915183  1  0  0.106795  0  0.964101  0  0  0.115647  0  1.028734  0  0  0.119018  0  1.027185  0  0  0.101481  0.113181  0  1.030087  0
H  H27  1  0.61219471  0.91805054  0.40084930  1  0  0.106899  0  0.964063  0  0  0.115703  0  1.028735  0  0  0.119075  0  1.027186  0  0  0.10151  0.113235  0  1.030092  0
H  H28  1  0.79326829  0.41037411  0.99321049  1  0  0.074872  0  0.970108  0  0  0.079435  0  1.042503  0  0  0.082421  0  1.039298  0  0  0.099591  0.077137  0  1.044953  0
H  H29  1  0.29326224  0.58962567  0.50678963  1  0  0.074906  0  0.970106  0  0  0.079453  0  1.042512  0  0  0.082451  0  1.039298  0  0  0.099611  0.077156  0  1.04496  0
H  H30  1  0.20673052  0.91037399  0.00678955  1  0  0.074865  0  0.970109  0  0  0.079415  0  1.042517  0  0  0.082408  0  1.039307  0  0  0.099587  0.077117  0  1.044966  0
H  H31  1  0.70673423  0.08962527  0.49321048  1  0  0.074904  0  0.970128  0  0  0.079487  0  1.042495  0  0  0.082464  0  1.039299  0  0  0.099618  0.077188  0  1.044947  0
H  H32  1  0.20672834  0.58962502  0.00679015  1  0  0.074854  0  0.970095  0  0  0.079423  0  1.042493  0  0  0.082396  0  1.039301  0  0  0.099582  0.077123  0  1.044946  0
H  H33  1  0.70674044  0.41037424  0.49321101  1  0  0.074897  0  0.970055  0  0  0.079443  0  1.042471  0  0  0.082435  0  1.039263  0  0  0.099603  0.077145  0  1.044922  0
H  H34  1  0.79326207  0.08962592  0.99321109  1  0  0.074899  0  0.970088  0  0  0.079452  0  1.04249  0  0  0.082444  0  1.03928  0  0  0.099599  0.077154  0  1.04494  0
H  H35  1  0.29326038  0.91037386  0.50678847  1  0  0.074902  0  0.970163  0  0  0.079484  0  1.042531  0  0  0.082453  0  1.039343  0  0  0.09961  0.077184  0  1.044984  0
C  C36  1  0.62385353  0.33939648  0.26241370  1  0  0.136621  0  3.722288  0  0  0.10463  0  3.970862  0  0  0.112395  0  3.988462  0  0  0.040834  0.099596  0  3.958993  0
C  C37  1  0.12385603  0.66060354  0.23758743  1  0  0.136599  0  3.722262  0  0  0.104605  0  3.970841  0  0  0.112368  0  3.988444  0  0  0.040805  0.099569  0  3.958968  0
C  C38  1  0.37614722  0.83939600  0.73758579  1  0  0.136731  0  3.722122  0  0  0.104705  0  3.970722  0  0  0.112464  0  3.988327  0  0  0.040865  0.099669  0  3.958851  0
C  C39  1  0.87614657  0.16060457  0.76241379  1  0  0.13662  0  3.722271  0  0  0.104638  0  3.970835  0  0  0.112397  0  3.988441  0  0  0.040845  0.099602  0  3.958964  0
C  C40  1  0.37614512  0.66060420  0.73758581  1  0  0.136797  0  3.722298  0  0  0.104779  0  3.970895  0  0  0.11254  0  3.988498  0  0  0.040899  0.099743  0  3.959023  0
C  C41  1  0.87614666  0.33939560  0.76241321  1  0  0.136686  0  3.72226  0  0  0.104713  0  3.970809  0  0  0.112472  0  3.988414  0  0  0.040866  0.099676  0  3.95894  0
C  C42  1  0.62385344  0.16060391  0.26241428  1  0  0.136598  0  3.722064  0  0  0.104617  0  3.970635  0  0  0.11238  0  3.988243  0  0  0.040815  0.099581  0  3.958766  0
C  C43  1  0.12385006  0.83939534  0.23758629  1  0  0.136685  0  3.722286  0  0  0.104699  0  3.970859  0  0  0.11246  0  3.988463  0  0  0.04087  0.099663  0  3.958992  0
C  C44  1  0.44687523  0.34243154  0.20210228  1  0  -0.146731  0  3.69646  0  0  -0.166172  0  3.941671  0  0  -0.173908  0  3.962433  0  0  -0.083458  -0.161226  0  3.92782  0
C  C45  1  0.94687310  0.65756853  0.29789781  1  0  -0.146857  0  3.69657  0  0  -0.166276  0  3.941801  0  0  -0.174011  0  3.962561  0  0  -0.083509  -0.161319  0  3.927956  0
C  C46  1  0.55312755  0.84242950  0.79789722  1  0  -0.146943  0  3.696578  0  0  -0.166334  0  3.941835  0  0  -0.174068  0  3.962597  0  0  -0.083591  -0.161377  0  3.927989  0
C  C47  1  0.05312949  0.15757024  0.70210173  1  0  -0.146848  0  3.696515  0  0  -0.166278  0  3.941789  0  0  -0.174011  0  3.962551  0  0  -0.083538  -0.16132  0  3.927946  0
C  C48  1  0.55312544  0.65756837  0.79789724  1  0  -0.146825  0  3.696453  0  0  -0.166216  0  3.941682  0  0  -0.173952  0  3.962446  0  0  -0.083495  -0.161265  0  3.92784  0
C  C49  1  0.05312756  0.34242982  0.70210171  1  0  -0.146839  0  3.696568  0  0  -0.166271  0  3.941844  0  0  -0.174006  0  3.962607  0  0  -0.083531  -0.161321  0  3.927995  0
C  C50  1  0.44687312  0.15756963  0.20210230  1  0  -0.146891  0  3.696607  0  0  -0.166328  0  3.941822  0  0  -0.174062  0  3.962583  0  0  -0.083539  -0.161373  0  3.927974  0
C  C51  1  0.94686915  0.84243044  0.29789722  1  0  -0.146927  0  3.69662  0  0  -0.166359  0  3.941866  0  0  -0.174094  0  3.962627  0  0  -0.083543  -0.161417  0  3.928009  0
C  C52  1  0.34814736  0.25000097  0.17113279  1  0  0.106893  0  3.722464  0  0  0.118522  0  3.950544  0  0  0.122976  0  3.971558  0  0  0.014694  0.115724  0  3.936112  0
C  C53  1  0.84814336  0.74999986  0.32886728  1  0  0.106932  0  3.722566  0  0  0.118542  0  3.950725  0  0  0.122995  0  3.971741  0  0  0.014692  0.115747  0  3.936289  0
C  C54  1  0.65185533  0.74999893  0.82886729  1  0  0.106857  0  3.722462  0  0  0.118419  0  3.950694  0  0  0.122872  0  3.971711  0  0  0.014684  0.115625  0  3.936254  0
C  C55  1  0.15185731  0.25000082  0.67113112  1  0  0.106865  0  3.722595  0  0  0.118392  0  3.950786  0  0  0.122844  0  3.971804  0  0  0.014691  0.115598  0  3.936349  0
C  C56  1  0.15016872  0.25000252  0.10889704  1  0  0.101427  0  3.722509  0  0  0.114946  0  3.94888  0  0  0.119219  0  3.970146  0  0  0.014901  0.112303  0  3.934267  0
C  C57  1  0.65016079  0.74999982  0.39110241  1  0  0.10149  0  3.72265  0  0  0.114949  0  3.949111  0  0  0.11922  0  3.970387  0  0  0.014947  0.112308  0  3.934494  0
C  C58  1  0.84983396  0.75000048  0.89110247  1  0  0.101433  0  3.722476  0  0  0.114892  0  3.948976  0  0  0.119166  0  3.970247  0  0  0.014911  0.112253  0  3.934359  0
C  C59  1  0.34983584  0.24999931  0.60889710  1  0  0.101454  0  3.722663  0  0  0.115068  0  3.948953  0  0  0.119339  0  3.970226  0  0  0.014913  0.112426  0  3.934339  0
C  C60  1  0.05114411  0.34255613  0.07803825  1  0  -0.142431  0  3.682583  0  0  -0.161723  0  3.928877  0  0  -0.169521  0  3.949866  0  0  -0.081131  -0.15678  0  3.91489  0
C  C61  1  0.55113816  0.65744388  0.42196287  1  0  -0.142533  0  3.682573  0  0  -0.161808  0  3.928901  0  0  -0.169611  0  3.949903  0  0  -0.081209  -0.156867  0  3.914912  0
C  C62  1  0.94885462  0.84255564  0.92196293  1  0  -0.142477  0  3.682458  0  0  -0.161751  0  3.928794  0  0  -0.169549  0  3.949785  0  0  -0.081165  -0.156809  0  3.914804  0
C  C63  1  0.44885837  0.15744417  0.57803610  1  0  -0.142538  0  3.682571  0  0  -0.161846  0  3.928855  0  0  -0.169646  0  3.949849  0  0  -0.081199  -0.156904  0  3.914868  0
C  C64  1  0.94885857  0.65744455  0.92196183  1  0  -0.142435  0  3.682519  0  0  -0.161695  0  3.928831  0  0  -0.169496  0  3.94982  0  0  -0.081116  -0.156754  0  3.91484  0
C  C65  1  0.44885846  0.34255448  0.57803665  1  0  -0.142444  0  3.68254  0  0  -0.161761  0  3.928788  0  0  -0.169561  0  3.949785  0  0  -0.081184  -0.156818  0  3.914798  0
C  C66  1  0.05114402  0.15744582  0.07803714  1  0  -0.142411  0  3.68253  0  0  -0.16172  0  3.928822  0  0  -0.169516  0  3.949812  0  0  -0.081164  -0.156777  0  3.914831  0
C  C67  1  0.55114027  0.84255574  0.42196285  1  0  -0.142543  0  3.682595  0  0  -0.161788  0  3.92892  0  0  -0.169589  0  3.949911  0  0  -0.081209  -0.156848  0  3.914931  0
C  C68  1  0.87308886  0.33955753  0.01792927  1  0  0.137849  0  3.711282  0  0  0.105538  0  3.960098  0  0  0.113468  0  3.977693  0  0  0.040492  0.100415  0  3.948285  0
C  C69  1  0.37308168  0.66044253  0.48207080  1  0  0.137714  0  3.711168  0  0  0.105428  0  3.96  0  0  0.113345  0  3.977605  0  0  0.04045  0.100307  0  3.948186  0
C  C70  1  0.12691190  0.83955687  0.98207192  1  0  0.137912  0  3.711219  0  0  0.105624  0  3.960031  0  0  0.113548  0  3.977626  0  0  0.040523  0.1005  0  3.94822  0
C  C71  1  0.62691890  0.16044133  0.51792929  1  0  0.137728  0  3.711147  0  0  0.105434  0  3.95996  0  0  0.113369  0  3.977569  0  0  0.040483  0.100313  0  3.948147  0
C  C72  1  0.12691383  0.66044315  0.98207025  1  0  0.137886  0  3.711173  0  0  0.105561  0  3.960017  0  0  0.113503  0  3.977621  0  0  0.040473  0.100439  0  3.948205  0
C  C73  1  0.62691899  0.33955583  0.51792927  1  0  0.137724  0  3.711109  0  0  0.105433  0  3.959976  0  0  0.113356  0  3.977579  0  0  0.040482  0.100311  0  3.948163  0
C  C74  1  0.87308877  0.16044381  0.01792929  1  0  0.137737  0  3.711166  0  0  0.105431  0  3.960013  0  0  0.113353  0  3.977609  0  0  0.040429  0.10031  0  3.9482  0
C  C75  1  0.37308177  0.83955780  0.48207022  1  0  0.13773  0  3.711217  0  0  0.105409  0  3.960034  0  0  0.113351  0  3.977649  0  0  0.040456  0.100287  0  3.94822  0
Br  Br76  1  0.14837392  0.41670666  0.38960688  1  0  -0.521018  0  0.997648  0  0  -0.45842  0  1.305706  0  0  -0.477517  0  1.283621  0  0  -0.256845  -0.444355  0  1.320666  0
Br  Br77  1  0.64839765  0.58329955  0.11039088  1  0  -0.521026  0  0.997634  0  0  -0.458448  0  1.305741  0  0  -0.477545  0  1.283653  0  0  -0.256847  -0.444386  0  1.320703  0
Br  Br78  1  0.85163095  0.91670554  0.61039372  1  0  -0.521018  0  0.997659  0  0  -0.45842  0  1.305718  0  0  -0.477514  0  1.283621  0  0  -0.256843  -0.444353  0  1.320675  0
Br  Br79  1  0.35160689  0.08329889  0.88961092  1  0  -0.521019  0  0.997633  0  0  -0.458433  0  1.305724  0  0  -0.477526  0  1.283636  0  0  -0.256843  -0.444368  0  1.320685  0
Br  Br80  1  0.85163078  0.58329402  0.61039432  1  0  -0.521018  0  0.997656  0  0  -0.458419  0  1.30571  0  0  -0.477516  0  1.283621  0  0  -0.256846  -0.444355  0  1.320671  0
Br  Br81  1  0.35160503  0.41669958  0.88960919  1  0  -0.521014  0  0.997623  0  0  -0.458439  0  1.305737  0  0  -0.477533  0  1.283644  0  0  -0.25684  -0.444373  0  1.320692  0
Br  Br82  1  0.14839395  0.08330055  0.38961142  1  0  -0.521012  0  0.997637  0  0  -0.458426  0  1.305731  0  0  -0.477523  0  1.283639  0  0  -0.256847  -0.444361  0  1.320689  0
Br  Br83  1  0.64839378  0.91670102  0.11039197  1  0  -0.521019  0  0.997639  0  0  -0.458427  0  1.305723  0  0  -0.477524  0  1.28364  0  0  -0.256842  -0.444366  0  1.320687  0
N  N84  1  0.70913100  0.25000174  0.29325170  1  0  -0.319553  0  3.334323  0  0  -0.229779  0  3.600453  0  0  -0.249893  0  3.617534  0  0  -0.334046  -0.216331  0  3.588776  0
N  N85  1  0.20912747  0.75000061  0.20675002  1  0  -0.319538  0  3.334443  0  0  -0.229737  0  3.600546  0  0  -0.249856  0  3.617638  0  0  -0.334048  -0.216288  0  3.588867  0
N  N86  1  0.29087370  0.74999816  0.70674894  1  0  -0.319668  0  3.334411  0  0  -0.229866  0  3.600563  0  0  -0.249979  0  3.617647  0  0  -0.334087  -0.216415  0  3.588883  0
N  N87  1  0.79087521  0.25000084  0.79325006  1  0  -0.319597  0  3.334509  0  0  -0.229797  0  3.600606  0  0  -0.249913  0  3.617692  0  0  -0.334067  -0.216347  0  3.588927  0
N  N88  1  0.78765263  0.25000234  0.98730324  1  0  -0.31863  0  3.327017  0  0  -0.228309  0  3.593233  0  0  -0.248742  0  3.610195  0  0  -0.334239  -0.214639  0  3.581572  0
N  N89  1  0.28764272  0.74999976  0.51269576  1  0  -0.318386  0  3.326717  0  0  -0.228135  0  3.593054  0  0  -0.248536  0  3.609936  0  0  -0.334186  -0.214464  0  3.581392  0
N  N90  1  0.21234803  0.75000066  0.01269628  1  0  -0.318752  0  3.32708  0  0  -0.228454  0  3.593356  0  0  -0.248879  0  3.610286  0  0  -0.334303  -0.214784  0  3.581699  0
N  N91  1  0.71235593  0.25000014  0.48730488  1  0  -0.318391  0  3.326753  0  0  -0.22817  0  3.593111  0  0  -0.248575  0  3.610007  0  0  -0.334237  -0.2145  0  3.581449  0
