# generated using pymatgen
data_CuH5C6(NO)2
_symmetry_space_group_name_H-M   'P 1'
_cell_length_a   6.50951572
_cell_length_b   9.65211470
_cell_length_c   9.89435334
_cell_angle_alpha   101.56716761
_cell_angle_beta   89.99994086
_cell_angle_gamma   90.00030676
_symmetry_Int_Tables_number   1
_chemical_formula_structural   CuH5C6(NO)2
_chemical_formula_sum   'Cu4 H20 C24 N8 O8'
_cell_volume   609.04219667
_cell_formula_units_Z   4
loop_
 _symmetry_equiv_pos_site_id
 _symmetry_equiv_pos_as_xyz
  1  'x, y, z'
loop_
 _atom_site_type_symbol
 _atom_site_label
 _atom_site_symmetry_multiplicity
 _atom_site_fract_x
 _atom_site_fract_y
 _atom_site_fract_z
 _atom_site_occupancy
 _atom_site_pbe_bader_charge
 _atom_site_pbe_bader_spin_density
 _atom_site_pbe_cm5_charge
 _atom_site_pbe_ddec_charge
 _atom_site_pbe_ddec_spin_density
 _atom_site_pbe_ddec_sum_bond_order
 _atom_site_pbe_magmom
Cu  Cu0  1  0.97843315  0.96960709  0.34044841  1  0.755428  0  0.581492  0.444654  0  2.235399  0
Cu  Cu1  1  0.47842003  0.53039484  0.15955006  1  0.755336  0  0.58147  0.444627  0  2.235311  0
Cu  Cu2  1  0.02157052  0.03039444  0.65954665  1  0.755316  0  0.581477  0.444612  0  2.235276  0
Cu  Cu3  1  0.52157443  0.46960457  0.84045571  1  0.755416  0  0.581491  0.444709  0  2.235356  0
H  H4  1  0.66690799  0.79358133  0.43125968  1  0.143777  0  0.127027  0.120119  0  0.990577  0
H  H5  1  0.16690652  0.70642377  0.06874675  1  0.143752  0  0.127065  0.1202  0  0.990607  0
H  H6  1  0.33309261  0.20641914  0.56874326  1  0.143747  0  0.127042  0.120124  0  0.990575  0
H  H7  1  0.83309255  0.29357670  0.93125619  1  0.143783  0  0.127025  0.120129  0  0.990565  0
H  H8  1  0.29095764  0.08340755  0.16506963  1  0.181102  0  0.121843  0.116476  0  1.037777  0
H  H9  1  0.79095231  0.41659202  0.33492899  1  0.181108  0  0.121881  0.116477  0  1.037771  0
H  H10  1  0.70904143  0.91659187  0.83493007  1  0.181103  0  0.121838  0.116451  0  1.037789  0
H  H11  1  0.20904676  0.58340739  0.66507172  1  0.181095  0  0.121866  0.116467  0  1.037778  0
H  H12  1  0.81147422  0.17730959  0.21215528  1  0.079006  0  0.098142  0.147108  0  1.023567  0
H  H13  1  0.31146643  0.32269012  0.28784733  1  0.078944  0  0.098177  0.14715  0  1.023531  0
H  H14  1  0.18852485  0.82268876  0.78784623  1  0.078999  0  0.09813  0.147108  0  1.023549  0
H  H15  1  0.68853110  0.67730930  0.71215641  1  0.078504  0  0.098163  0.147123  0  1.02355  0
H  H16  1  0.61270481  0.16329657  0.08632343  1  0.101494  0  0.094215  0.157335  0  1.022179  0
H  H17  1  0.11269935  0.33670496  0.41367935  1  0.101603  0  0.094189  0.157305  0  1.022225  0
H  H18  1  0.38729426  0.83670178  0.91367910  1  0.101468  0  0.094198  0.15732  0  1.022206  0
H  H19  1  0.88729971  0.66329657  0.58632481  1  0.101559  0  0.094199  0.157329  0  1.022195  0
H  H20  1  0.81328038  0.03218383  0.07108492  1  0.096795  0  0.100403  0.156511  0  1.023866  0
H  H21  1  0.31327498  0.46781695  0.42891688  1  0.096796  0  0.100401  0.156525  0  1.023829  0
H  H22  1  0.18671715  0.96781559  0.92891680  1  0.096763  0  0.100428  0.156544  0  1.023824  0
H  H23  1  0.68672563  0.53218352  0.57108605  1  0.096816  0  0.100415  0.15653  0  1.023861  0
C  C24  1  0.37069070  0.86739907  0.37987815  1  0.489044  0  0.093861  0.028286  0  3.988461  0
C  C25  1  0.87068717  0.63260319  0.12012284  1  0.489084  0  0.093881  0.028394  0  3.988429  0
C  C26  1  0.62931144  0.13260035  0.62012154  1  0.489102  0  0.093824  0.028217  0  3.988413  0
C  C27  1  0.12930729  0.36739516  0.87987766  1  0.489019  0  0.093911  0.028306  0  3.988564  0
C  C28  1  0.58333783  0.85922374  0.37240732  1  0.450282  0  0.04552  0.02187  0  3.928789  0
C  C29  1  0.08334137  0.64077868  0.12759590  1  0.449988  0  0.045459  0.021654  0  3.928927  0
C  C30  1  0.41665970  0.14077673  0.62759460  1  0.450006  0  0.045512  0.021883  0  3.928719  0
C  C31  1  0.91666385  0.35922179  0.87240704  1  0.450006  0  0.045511  0.021845  0  3.928767  0
C  C32  1  0.59004307  0.01814125  0.22412256  1  0.489494  0  0.127694  0.297635  0  3.89435  0
C  C33  1  0.09003975  0.48185589  0.27588046  1  0.489489  0  0.127709  0.297646  0  3.894243  0
C  C34  1  0.40995600  0.98185605  0.77587773  1  0.489493  0  0.127697  0.297616  0  3.894417  0
C  C35  1  0.90995778  0.51814352  0.72412329  1  0.489477  0  0.127678  0.297604  0  3.894435  0
C  C36  1  0.37567997  0.02047381  0.22678824  1  0.421378  0  0.050171  -0.001811  0  3.811686  0
C  C37  1  0.87567423  0.47952528  0.27321196  1  0.421326  0  0.050104  -0.001869  0  3.811636  0
C  C38  1  0.62432063  0.97952455  0.77321125  1  0.421365  0  0.050184  -0.001785  0  3.811725  0
C  C39  1  0.12432177  0.52047308  0.72678753  1  0.421356  0  0.050133  -0.001808  0  3.811684  0
C  C40  1  0.25313543  0.79592625  0.47872142  1  1.607229  0  0.192809  0.524236  0  4.269149  0
C  C41  1  0.75314200  0.70407944  0.02127568  1  1.607333  0  0.192764  0.524212  0  4.269374  0
C  C42  1  0.74686210  0.20407634  0.52127587  1  1.607295  0  0.19284  0.524331  0  4.269131  0
C  C43  1  0.24686475  0.29592315  0.97872262  1  1.607323  0  0.192854  0.524353  0  4.269048  0
C  C44  1  0.71195509  0.10277042  0.14291445  1  -0.086494  0  -0.246696  -0.484477  0  3.930677  0
C  C45  1  0.21194925  0.39723073  0.35708784  1  -0.086552  0  -0.246697  -0.48449  0  3.930696  0
C  C46  1  0.28804398  0.89722900  0.85708727  1  -0.086462  0  -0.246711  -0.484519  0  3.930667  0
C  C47  1  0.78804828  0.60277080  0.64291429  1  -0.086066  0  -0.246696  -0.484479  0  3.930699  0
N  N48  1  0.26597913  0.94967397  0.30697092  1  -1.205265  0  -0.363483  -0.199133  0  3.706647  0
N  N49  1  0.76597763  0.55032652  0.19302915  1  -1.205234  0  -0.363419  -0.199062  0  3.706447  0
N  N50  1  0.73401994  0.05032650  0.69303303  1  -1.205267  0  -0.363398  -0.199008  0  3.706544  0
N  N51  1  0.23401991  0.44967078  0.80696913  1  -1.205176  0  -0.363447  -0.199142  0  3.706528  0
N  N52  1  0.69425213  0.93761372  0.29982413  1  -1.185143  0  -0.368865  -0.252138  0  3.648507  0
N  N53  1  0.19424848  0.56238839  0.20017958  1  -1.184773  0  -0.368903  -0.252106  0  3.648494  0
N  N54  1  0.30575001  0.06238675  0.70017982  1  -1.184806  0  -0.368889  -0.252139  0  3.648557  0
N  N55  1  0.80574905  0.43761102  0.79982113  1  -1.184875  0  -0.368931  -0.252203  0  3.648445  0
O  O56  1  0.06397396  0.83629734  0.50131991  1  -1.177221  0  -0.3497  -0.567618  0  2.388086  0
O  O57  1  0.56397129  0.66369987  0.99867600  1  -1.177315  0  -0.349719  -0.56771  0  2.388051  0
O  O58  1  0.93602818  0.16369890  0.49867512  1  -1.177353  0  -0.349747  -0.567755  0  2.388083  0
O  O59  1  0.43603085  0.33630060  0.00131986  1  -1.177289  0  -0.349753  -0.567738  0  2.388065  0
O  O60  1  0.34699053  0.70918193  0.53406490  1  -1.160815  0  -0.304421  -0.509031  0  2.168639  0
O  O61  1  0.84698761  0.79081720  0.96593933  1  -1.160942  0  -0.304353  -0.508935  0  2.168948  0
O  O62  1  0.65301315  0.29081431  0.46594025  1  -1.160856  0  -0.304431  -0.509029  0  2.168812  0
O  O63  1  0.15300992  0.20918432  0.03406382  1  -1.160888  0  -0.304435  -0.509039  0  2.168683  0
