# generated using pymatgen
data_YbH9C3SeNO8
_symmetry_space_group_name_H-M   'P 1'
_cell_length_a   7.66698464
_cell_length_b   9.27679595
_cell_length_c   12.07699261
_cell_angle_alpha   91.70212905
_cell_angle_beta   89.99400038
_cell_angle_gamma   90.01396148
_symmetry_Int_Tables_number   1
_chemical_formula_structural   YbH9C3SeNO8
_chemical_formula_sum   'Yb4 H36 C12 Se4 N4 O32'
_cell_volume   858.59768139
_cell_formula_units_Z   4
loop_
 _symmetry_equiv_pos_site_id
 _symmetry_equiv_pos_as_xyz
  1  'x, y, z'
loop_
 _atom_site_type_symbol
 _atom_site_label
 _atom_site_symmetry_multiplicity
 _atom_site_fract_x
 _atom_site_fract_y
 _atom_site_fract_z
 _atom_site_occupancy
 _atom_site_pbe_bader_charge
 _atom_site_pbe_bader_spin_density
 _atom_site_pbe_cm5_charge
 _atom_site_pbe_ddec_charge
 _atom_site_pbe_ddec_spin_density
 _atom_site_pbe_ddec_sum_bond_order
 _atom_site_pbe_magmom
Yb  Yb0  1  0.77967652  0.93099063  0.29097274  1  2.178042  0  1.552584  2.147935  0  2.067105  0
Yb  Yb1  1  0.27958015  0.06898144  0.20907155  1  2.177331  0  1.552706  2.148191  0  2.066957  0
Yb  Yb2  1  0.22032327  0.06901124  0.70902839  1  2.178018  0  1.552576  2.147909  0  2.067142  0
Yb  Yb3  1  0.72041964  0.93101712  0.79092795  1  2.177408  0  1.552705  2.148259  0  2.066842  0
H  H4  1  0.88807956  0.95786782  0.07070684  1  0.646286  0  0.313238  0.418274  0  0.905018  0
H  H5  1  0.38799348  0.04244637  0.42928743  1  0.646647  0  0.313098  0.418136  0  0.905302  0
H  H6  1  0.11191501  0.04213190  0.92929430  1  0.646293  0  0.313242  0.418259  0  0.905033  0
H  H7  1  0.61200892  0.95755438  0.57071288  1  0.646638  0  0.313112  0.418154  0  0.905276  0
H  H8  1  0.02871858  0.85425166  0.12626860  1  0.621379  0  0.315195  0.397292  0  0.940612  0
H  H9  1  0.52863801  0.14600079  0.37357192  1  0.6205  0  0.314739  0.396487  0  0.941722  0
H  H10  1  0.97127729  0.14574694  0.87373172  1  0.621373  0  0.315203  0.39728  0  0.940589  0
H  H11  1  0.47136178  0.85399988  0.62642673  1  0.620517  0  0.314756  0.396487  0  0.941736  0
H  H12  1  0.07417064  0.73544357  0.30249035  1  0.624059  0  0.321152  0.433386  0  0.867397  0
H  H13  1  0.57409408  0.26467327  0.19645066  1  0.623295  0  0.321233  0.433131  0  0.866854  0
H  H14  1  0.92583176  0.26455938  0.69751078  1  0.624071  0  0.321146  0.433378  0  0.867429  0
H  H15  1  0.42590571  0.73532408  0.80354637  1  0.623314  0  0.321234  0.433119  0  0.86689  0
H  H16  1  0.91478356  0.62411784  0.30309051  1  0.664689  0  0.313065  0.44203  0  0.869948  0
H  H17  1  0.41461964  0.37581105  0.19671170  1  0.664617  0  0.313251  0.44219  0  0.869697  0
H  H18  1  0.08521752  0.37588416  0.69691311  1  0.664665  0  0.313045  0.441979  0  0.870025  0
H  H19  1  0.58538146  0.62418746  0.80328697  1  0.664591  0  0.313286  0.442236  0  0.869648  0
H  H20  1  0.68458849  0.47690171  0.61372928  1  0.400555  0  0.27327  0.225803  0  1.020439  0
H  H21  1  0.18420543  0.52211052  0.88584186  1  0.39588  0  0.273652  0.226489  0  1.020911  0
H  H22  1  0.31541000  0.52309788  0.38626938  1  0.400528  0  0.273278  0.225808  0  1.020386  0
H  H23  1  0.81579306  0.47789243  0.11415927  1  0.395851  0  0.273637  0.226472  0  1.020924  0
H  H24  1  0.58495618  0.25434091  0.54419166  1  -0.028206  0  0.092406  0.066957  0  0.998014  0
H  H25  1  0.08567181  0.74523196  0.95485002  1  0.013235  0  0.092335  0.066831  0  0.997775  0
H  H26  1  0.41504231  0.74565868  0.45580700  1  -0.028218  0  0.09239  0.066952  0  0.998006  0
H  H27  1  0.91432667  0.25476991  0.04515111  1  0.013246  0  0.09233  0.066828  0  0.997805  0
H  H28  1  0.56629353  0.33101741  0.40949274  1  -0.002304  0  0.089927  0.040389  0  1.059506  0
H  H29  1  0.06733489  0.66938259  0.08982561  1  -0.0009  0  0.089899  0.040102  0  1.05992  0
H  H30  1  0.43370496  0.66898222  0.59050675  1  -0.002307  0  0.089933  0.0404  0  1.059467  0
H  H31  1  0.93266229  0.33061821  0.91017553  1  -0.00088  0  0.089912  0.040103  0  1.059976  0
H  H32  1  0.65029635  0.58208997  0.38754829  1  0.054299  0  0.094984  0.081031  0  1.040651  0
H  H33  1  0.15046493  0.41819138  0.11246137  1  0.053759  0  0.094892  0.081371  0  1.04016  0
H  H34  1  0.34970083  0.41790855  0.61245038  1  0.054328  0  0.094982  0.081046  0  1.040649  0
H  H35  1  0.84953356  0.58180933  0.88753812  1  0.053756  0  0.09489  0.081335  0  1.04017  0
H  H36  1  0.73177924  0.68141350  0.50397577  1  0.055425  0  0.092513  0.071263  0  1.043759  0
H  H37  1  0.23110155  0.31808662  0.99617283  1  0.03807  0  0.092678  0.071448  0  1.043269  0
H  H38  1  0.26821925  0.31858501  0.49602290  1  0.055398  0  0.092532  0.071319  0  1.043732  0
H  H39  1  0.76889564  0.68191409  0.00382666  1  0.038042  0  0.092681  0.071448  0  1.04325  0
C  C40  1  0.91666653  0.99158961  0.53374310  1  1.575962  0  0.230592  0.538849  0  4.177083  0
C  C41  1  0.41667335  0.00840714  0.96624554  1  1.603097  0  0.230528  0.538545  0  4.177498  0
C  C42  1  0.08333587  0.00841114  0.46625722  1  1.603299  0  0.23057  0.538822  0  4.177225  0
C  C43  1  0.58332644  0.99159137  0.03375313  1  1.57599  0  0.230527  0.538536  0  4.177413  0
C  C44  1  0.55232188  0.35309299  0.49981817  1  0.336248  0  -0.08366  -0.057703  0  3.992447  0
C  C45  1  0.05286881  0.64680171  0.99959926  1  0.294341  0  -0.084242  -0.057936  0  3.992662  0
C  C46  1  0.44767661  0.64690661  0.50018049  1  0.336062  0  -0.083674  -0.057732  0  3.992321  0
C  C47  1  0.94712967  0.35320016  0.00040187  1  0.294104  0  -0.084267  -0.057956  0  3.992855  0
C  C48  1  0.63596686  0.59938446  0.47732587  1  0.273192  0  -0.093971  -0.0752  0  3.967736  0
C  C49  1  0.13570002  0.40044876  0.02274855  1  0.290906  0  -0.093844  -0.07552  0  3.96664  0
C  C50  1  0.36403163  0.40061401  0.52267197  1  0.272949  0  -0.093974  -0.075258  0  3.967736  0
C  C51  1  0.86429846  0.59955307  0.97725176  1  0.290954  0  -0.093876  -0.075525  0  3.966601  0
Se  Se52  1  0.42986277  0.70852986  0.17741195  1  2.653847  0  0.832902  1.767636  0  5.199636  0
Se  Se53  1  0.92996552  0.29138479  0.32288529  1  2.654546  0  0.832792  1.76785  0  5.198708  0
Se  Se54  1  0.57013832  0.29146869  0.82258755  1  2.653851  0  0.832884  1.767667  0  5.199689  0
Se  Se55  1  0.07003818  0.70861703  0.67711502  1  2.654567  0  0.832762  1.767793  0  5.198843  0
N  N56  1  0.67880708  0.46449043  0.52935594  1  -1.043712  0  -0.500952  -0.350055  0  3.417368  0
N  N57  1  0.17883702  0.53496831  0.97019773  1  -1.040363  0  -0.50132  -0.351048  0  3.417423  0
N  N58  1  0.32119011  0.53550916  0.47064272  1  -1.043722  0  -0.500974  -0.350075  0  3.417269  0
N  N59  1  0.82116016  0.46503356  0.02980340  1  -1.040137  0  -0.501266  -0.351002  0  3.417405  0
O  O60  1  0.96420416  0.94554691  0.13809582  1  -1.255948  0  -0.640317  -0.881317  0  2.17703  0
O  O61  1  0.46404123  0.05470438  0.36184047  1  -1.255122  0  -0.640222  -0.881127  0  2.177981  0
O  O62  1  0.03579302  0.05445169  0.86190450  1  -1.255933  0  -0.640314  -0.881265  0  2.176965  0
O  O63  1  0.53596117  0.94529525  0.63815902  1  -1.255109  0  -0.640253  -0.881152  0  2.178001  0
O  O64  1  0.48052934  0.72553061  0.04674511  1  -0.935458  0  -0.344962  -0.641783  0  1.889445  0
O  O65  1  0.98008792  0.27412278  0.45361693  1  -0.935443  0  -0.344712  -0.641657  0  1.88941  0
O  O66  1  0.51947044  0.27446799  0.95325522  1  -0.935451  0  -0.344956  -0.641799  0  1.889449  0
O  O67  1  0.01991449  0.72587901  0.54638255  1  -0.935445  0  -0.344696  -0.641634  0  1.889416  0
O  O68  1  0.60166840  0.75944233  0.25845503  1  -1.093274  0  -0.558044  -0.891514  0  2.118804  0
O  O69  1  0.10218207  0.24078405  0.24205324  1  -1.093559  0  -0.557932  -0.891751  0  2.118478  0
O  O70  1  0.39833270  0.24055730  0.74154447  1  -1.093278  0  -0.558061  -0.89155  0  2.118812  0
O  O71  1  0.89782163  0.75921674  0.75794790  1  -1.093538  0  -0.557921  -0.891752  0  2.118526  0
O  O72  1  0.94667495  0.72859886  0.29992218  1  -1.243182  0  -0.658374  -0.855038  0  2.088654  0
O  O73  1  0.44664649  0.27134305  0.19949700  1  -1.242227  0  -0.657886  -0.853907  0  2.088923  0
O  O74  1  0.05332744  0.27140425  0.70008227  1  -1.243082  0  -0.658345  -0.854983  0  2.088742  0
O  O75  1  0.55335461  0.72865331  0.80050169  1  -1.242209  0  -0.65793  -0.853951  0  2.088908  0
O  O76  1  0.36056289  0.55123651  0.21995896  1  -1.007857  0  -0.358851  -0.66293  0  1.876661  0
O  O77  1  0.86080390  0.44868614  0.28034613  1  -1.008458  0  -0.35886  -0.662793  0  1.876762  0
O  O78  1  0.63944081  0.44876101  0.78004138  1  -1.007837  0  -0.358825  -0.662925  0  1.876671  0
O  O79  1  0.13920111  0.55131569  0.71965418  1  -1.008456  0  -0.358849  -0.662758  0  1.876797  0
O  O80  1  0.27038742  0.83069161  0.21525690  1  -1.112442  0  -0.52875  -0.908483  0  2.105165  0
O  O81  1  0.77067842  0.16919836  0.28468827  1  -1.111878  0  -0.529026  -0.908429  0  2.104578  0
O  O82  1  0.72961107  0.16930695  0.78474260  1  -1.112469  0  -0.528761  -0.90852  0  2.105244  0
O  O83  1  0.22932398  0.83080338  0.71531039  1  -1.111932  0  -0.529013  -0.908395  0  2.104627  0
O  O84  1  0.77585337  0.96457434  0.48007505  1  -1.189753  0  -0.376154  -0.621118  0  2.366678  0
O  O85  1  0.27584892  0.03533825  0.01990625  1  -1.189246  0  -0.375897  -0.621091  0  2.367181  0
O  O86  1  0.22414772  0.03542641  0.51992527  1  -1.189787  0  -0.376161  -0.621118  0  2.366735  0
O  O87  1  0.72415087  0.96466138  0.98009325  1  -1.189256  0  -0.375905  -0.621102  0  2.367133  0
O  O88  1  0.92677066  0.00989044  0.63823766  1  -1.185631  0  -0.378099  -0.685859  0  2.482352  0
O  O89  1  0.42683810  0.99018733  0.86174893  1  -1.185301  0  -0.377567  -0.68537  0  2.481952  0
O  O90  1  0.07323174  0.99011143  0.36176348  1  -1.185494  0  -0.378035  -0.68575  0  2.482344  0
O  O91  1  0.57315909  0.00981226  0.13824973  1  -1.185219  0  -0.377545  -0.68537  0  2.48194  0
