# generated using pymatgen
data_CuH22C16S2I
_symmetry_space_group_name_H-M   'P 1'
_cell_length_a   13.52110396
_cell_length_b   14.08456440
_cell_length_c   21.94893758
_cell_angle_alpha   108.41725973
_cell_angle_beta   89.99988652
_cell_angle_gamma   89.99986794
_symmetry_Int_Tables_number   1
_chemical_formula_structural   CuH22C16S2I
_chemical_formula_sum   'Cu8 H176 C128 S16 I8'
_cell_volume   3965.83827994
_cell_formula_units_Z   8
loop_
 _symmetry_equiv_pos_site_id
 _symmetry_equiv_pos_as_xyz
  1  'x, y, z'
loop_
 _atom_site_type_symbol
 _atom_site_label
 _atom_site_symmetry_multiplicity
 _atom_site_fract_x
 _atom_site_fract_y
 _atom_site_fract_z
 _atom_site_occupancy
 _atom_site_pbe_bader_charge
 _atom_site_pbe_bader_spin_density
 _atom_site_pbe_cm5_charge
 _atom_site_pbe_ddec_charge
 _atom_site_pbe_ddec_spin_density
 _atom_site_pbe_ddec_sum_bond_order
 _atom_site_pbe_magmom
Cu  Cu0  1  0.90984369  0.88388512  0.67310276  1  0.360191  0  0.229251  0.061302  0  2.818082  0
Cu  Cu1  1  0.40984465  0.61611445  0.82689406  1  0.360262  0  0.229225  0.061274  0  2.818158  0
Cu  Cu2  1  0.09015913  0.11611590  0.32689455  1  0.360254  0  0.229221  0.061253  0  2.81812  0
Cu  Cu3  1  0.59015522  0.38388059  0.17310388  1  0.360259  0  0.229232  0.06126  0  2.818157  0
Cu  Cu4  1  0.91665905  0.06288820  0.76753420  1  0.359122  0  0.231511  0.065416  0  2.887718  0
Cu  Cu5  1  0.41665806  0.43711267  0.73246611  1  0.359121  0  0.231529  0.065435  0  2.887645  0
Cu  Cu6  1  0.08334082  0.93711809  0.23246779  1  0.359248  0  0.231531  0.065448  0  2.887659  0
Cu  Cu7  1  0.58334106  0.56288387  0.26753258  1  0.359224  0  0.231529  0.065474  0  2.88762  0
H  H8  1  0.89977428  0.21747765  0.68221915  1  0.051455  0  0.089989  0.099217  0  1.02312  0
H  H9  1  0.39977709  0.28252028  0.81778059  1  0.050912  0  0.089985  0.099227  0  1.023109  0
H  H10  1  0.10021967  0.78252265  0.31778211  1  0.051292  0  0.089994  0.099216  0  1.023154  0
H  H11  1  0.60022647  0.71747479  0.18222054  1  0.051427  0  0.089963  0.099187  0  1.023135  0
H  H12  1  0.81742803  0.26612606  0.74734540  1  0.095568  0  0.097123  0.118071  0  0.987724  0
H  H13  1  0.31742821  0.23387439  0.75265632  1  0.095492  0  0.097122  0.118062  0  0.987696  0
H  H14  1  0.18256961  0.73387352  0.25265800  1  0.095561  0  0.097109  0.118048  0  0.987608  0
H  H15  1  0.68257018  0.76612444  0.24734693  1  0.095582  0  0.09715  0.118129  0  0.987669  0
H  H16  1  0.99904476  0.38062715  0.72353312  1  0.020766  0  0.090603  0.064233  0  0.988461  0
H  H17  1  0.49904587  0.11937046  0.77646553  1  0.020745  0  0.090614  0.064291  0  0.988413  0
H  H18  1  0.00095140  0.61937166  0.27646875  1  0.02085  0  0.090645  0.064318  0  0.988441  0
H  H19  1  0.50095399  0.88062460  0.22353332  1  0.020752  0  0.090609  0.064224  0  0.988499  0
H  H20  1  0.93192869  0.44267551  0.83495254  1  0.029519  0  0.082743  0.078351  0  1.002146  0
H  H21  1  0.43192809  0.05732232  0.66504760  1  0.029546  0  0.082751  0.078361  0  1.002186  0
H  H22  1  0.06806600  0.55732404  0.16504811  1  0.029511  0  0.082787  0.078385  0  1.002106  0
H  H23  1  0.56806956  0.94267423  0.33495200  1  0.029503  0  0.082759  0.078376  0  1.002136  0
H  H24  1  0.81335187  0.45535998  0.80420577  1  0.035211  0  0.085931  0.086008  0  0.984497  0
H  H25  1  0.31335194  0.04463525  0.69579536  1  0.034985  0  0.085949  0.086033  0  0.984457  0
H  H26  1  0.18664356  0.54464106  0.19579472  1  0.035106  0  0.085966  0.086049  0  0.984499  0
H  H27  1  0.68664571  0.95535907  0.30420471  1  0.035085  0  0.085938  0.086013  0  0.984508  0
H  H28  1  0.90165136  0.61953549  0.83761226  1  0.032968  0  0.086111  0.080871  0  1.000639  0
H  H29  1  0.40165592  0.88046191  0.66238960  1  0.032654  0  0.086108  0.08087  0  1.000663  0
H  H30  1  0.09834850  0.38046481  0.16238854  1  0.032891  0  0.086133  0.080927  0  1.000593  0
H  H31  1  0.59834469  0.11953390  0.33761077  1  0.032636  0  0.086139  0.080917  0  1.000611  0
H  H32  1  0.00233662  0.56614507  0.78701650  1  0.030126  0  0.081143  0.075067  0  1.002732  0
H  H33  1  0.50234134  0.93385507  0.71298458  1  0.030029  0  0.081145  0.075114  0  1.002638  0
H  H34  1  0.99766176  0.43385149  0.21298402  1  0.030111  0  0.081144  0.075088  0  1.002666  0
H  H35  1  0.49766001  0.06614297  0.28701441  1  0.030069  0  0.081146  0.075116  0  1.002579  0
H  H36  1  0.78994692  0.58461475  0.74396936  1  -0.007187  0  0.079908  0.056065  0  1.009356  0
H  H37  1  0.28995257  0.91538749  0.75603314  1  -0.007211  0  0.079961  0.056115  0  1.009307  0
H  H38  1  0.21005221  0.41538853  0.25603113  1  -0.007192  0  0.079932  0.056116  0  1.009338  0
H  H39  1  0.71005026  0.08461058  0.24396813  1  -0.007153  0  0.079926  0.056071  0  1.009307  0
H  H40  1  0.97357934  0.50475841  0.66246571  1  0.035857  0  0.087808  0.085988  0  1.002937  0
H  H41  1  0.47358454  0.99524400  0.83753615  1  0.035834  0  0.087782  0.08594  0  1.0029  0
H  H42  1  0.02641979  0.49524264  0.33753570  1  0.035839  0  0.087818  0.085981  0  1.002908  0
H  H43  1  0.52641829  0.00475556  0.16246450  1  0.035805  0  0.087792  0.085988  0  1.002883  0
H  H44  1  0.85498920  0.51823099  0.63248300  1  0.017356  0  0.078608  0.068411  0  1.033632  0
H  H45  1  0.35499360  0.98177030  0.86751923  1  0.017326  0  0.078576  0.068365  0  1.0337  0
H  H46  1  0.14501214  0.48177081  0.36751810  1  0.017342  0  0.078597  0.068402  0  1.033616  0
H  H47  1  0.64500997  0.01822626  0.13248128  1  0.017334  0  0.078598  0.068392  0  1.03366  0
H  H48  1  0.78590763  0.39383034  0.68071143  1  -0.017924  0  0.082206  0.076845  0  0.997861  0
H  H49  1  0.28591012  0.10617097  0.81929095  1  -0.017947  0  0.082174  0.076714  0  0.9979  0
H  H50  1  0.21409075  0.60617219  0.31928800  1  -0.017946  0  0.082198  0.076788  0  0.997916  0
H  H51  1  0.71409049  0.89382560  0.18070956  1  -0.017935  0  0.082177  0.076717  0  0.997943  0
H  H52  1  0.88717096  0.34143602  0.62991097  1  0.008158  0  0.08619  0.081752  0  0.989769  0
H  H53  1  0.38717463  0.15856494  0.87008894  1  0.008116  0  0.086197  0.081744  0  0.989729  0
H  H54  1  0.11282817  0.65856502  0.37008953  1  0.008129  0  0.086192  0.081753  0  0.989695  0
H  H55  1  0.61282671  0.84143236  0.12991035  1  0.008091  0  0.086185  0.081721  0  0.989724  0
H  H56  1  0.98146520  0.69402215  0.72929939  1  0.038496  0  0.096283  0.111552  0  0.993015  0
H  H57  1  0.48146810  0.80597725  0.77070322  1  0.038401  0  0.096256  0.111549  0  0.993052  0
H  H58  1  0.01853763  0.30597666  0.27070203  1  0.038579  0  0.09627  0.11154  0  0.99295  0
H  H59  1  0.51853472  0.19402006  0.22929698  1  0.038484  0  0.096282  0.11157  0  0.993034  0
H  H60  1  0.88235702  0.74620692  0.78123991  1  0.085922  0  0.092721  0.097311  0  1.049025  0
H  H61  1  0.38236096  0.75379353  0.71876121  1  0.085982  0  0.092713  0.0973  0  1.048922  0
H  H62  1  0.11764802  0.25379413  0.21876059  1  0.085631  0  0.092664  0.097246  0  1.04899  0
H  H63  1  0.61764187  0.24620303  0.28123884  1  0.085696  0  0.092718  0.097309  0  1.048934  0
H  H64  1  0.69875090  0.68541804  0.71011583  1  0.088782  0  0.086308  0.11432  0  1.050111  0
H  H65  1  0.19875520  0.81459044  0.78988439  1  0.08869  0  0.086353  0.114326  0  1.050106  0
H  H66  1  0.30125563  0.31457626  0.28988241  1  0.08835  0  0.086288  0.114304  0  1.050076  0
H  H67  1  0.80124837  0.18541285  0.21011701  1  0.088667  0  0.086343  0.114329  0  1.050082  0
H  H68  1  0.69702086  0.81187317  0.70781625  1  0.07438  0  0.085414  0.100659  0  1.034793  0
H  H69  1  0.19701954  0.68813607  0.79218366  1  0.074494  0  0.085382  0.100594  0  1.034876  0
H  H70  1  0.30298122  0.18812039  0.29218184  1  0.074687  0  0.085414  0.100624  0  1.034846  0
H  H71  1  0.80298033  0.31186873  0.20781895  1  0.074855  0  0.08546  0.100684  0  1.034793  0
H  H72  1  0.65592523  0.84597308  0.60764007  1  0.074086  0  0.085067  0.098935  0  1.05728  0
H  H73  1  0.15592144  0.65403098  0.89235249  1  0.074047  0  0.085058  0.09894  0  1.057286  0
H  H74  1  0.34408499  0.15402197  0.39235832  1  0.073989  0  0.085128  0.099025  0  1.057343  0
H  H75  1  0.84407916  0.34597303  0.10764587  1  0.074121  0  0.085131  0.099046  0  1.057231  0
H  H76  1  0.58877637  0.78578916  0.49669648  1  0.048956  0  0.102705  0.107381  0  0.986661  0
H  H77  1  0.08877962  0.71420678  0.00330041  1  0.049054  0  0.102686  0.107383  0  0.986548  0
H  H78  1  0.41123015  0.21420440  0.50330253  1  0.049222  0  0.102671  0.107318  0  0.986643  0
H  H79  1  0.91122246  0.28579352  0.99669948  1  0.049087  0  0.102684  0.107353  0  0.986606  0
H  H80  1  0.59591963  0.48344872  0.50240128  1  0.056423  0  0.100038  0.103817  0  1.012259  0
H  H81  1  0.09592101  0.01655245  0.99760359  1  0.056378  0  0.100053  0.103804  0  1.012186  0
H  H82  1  0.40408171  0.51654485  0.49759955  1  0.056498  0  0.100002  0.103738  0  1.012247  0
H  H83  1  0.90408181  0.98345161  0.00239979  1  0.056449  0  0.100019  0.103745  0  1.012282  0
H  H84  1  0.66766500  0.54303922  0.61187289  1  0.062919  0  0.093828  0.102807  0  1.016708  0
H  H85  1  0.16766421  0.95697237  0.88812981  1  0.062685  0  0.093816  0.102847  0  1.016645  0
H  H86  1  0.33234226  0.45695509  0.38812581  1  0.062857  0  0.093778  0.102741  0  1.016807  0
H  H87  1  0.83233861  0.04303617  0.11187309  1  0.062961  0  0.093757  0.10272  0  1.016698  0
H  H88  1  0.51317338  0.65304490  0.41085378  1  0.066224  0  0.098999  0.115103  0  0.990713  0
H  H89  1  0.01317825  0.84695130  0.08914690  1  0.066171  0  0.098994  0.115067  0  0.990682  0
H  H90  1  0.48682649  0.34695392  0.58914855  1  0.066338  0  0.098998  0.11508  0  0.990751  0
H  H91  1  0.98682236  0.15304974  0.91085314  1  0.066145  0  0.098968  0.115036  0  0.990737  0
H  H92  1  0.50731971  0.52753955  0.41209078  1  0.063827  0  0.096322  0.111202  0  1.036222  0
H  H93  1  0.00732281  0.97245743  0.08791052  1  0.063951  0  0.096302  0.111164  0  1.036224  0
H  H94  1  0.49267942  0.47245775  0.58790851  1  0.063895  0  0.096321  0.111167  0  1.036218  0
H  H95  1  0.99267927  0.02754362  0.91208998  1  0.063988  0  0.0963  0.111171  0  1.036222  0
H  H96  1  0.60182408  0.39650647  0.35213166  1  0.068517  0  0.093061  0.104245  0  1.010673  0
H  H97  1  0.10182195  0.10349149  0.14786841  1  0.068518  0  0.093078  0.104276  0  1.010603  0
H  H98  1  0.39817505  0.60349307  0.64786762  1  0.068616  0  0.093041  0.104176  0  1.01068  0
H  H99  1  0.89817792  0.89650732  0.85213301  1  0.068499  0  0.093101  0.104306  0  1.010585  0
H  H100  1  0.70221980  0.40146563  0.30139719  1  0.060724  0  0.088415  0.098046  0  1.034691  0
H  H101  1  0.20221826  0.09853427  0.19860359  1  0.060705  0  0.088425  0.098036  0  1.034705  0
H  H102  1  0.29777710  0.59853166  0.69860073  1  0.060348  0  0.088417  0.09802  0  1.034776  0
H  H103  1  0.79778309  0.90146528  0.80139706  1  0.060734  0  0.088401  0.098029  0  1.034757  0
H  H104  1  0.72212692  0.44012799  0.44667939  1  0.040154  0  0.088137  0.056709  0  1.006024  0
H  H105  1  0.22212742  0.05987259  0.05332151  1  0.040182  0  0.088133  0.056646  0  1.006128  0
H  H106  1  0.27787220  0.55987454  0.55331913  1  0.040101  0  0.088102  0.056675  0  1.006031  0
H  H107  1  0.77787245  0.94012472  0.94667915  1  0.040157  0  0.088141  0.056703  0  1.006041  0
H  H108  1  0.67830980  0.26386050  0.38948023  1  0.008272  0  0.086664  0.079938  0  0.997069  0
H  H109  1  0.17830969  0.23614020  0.11051892  1  0.008205  0  0.086666  0.079961  0  0.997069  0
H  H110  1  0.32168711  0.73614353  0.61051949  1  0.008251  0  0.086631  0.079907  0  0.997122  0
H  H111  1  0.82168944  0.76385785  0.88948098  1  0.008221  0  0.086624  0.079906  0  0.997078  0
H  H112  1  0.77411642  0.25574078  0.33311189  1  0.000492  0  0.083847  0.084551  0  1.000965  0
H  H113  1  0.27411389  0.24426112  0.16688784  1  0.000592  0  0.083903  0.084599  0  1.00093  0
H  H114  1  0.22588196  0.74426026  0.66688724  1  0.000504  0  0.083899  0.084569  0  1.000958  0
H  H115  1  0.72588523  0.75573767  0.83311175  1  0.000659  0  0.083897  0.084573  0  1.000959  0
H  H116  1  0.83031076  0.18005228  0.41346887  1  0.005817  0  0.085351  0.088093  0  1.000527  0
H  H117  1  0.33031053  0.31994645  0.08652971  1  0.005844  0  0.085362  0.088124  0  1.000503  0
H  H118  1  0.16968615  0.81994876  0.58653026  1  0.005794  0  0.085356  0.088106  0  1.000509  0
H  H119  1  0.66968786  0.68005160  0.91346974  1  0.005812  0  0.085344  0.088081  0  1.000501  0
H  H120  1  0.80203473  0.29013806  0.47732652  1  0.022614  0  0.085797  0.081716  0  0.977933  0
H  H121  1  0.30203570  0.20985853  0.02267303  1  0.022599  0  0.08579  0.081697  0  0.977963  0
H  H122  1  0.19796218  0.70986223  0.52267292  1  0.022523  0  0.08579  0.081693  0  0.977971  0
H  H123  1  0.69796416  0.79013878  0.97732718  1  0.022612  0  0.085794  0.081714  0  0.977926  0
H  H124  1  0.95276817  0.27331743  0.37083698  1  0.036388  0  0.077718  0.045636  0  1.030445  0
H  H125  1  0.45276803  0.22668093  0.12916365  1  0.036385  0  0.077716  0.045636  0  1.030435  0
H  H126  1  0.04722947  0.72668212  0.62916322  1  0.036375  0  0.077744  0.045661  0  1.03045  0
H  H127  1  0.54723184  0.77332011  0.87083684  1  0.036401  0  0.077724  0.045654  0  1.030445  0
H  H128  1  0.90062780  0.45320881  0.48731894  1  0.008711  0  0.086749  0.082987  0  0.989204  0
H  H129  1  0.40062771  0.04678896  0.01268164  1  0.008747  0  0.086733  0.08298  0  0.98921  0
H  H130  1  0.09937059  0.54679147  0.51268004  1  0.008698  0  0.086759  0.082986  0  0.989147  0
H  H131  1  0.59937215  0.95320985  0.98731978  1  0.008692  0  0.086734  0.082956  0  0.989158  0
H  H132  1  0.99806668  0.44825704  0.43263491  1  0.020634  0  0.085694  0.076539  0  1.029143  0
H  H133  1  0.49806641  0.05174118  0.06736609  1  0.020623  0  0.085682  0.076548  0  1.029137  0
H  H134  1  0.00193244  0.55174250  0.56736483  1  0.020538  0  0.08569  0.076529  0  1.029147  0
H  H135  1  0.50193420  0.94825914  0.93263654  1  0.020535  0  0.085693  0.076531  0  1.029175  0
H  H136  1  0.87743914  0.41801662  0.34241543  1  0.003124  0  0.083529  0.076985  0  0.997373  0
H  H137  1  0.37743850  0.08198647  0.15758578  1  0.003087  0  0.083508  0.076908  0  0.997411  0
H  H138  1  0.12256073  0.58198591  0.65758354  1  0.003133  0  0.083542  0.076997  0  0.997393  0
H  H139  1  0.62255988  0.91801608  0.84241593  1  0.003241  0  0.083532  0.076988  0  0.997383  0
H  H140  1  0.84786070  0.52949262  0.40416616  1  0.053295  0  0.083421  0.080265  0  1.0197  0
H  H141  1  0.34786082  0.97050853  0.09583601  1  0.053322  0  0.083445  0.080268  0  1.019669  0
H  H142  1  0.15213916  0.47050916  0.59583312  1  0.053332  0  0.083438  0.080291  0  1.019723  0
H  H143  1  0.65213978  0.02949253  0.90416631  1  0.053301  0  0.083441  0.080277  0  1.019695  0
H  H144  1  0.98314192  0.29360307  0.51283838  1  0.06648  0  0.095096  0.108523  0  0.984976  0
H  H145  1  0.48314436  0.20639611  0.98716196  1  0.066418  0  0.095101  0.108526  0  0.984978  0
H  H146  1  0.01685573  0.70639723  0.48716151  1  0.066397  0  0.09511  0.108535  0  0.984941  0
H  H147  1  0.51685476  0.79360269  0.01283809  1  0.066367  0  0.095096  0.108527  0  0.984871  0
H  H148  1  0.07696079  0.31573839  0.46147273  1  0.070529  0  0.092546  0.10101  0  1.011621  0
H  H149  1  0.57696222  0.18426265  0.03852889  1  0.070501  0  0.092522  0.100978  0  1.01166  0
H  H150  1  0.92303686  0.68426490  0.53852776  1  0.070514  0  0.092559  0.101019  0  1.011598  0
H  H151  1  0.42303690  0.81573690  0.96147176  1  0.070519  0  0.092583  0.101053  0  1.011623  0
H  H152  1  0.16912223  0.05707337  0.45366727  1  0.07743  0  0.095687  0.123676  0  0.988835  0
H  H153  1  0.66912302  0.44292737  0.04633236  1  0.077752  0  0.095712  0.123714  0  0.988796  0
H  H154  1  0.83087690  0.94292842  0.54633247  1  0.077713  0  0.095703  0.123694  0  0.988796  0
H  H155  1  0.33088055  0.55707070  0.95366891  1  0.077745  0  0.095687  0.123699  0  0.988777  0
H  H156  1  0.19930672  0.18452521  0.46645033  1  0.096572  0  0.09311  0.106198  0  1.030991  0
H  H157  1  0.69930786  0.31547542  0.03354879  1  0.096585  0  0.093115  0.106202  0  1.030986  0
H  H158  1  0.80069463  0.81547507  0.53354774  1  0.096625  0  0.093126  0.106215  0  1.031029  0
H  H159  1  0.30069053  0.68452111  0.96644807  1  0.096544  0  0.093117  0.106204  0  1.031023  0
H  H160  1  0.05776141  0.01595679  0.53959677  1  0.05131  0  0.086179  0.083635  0  1.069204  0
H  H161  1  0.55776298  0.48404520  0.96040193  1  0.051713  0  0.086192  0.083647  0  1.069179  0
H  H162  1  0.94223254  0.98404797  0.46040082  1  0.051765  0  0.086185  0.083602  0  1.069276  0
H  H163  1  0.44223614  0.51596109  0.03960007  1  0.051515  0  0.086191  0.083645  0  1.069267  0
H  H164  1  0.03490209  0.05392900  0.65629945  1  0.08445  0  0.074239  0.071272  0  1.113628  0
H  H165  1  0.53490266  0.44607082  0.84369929  1  0.084709  0  0.074277  0.07135  0  1.113604  0
H  H166  1  0.96508816  0.94607800  0.34369904  1  0.084414  0  0.074291  0.071348  0  1.113524  0
H  H167  1  0.46509499  0.55393471  0.15630164  1  0.08506  0  0.074246  0.071265  0  1.113585  0
H  H168  1  0.17485329  0.34047267  0.68866784  1  0.073512  0  0.080446  0.081839  0  1.082038  0
H  H169  1  0.67485242  0.15952597  0.81133232  1  0.073504  0  0.080453  0.081848  0  1.082041  0
H  H170  1  0.82514731  0.65952985  0.31133113  1  0.073544  0  0.080439  0.08188  0  1.082006  0
H  H171  1  0.32514892  0.84048254  0.18866830  1  0.07355  0  0.080486  0.081923  0  1.081987  0
H  H172  1  0.19681623  0.30290800  0.57167558  1  0.048983  0  0.085771  0.079398  0  1.074835  0
H  H173  1  0.69681341  0.19709131  0.92832423  1  0.048994  0  0.085763  0.079388  0  1.074813  0
H  H174  1  0.80318512  0.69709377  0.42832279  1  0.049306  0  0.085778  0.079422  0  1.074816  0
H  H175  1  0.30318497  0.80291421  0.07167579  1  0.049236  0  0.085737  0.079335  0  1.074794  0
H  H176  1  0.12747319  0.29563230  0.77739694  1  0.085212  0  0.086242  0.106806  0  1.022146  0
H  H177  1  0.62747250  0.20436574  0.72260225  1  0.085177  0  0.086242  0.10681  0  1.022182  0
H  H178  1  0.87252667  0.70436873  0.22260127  1  0.085198  0  0.086245  0.106865  0  1.022122  0
H  H179  1  0.37252440  0.79563608  0.27740068  1  0.085095  0  0.086213  0.106756  0  1.022307  0
H  H180  1  0.13066615  0.16492493  0.76790465  1  0.08792  0  0.092418  0.111263  0  1.011305  0
H  H181  1  0.63066660  0.33507310  0.73209453  1  0.087928  0  0.092439  0.111306  0  1.011308  0
H  H182  1  0.86933372  0.83507534  0.23209251  1  0.087827  0  0.092384  0.111268  0  1.011303  0
H  H183  1  0.36933179  0.66492868  0.26790429  1  0.087506  0  0.092415  0.111299  0  1.011321  0
C  C184  1  0.89357568  0.27107660  0.73089248  1  -0.141037  0  -0.15039  -0.208616  0  3.881477  0
C  C185  1  0.39357730  0.22892360  0.76910772  1  -0.140416  0  -0.150371  -0.208589  0  3.881477  0
C  C186  1  0.10642048  0.72892370  0.26910878  1  -0.1408  0  -0.150336  -0.208546  0  3.88146  0
C  C187  1  0.60642257  0.77107372  0.23089385  1  -0.14113  0  -0.150389  -0.208668  0  3.881561  0
C  C188  1  0.91878282  0.37702022  0.73158651  1  0.028595  0  -0.095104  0.033429  0  3.87035  0
C  C189  1  0.41878321  0.12297991  0.76841456  1  0.028535  0  -0.095145  0.033208  0  3.870511  0
C  C190  1  0.08121335  0.62298008  0.26841338  1  0.028444  0  -0.095193  0.033221  0  3.870448  0
C  C191  1  0.58121592  0.87701664  0.23158505  1  0.028614  0  -0.095126  0.033387  0  3.870313  0
C  C192  1  0.89342226  0.45791478  0.79484223  1  -0.043437  0  -0.166855  -0.171742  0  3.917524  0
C  C193  1  0.39342379  0.04208243  0.70515829  1  -0.043139  0  -0.166883  -0.17174  0  3.917573  0
C  C194  1  0.10657390  0.54208552  0.20515857  1  -0.043239  0  -0.166956  -0.171807  0  3.917495  0
C  C195  1  0.60657608  0.95791263  0.29484147  1  -0.043269  0  -0.166906  -0.171779  0  3.917469  0
C  C196  1  0.92124828  0.56195288  0.79216330  1  -0.052123  0  -0.163316  -0.164399  0  3.902946  0
C  C197  1  0.42125255  0.93804669  0.70783760  1  -0.0517  0  -0.163371  -0.164529  0  3.903003  0
C  C198  1  0.07875159  0.43804518  0.20783842  1  -0.052021  0  -0.16333  -0.164486  0  3.90298  0
C  C199  1  0.57874880  0.06195062  0.29216261  1  -0.051682  0  -0.163368  -0.164542  0  3.902818  0
C  C200  1  0.87058606  0.58506409  0.73565704  1  0.051319  0  -0.09675  0.031883  0  3.865509  0
C  C201  1  0.37058946  0.91493640  0.76434547  1  0.051412  0  -0.096726  0.031965  0  3.865483  0
C  C202  1  0.12941529  0.41493845  0.26434376  1  0.051483  0  -0.096728  0.031849  0  3.865655  0
C  C203  1  0.62941336  0.08506090  0.23565473  1  0.051506  0  -0.096698  0.031984  0  3.865395  0
C  C204  1  0.89375596  0.50291753  0.67248192  1  -0.051045  0  -0.170071  -0.17941  0  3.926528  0
C  C205  1  0.39375971  0.99708363  0.82751978  1  -0.051018  0  -0.170025  -0.179336  0  3.926562  0
C  C206  1  0.10624538  0.49708427  0.32751872  1  -0.051021  0  -0.170083  -0.179419  0  3.926489  0
C  C207  1  0.60624312  0.00291443  0.17248103  1  -0.050964  0  -0.170109  -0.17952  0  3.926566  0
C  C208  1  0.86679822  0.39896440  0.67530901  1  0.008088  0  -0.163864  -0.165226  0  3.914573  0
C  C209  1  0.36680070  0.10103739  0.82469199  1  0.008088  0  -0.163815  -0.164993  0  3.914448  0
C  C210  1  0.13320090  0.60103665  0.32469148  1  0.008138  0  -0.163842  -0.165119  0  3.914452  0
C  C211  1  0.63319991  0.89895992  0.17530821  1  0.008107  0  -0.163762  -0.164914  0  3.914393  0
C  C212  1  0.90087784  0.68959800  0.73549264  1  -0.118711  0  -0.149537  -0.216256  0  3.876325  0
C  C213  1  0.40088149  0.81040464  0.76450935  1  -0.118665  0  -0.149497  -0.216233  0  3.876263  0
C  C214  1  0.09912647  0.31040455  0.26450861  1  -0.118827  0  -0.14949  -0.216105  0  3.876088  0
C  C215  1  0.59912133  0.18959193  0.23549117  1  -0.118618  0  -0.149535  -0.216249  0  3.876212  0
C  C216  1  0.71757257  0.73426766  0.68151542  1  -0.148734  0  -0.152733  -0.228884  0  3.878526  0
C  C217  1  0.21757246  0.76573701  0.81848264  1  -0.148577  0  -0.152739  -0.228789  0  3.878476  0
C  C218  1  0.28243321  0.26572740  0.31848388  1  -0.148366  0  -0.152713  -0.228853  0  3.878446  0
C  C219  1  0.78242962  0.23426628  0.18151785  1  -0.148621  0  -0.15282  -0.228906  0  3.878386  0
C  C220  1  0.66897462  0.69860861  0.61677079  1  -0.039814  0  -0.019823  0.119134  0  3.991943  0
C  C221  1  0.16897273  0.80139621  0.88322646  1  -0.039591  0  -0.019899  0.119072  0  3.991402  0
C  C222  1  0.33103634  0.30138121  0.38322702  1  -0.040114  0  -0.019883  0.119131  0  3.991749  0
C  C223  1  0.83103009  0.19860857  0.11677342  1  -0.039641  0  -0.019927  0.119001  0  3.991612  0
C  C224  1  0.64384277  0.76610571  0.58412796  1  -0.102321  0  -0.097297  -0.133306  0  3.980798  0
C  C225  1  0.14383650  0.73389621  0.91587056  1  -0.102443  0  -0.097208  -0.133265  0  3.980934  0
C  C226  1  0.35616671  0.23388634  0.41586847  1  -0.101835  0  -0.09731  -0.133422  0  3.981157  0
C  C227  1  0.85616263  0.26610858  0.08413114  1  -0.102651  0  -0.097298  -0.133374  0  3.980924  0
C  C228  1  0.60581051  0.73211268  0.52186244  1  0.035583  0  -0.095131  -0.134987  0  3.987249  0
C  C229  1  0.10580988  0.76788634  0.97813327  1  0.035515  0  -0.095159  -0.134979  0  3.987452  0
C  C230  1  0.39419749  0.26787713  0.47813536  1  0.035221  0  -0.095122  -0.134861  0  3.987028  0
C  C231  1  0.89419147  0.23211544  0.02186555  1  0.035423  0  -0.095161  -0.134973  0  3.987452  0
C  C232  1  0.59034819  0.62989079  0.49074975  1  -0.015916  0  -0.022657  0.109937  0  4.012152  0
C  C233  1  0.09034882  0.87010817  0.00925138  1  -0.015882  0  -0.022616  0.109986  0  4.012072  0
C  C234  1  0.40965390  0.37010576  0.50924848  1  -0.014692  0  -0.022588  0.109996  0  4.011976  0
C  C235  1  0.90965104  0.12989364  0.99075063  1  -0.014631  0  -0.02257  0.110038  0  4.012165  0
C  C236  1  0.61134797  0.56289044  0.52474459  1  -0.130811  0  -0.098646  -0.14334  0  4.002798  0
C  C237  1  0.11134695  0.93710937  0.97525765  1  -0.130757  0  -0.098621  -0.143252  0  4.002919  0
C  C238  1  0.38865781  0.43710089  0.47525579  1  -0.131841  0  -0.09858  -0.143258  0  4.002839  0
C  C239  1  0.88865439  0.06289318  0.02474497  1  -0.131967  0  -0.098602  -0.143201  0  4.003018  0
C  C240  1  0.65110051  0.59637467  0.58640882  1  0.010432  0  -0.097813  -0.142119  0  3.999477  0
C  C241  1  0.15109606  0.90363250  0.91359575  1  0.010486  0  -0.097831  -0.142264  0  3.999505  0
C  C242  1  0.34890749  0.40361888  0.41358927  1  0.01038  0  -0.097783  -0.142095  0  3.999337  0
C  C243  1  0.84890528  0.09637305  0.08640701  1  0.010286  0  -0.097717  -0.142048  0  3.999516  0
C  C244  1  0.55466856  0.59404824  0.42257012  1  -0.115756  0  -0.147642  -0.236526  0  3.910848  0
C  C245  1  0.05467333  0.90594858  0.07742972  1  -0.115887  0  -0.147625  -0.236452  0  3.910674  0
C  C246  1  0.44533131  0.40594907  0.57743054  1  -0.115958  0  -0.147697  -0.236537  0  3.910716  0
C  C247  1  0.94532802  0.09405247  0.92257077  1  -0.115721  0  -0.147616  -0.236457  0  3.910706  0
C  C248  1  0.67499114  0.43031479  0.35121648  1  -0.132979  0  -0.15295  -0.217764  0  3.877946  0
C  C249  1  0.17499131  0.06968517  0.14878299  1  -0.132885  0  -0.152995  -0.2178  0  3.87782  0
C  C250  1  0.32500724  0.56968399  0.64878129  1  -0.132641  0  -0.152924  -0.217644  0  3.878011  0
C  C251  1  0.82500930  0.93031438  0.85121767  1  -0.132926  0  -0.152962  -0.217785  0  3.877901  0
C  C252  1  0.74815450  0.40587512  0.39703752  1  -0.006772  0  -0.098955  0.030019  0  3.883755  0
C  C253  1  0.24815476  0.09412462  0.10296273  1  -0.006844  0  -0.098945  0.030043  0  3.883797  0
C  C254  1  0.25184388  0.59412591  0.60296115  1  -0.006845  0  -0.098941  0.030056  0  3.883893  0
C  C255  1  0.75184511  0.90587343  0.89703763  1  -0.006861  0  -0.098973  0.030041  0  3.883813  0
C  C256  1  0.75248049  0.29219253  0.38365386  1  -0.008102  0  -0.164348  -0.165383  0  3.902778  0
C  C257  1  0.25247895  0.20780870  0.11634622  1  -0.008149  0  -0.164392  -0.165434  0  3.902731  0
C  C258  1  0.24751864  0.70780926  0.61634587  1  -0.008115  0  -0.164347  -0.165347  0  3.902812  0
C  C259  1  0.74751944  0.79219010  0.88365338  1  -0.00814  0  -0.164348  -0.165395  0  3.90283  0
C  C260  1  0.82678134  0.26217681  0.42680182  1  -0.014792  0  -0.167292  -0.177325  0  3.923163  0
C  C261  1  0.32678061  0.23782193  0.07319768  1  -0.014772  0  -0.167323  -0.17737  0  3.92318  0
C  C262  1  0.17321630  0.73782422  0.57319777  1  -0.014655  0  -0.167342  -0.177369  0  3.92328  0
C  C263  1  0.67321704  0.76217686  0.92680192  1  -0.014763  0  -0.167299  -0.177322  0  3.923195  0
C  C264  1  0.92930621  0.30501929  0.42149314  1  -0.004276  0  -0.09821  0.034056  0  3.883824  0
C  C265  1  0.42930778  0.19497913  0.07850617  1  -0.004333  0  -0.098197  0.034025  0  3.884017  0
C  C266  1  0.07069143  0.69498025  0.57850615  1  -0.004172  0  -0.098231  0.033926  0  3.884114  0
C  C267  1  0.57069208  0.80502117  0.92149418  1  -0.004374  0  -0.098192  0.034039  0  3.884009  0
C  C268  1  0.92404835  0.41875086  0.43695366  1  -0.009758  0  -0.166605  -0.174982  0  3.918739  0
C  C269  1  0.42404802  0.08124908  0.06304686  1  -0.009779  0  -0.166586  -0.175034  0  3.918744  0
C  C270  1  0.07595078  0.58125018  0.56304592  1  -0.009741  0  -0.166602  -0.174912  0  3.918725  0
C  C271  1  0.57595037  0.91875122  0.93695440  1  -0.009699  0  -0.166613  -0.174969  0  3.918697  0
C  C272  1  0.85131764  0.44763625  0.39260799  1  -0.042039  0  -0.169092  -0.172416  0  3.925601  0
C  C273  1  0.35131723  0.05236543  0.10739343  1  -0.042048  0  -0.16909  -0.172264  0  3.925562  0
C  C274  1  0.14868223  0.55236479  0.60739114  1  -0.042043  0  -0.169102  -0.172468  0  3.92571  0
C  C275  1  0.64868189  0.94763563  0.89260798  1  -0.042131  0  -0.16909  -0.172402  0  3.925574  0
C  C276  1  0.00730232  0.27593189  0.46258070  1  -0.140403  0  -0.150376  -0.216631  0  3.88456  0
C  C277  1  0.50730293  0.22406787  0.03741984  1  -0.14026  0  -0.150331  -0.216585  0  3.884575  0
C  C278  1  0.99269606  0.72406915  0.53741934  1  -0.140259  0  -0.150347  -0.216557  0  3.884462  0
C  C279  1  0.49269620  0.77593168  0.96257990  1  -0.140198  0  -0.150392  -0.216667  0  3.884548  0
C  C280  1  0.14391484  0.13440528  0.47639441  1  -0.111895  0  -0.150686  -0.232421  0  3.918616  0
C  C281  1  0.64391441  0.36559553  0.02360527  1  -0.112213  0  -0.150741  -0.232475  0  3.918616  0
C  C282  1  0.85608503  0.86559649  0.52360396  1  -0.112529  0  -0.150742  -0.232456  0  3.918639  0
C  C283  1  0.35608546  0.63440477  0.97639508  1  -0.112192  0  -0.1507  -0.232461  0  3.918603  0
C  C284  1  0.12734282  0.15758459  0.54699854  1  -0.013893  0  -0.022074  0.120399  0  3.997974  0
C  C285  1  0.62734328  0.34241569  0.95300064  1  -0.01386  0  -0.022028  0.120467  0  3.997958  0
C  C286  1  0.87265704  0.84241644  0.45300014  1  -0.013521  0  -0.022043  0.120488  0  3.997986  0
C  C287  1  0.37265585  0.65758834  0.04699908  1  -0.01384  0  -0.022035  0.120453  0  3.997783  0
C  C288  1  0.08196787  0.08824211  0.57190021  1  -0.06661  0  -0.10098  -0.135597  0  3.984829  0
C  C289  1  0.58196825  0.41175831  0.92809905  1  -0.06701  0  -0.101016  -0.135655  0  3.984981  0
C  C290  1  0.91802756  0.91176116  0.42809845  1  -0.066975  0  -0.101038  -0.135642  0  3.985072  0
C  C291  1  0.41802940  0.58824648  0.07190310  1  -0.06659  0  -0.100992  -0.135569  0  3.985055  0
C  C292  1  0.06950648  0.10913289  0.63771640  1  -0.033124  0  -0.100765  -0.127136  0  3.98625  0
C  C293  1  0.56950638  0.39086757  0.86228288  1  -0.033394  0  -0.10078  -0.127217  0  3.986344  0
C  C294  1  0.93048821  0.89087187  0.36228164  1  -0.033089  0  -0.100798  -0.12723  0  3.986337  0
C  C295  1  0.43049053  0.60913945  0.13771744  1  -0.033539  0  -0.100768  -0.127193  0  3.986401  0
C  C296  1  0.10262268  0.20013269  0.68075797  1  -0.039702  0  -0.019483  0.116616  0  3.971898  0
C  C297  1  0.60262293  0.29986617  0.81924096  1  -0.039642  0  -0.019462  0.11672  0  3.971797  0
C  C298  1  0.89737423  0.79987058  0.31924069  1  -0.040194  0  -0.019412  0.116732  0  3.971977  0
C  C299  1  0.39737471  0.70014011  0.18076058  1  -0.039767  0  -0.01942  0.116771  0  3.971823  0
C  C300  1  0.14730242  0.26978940  0.65591214  1  -0.030867  0  -0.099709  -0.136506  0  3.990874  0
C  C301  1  0.64730054  0.23021007  0.84408777  1  -0.030934  0  -0.099722  -0.136584  0  3.990879  0
C  C302  1  0.85269892  0.73021312  0.34408638  1  -0.030305  0  -0.099715  -0.136586  0  3.990944  0
C  C303  1  0.35269859  0.76979619  0.15591149  1  -0.031019  0  -0.099792  -0.136729  0  3.991027  0
C  C304  1  0.15941251  0.24867583  0.58982188  1  -0.098039  0  -0.103968  -0.143634  0  4.006055  0
C  C305  1  0.65941111  0.25132285  0.91017694  1  -0.098044  0  -0.10399  -0.143618  0  4.005944  0
C  C306  1  0.84058735  0.75132519  0.41017634  1  -0.098515  0  -0.103988  -0.143673  0  4.005911  0
C  C307  1  0.34058654  0.74868193  0.08982339  1  -0.098442  0  -0.103977  -0.143569  0  4.005895  0
C  C308  1  0.09381409  0.22285012  0.75209827  1  -0.159405  0  -0.149379  -0.221318  0  3.89211  0
C  C309  1  0.59381314  0.27714877  0.74790113  1  -0.159417  0  -0.149437  -0.221444  0  3.892176  0
C  C310  1  0.90618504  0.77715240  0.24790024  1  -0.159443  0  -0.149396  -0.221454  0  3.892089  0
C  C311  1  0.40618229  0.72285378  0.25210012  1  -0.159003  0  -0.14937  -0.221317  0  3.892259  0
S  S312  1  0.96769756  0.22278950  0.78369629  1  -0.03296  0  -0.046877  0.048592  0  3.123847  0
S  S313  1  0.46769627  0.27720971  0.71630363  1  -0.032949  0  -0.04688  0.048616  0  3.123884  0
S  S314  1  0.03230378  0.77721303  0.21630405  1  -0.033027  0  -0.046885  0.048605  0  3.123798  0
S  S315  1  0.53230211  0.72278834  0.28369673  1  -0.032972  0  -0.046895  0.048516  0  3.123863  0
S  S316  1  0.85232861  0.72900568  0.66977038  1  -0.036486  0  -0.02866  0.066337  0  3.189414  0
S  S317  1  0.35232770  0.77099487  0.83023171  1  -0.036635  0  -0.028674  0.066261  0  3.189384  0
S  S318  1  0.14767792  0.27099462  0.33023088  1  -0.03672  0  -0.028653  0.066291  0  3.189423  0
S  S319  1  0.64767364  0.22900394  0.16976880  1  -0.036915  0  -0.028656  0.066322  0  3.18935  0
S  S320  1  0.65448525  0.56241322  0.36275218  1  0.011718  0  -0.020943  0.088648  0  3.136807  0
S  S321  1  0.15448827  0.93758477  0.13724732  1  0.011757  0  -0.020925  0.088649  0  3.136722  0
S  S322  1  0.34551240  0.43758556  0.63724605  1  0.011665  0  -0.020918  0.088667  0  3.136797  0
S  S323  1  0.84551160  0.06241404  0.86275364  1  0.011583  0  -0.020959  0.088601  0  3.136798  0
S  S324  1  0.03281598  0.14226836  0.43098900  1  -0.025407  0  -0.018412  0.083821  0  3.123399  0
S  S325  1  0.53281616  0.35773131  0.06901059  1  -0.025415  0  -0.018406  0.083857  0  3.123439  0
S  S326  1  0.96718462  0.85773342  0.56900982  1  -0.025387  0  -0.018431  0.083775  0  3.12345  0
S  S327  1  0.46718370  0.64226824  0.93098916  1  -0.025406  0  -0.018417  0.083818  0  3.123436  0
I  I328  1  0.06637983  0.93756284  0.74821584  1  -0.480579  0  -0.204142  -0.36039  0  1.868422  0
I  I329  1  0.56638161  0.56243634  0.75178314  1  -0.480592  0  -0.204128  -0.360365  0  1.868415  0
I  I330  1  0.93361781  0.06244271  0.25178647  1  -0.480624  0  -0.204134  -0.360381  0  1.868431  0
I  I331  1  0.43361826  0.43756019  0.24821418  1  -0.480603  0  -0.20414  -0.360382  0  1.868441  0
I  I332  1  0.76383739  0.01416210  0.69002053  1  -0.480318  0  -0.215398  -0.366542  0  1.838086  0
I  I333  1  0.26383678  0.48584000  0.80998021  1  -0.480341  0  -0.21541  -0.36656  0  1.838071  0
I  I334  1  0.23616100  0.98583524  0.30998333  1  -0.480407  0  -0.215406  -0.366553  0  1.83805  0
I  I335  1  0.73615865  0.51416250  0.19001602  1  -0.48033  0  -0.215401  -0.366557  0  1.838033  0
