# generated using pymatgen
data_AgH9C10SN5ClO3
_symmetry_space_group_name_H-M   'P 1'
_cell_length_a   8.65631746
_cell_length_b   12.24973458
_cell_length_c   13.69552453
_cell_angle_alpha   89.99984049
_cell_angle_beta   90.00015603
_cell_angle_gamma   102.70131451
_symmetry_Int_Tables_number   1
_chemical_formula_structural   AgH9C10SN5ClO3
_chemical_formula_sum   'Ag4 H36 C40 S4 N20 Cl4 O12'
_cell_volume   1416.70338312
_cell_formula_units_Z   4
loop_
 _symmetry_equiv_pos_site_id
 _symmetry_equiv_pos_as_xyz
  1  'x, y, z'
loop_
 _atom_site_type_symbol
 _atom_site_label
 _atom_site_symmetry_multiplicity
 _atom_site_fract_x
 _atom_site_fract_y
 _atom_site_fract_z
 _atom_site_occupancy
 _atom_site_hle17_bader_spin_density
 _atom_site_hle17_ddec_charge
 _atom_site_hle17_ddec_spin_density
 _atom_site_hle17_ddec_sum_bond_order
 _atom_site_hle17_magmom
 _atom_site_hse06_10hf_bader_spin_density
 _atom_site_hse06_10hf_ddec_charge
 _atom_site_hse06_10hf_ddec_spin_density
 _atom_site_hse06_10hf_ddec_sum_bond_order
 _atom_site_hse06_10hf_magmom
 _atom_site_hse06_bader_spin_density
 _atom_site_hse06_ddec_charge
 _atom_site_hse06_ddec_spin_density
 _atom_site_hse06_ddec_sum_bond_order
 _atom_site_hse06_magmom
 _atom_site_pbe_bader_spin_density
 _atom_site_pbe_cm5_charge
 _atom_site_pbe_ddec_charge
 _atom_site_pbe_ddec_spin_density
 _atom_site_pbe_ddec_sum_bond_order
 _atom_site_pbe_magmom
Ag  Ag0  1  0.77777686  0.92930987  0.78609938  1  0  0.580997  0  1.330798  0  0  0.467223  0  1.757073  0  0  0.493127  0  1.712091  0  0  0.45508  0.449048  0  1.788417  0
Ag  Ag1  1  0.72222741  0.07069163  0.28609838  1  0  0.580945  0  1.330824  0  0  0.467143  0  1.757086  0  0  0.493053  0  1.712106  0  0  0.45507  0.448977  0  1.788425  0
Ag  Ag2  1  0.22222509  0.07068837  0.21390210  1  0  0.581008  0  1.330748  0  0  0.467216  0  1.757012  0  0  0.493125  0  1.712031  0  0  0.455095  0.449049  0  1.788357  0
Ag  Ag3  1  0.27777763  0.92930913  0.71389872  1  0  0.581002  0  1.33078  0  0  0.467222  0  1.757069  0  0  0.493129  0  1.712084  0  0  0.455095  0.449054  0  1.788412  0
H  H4  1  0.80173708  0.80494308  0.21943269  1  0  0.115778  0  0.961297  0  0  0.121448  0  1.0297  0  0  0.124459  0  1.027775  0  0  0.105556  0.119226  0  1.031207  0
H  H5  1  0.69825951  0.19505691  0.71943246  1  0  0.11581  0  0.961266  0  0  0.121488  0  1.029654  0  0  0.124498  0  1.027731  0  0  0.105567  0.119265  0  1.031164  0
H  H6  1  0.19825935  0.19505599  0.78056660  1  0  0.115795  0  0.961252  0  0  0.12145  0  1.02968  0  0  0.12446  0  1.027758  0  0  0.105549  0.119228  0  1.031182  0
H  H7  1  0.30174000  0.80494468  0.28056536  1  0  0.115836  0  0.961198  0  0  0.121486  0  1.02964  0  0  0.124497  0  1.027715  0  0  0.105557  0.119257  0  1.031149  0
H  H8  1  0.80088713  0.70427320  0.37786924  1  0  0.118432  0  0.960787  0  0  0.121257  0  1.03253  0  0  0.124736  0  1.030295  0  0  0.103452  0.11876  0  1.03418  0
H  H9  1  0.69911002  0.29572639  0.87786731  1  0  0.118428  0  0.960781  0  0  0.121262  0  1.032526  0  0  0.124743  0  1.030291  0  0  0.103455  0.118761  0  1.034174  0
H  H10  1  0.19911213  0.29572755  0.62213005  1  0  0.118445  0  0.960777  0  0  0.121259  0  1.032515  0  0  0.12474  0  1.030281  0  0  0.103443  0.118763  0  1.034164  0
H  H11  1  0.30088898  0.70427353  0.12212979  1  0  0.118497  0  0.960714  0  0  0.121291  0  1.032477  0  0  0.124771  0  1.030241  0  0  0.103454  0.11879  0  1.034126  0
H  H12  1  0.55494508  0.39798345  0.23997035  1  0  0.108199  0  0.960173  0  0  0.120229  0  1.020672  0  0  0.122148  0  1.020529  0  0  0.105651  0.118841  0  1.02086  0
H  H13  1  0.94505647  0.60201733  0.73997026  1  0  0.108115  0  0.960203  0  0  0.1202  0  1.02065  0  0  0.122118  0  1.020507  0  0  0.105647  0.118814  0  1.020837  0
H  H14  1  0.44505482  0.60201563  0.76003040  1  0  0.108135  0  0.960219  0  0  0.120221  0  1.020654  0  0  0.122139  0  1.020512  0  0  0.105652  0.118832  0  1.020841  0
H  H15  1  0.05494652  0.39798426  0.26003267  1  0  0.108164  0  0.960186  0  0  0.120239  0  1.020636  0  0  0.122158  0  1.020494  0  0  0.105664  0.118854  0  1.020824  0
H  H16  1  0.56610270  0.49631046  0.08127679  1  0  0.10389  0  0.983365  0  0  0.102849  0  1.0659  0  0  0.106271  0  1.063133  0  0  0.101896  0.100348  0  1.067994  0
H  H17  1  0.93389713  0.50369073  0.58127547  1  0  0.103864  0  0.983373  0  0  0.102825  0  1.065903  0  0  0.106247  0  1.063136  0  0  0.101879  0.100325  0  1.067997  0
H  H18  1  0.43389553  0.50368695  0.91872542  1  0  0.103905  0  0.983351  0  0  0.102873  0  1.065901  0  0  0.106299  0  1.063124  0  0  0.101885  0.100368  0  1.067999  0
H  H19  1  0.06610521  0.49631253  0.41872601  1  0  0.103844  0  0.983406  0  0  0.1028  0  1.065949  0  0  0.106226  0  1.063172  0  0  0.101868  0.100297  0  1.068052  0
H  H20  1  0.04220118  0.95618436  0.91176385  1  0  0.08741  0  0.989771  0  0  0.092682  0  1.072733  0  0  0.094741  0  1.070746  0  0  0.088405  0.091104  0  1.07427  0
H  H21  1  0.45779915  0.04381765  0.41176259  1  0  0.087441  0  0.989822  0  0  0.092667  0  1.072824  0  0  0.094736  0  1.070831  0  0  0.08839  0.091086  0  1.074361  0
H  H22  1  0.95779718  0.04381723  0.08823836  1  0  0.08744  0  0.989817  0  0  0.09266  0  1.07283  0  0  0.09473  0  1.070836  0  0  0.088387  0.091081  0  1.074367  0
H  H23  1  0.54220268  0.95618395  0.58823670  1  0  0.087416  0  0.989837  0  0  0.092676  0  1.072805  0  0  0.094731  0  1.07082  0  0  0.088405  0.091096  0  1.074343  0
H  H24  1  0.21472298  0.92412613  0.96426878  1  0  0.135286  0  0.939523  0  0  0.150588  0  0.993397  0  0  0.15239  0  0.992908  0  0  0.109624  0.149166  0  0.993988  0
H  H25  1  0.28527676  0.07587324  0.46426715  1  0  0.135271  0  0.939561  0  0  0.150579  0  0.993417  0  0  0.15238  0  0.992929  0  0  0.109633  0.149151  0  0.994012  0
H  H26  1  0.78527718  0.07587379  0.03573196  1  0  0.135281  0  0.939537  0  0  0.150571  0  0.993417  0  0  0.152373  0  0.992928  0  0  0.109619  0.149144  0  0.99401  0
H  H27  1  0.71472570  0.92412668  0.53573141  1  0  0.135259  0  0.939517  0  0  0.150563  0  0.993386  0  0  0.152364  0  0.992895  0  0  0.10962  0.14914  0  0.993979  0
H  H28  1  0.98653240  0.77249639  0.81975016  1  0  0.071058  0  0.974143  0  0  0.07833  0  1.047235  0  0  0.080694  0  1.045938  0  0  0.091224  0.076536  0  1.048437  0
H  H29  1  0.51346879  0.22750586  0.31974987  1  0  0.071048  0  0.974147  0  0  0.078302  0  1.047257  0  0  0.080665  0  1.045959  0  0  0.091218  0.07651  0  1.048454  0
H  H30  1  0.01346827  0.22750520  0.18024985  1  0  0.071045  0  0.974158  0  0  0.078312  0  1.047258  0  0  0.080677  0  1.045959  0  0  0.091219  0.076518  0  1.048464  0
H  H31  1  0.48653304  0.77249573  0.68025015  1  0  0.071055  0  0.974157  0  0  0.078323  0  1.047255  0  0  0.080687  0  1.045957  0  0  0.09122  0.076528  0  1.048457  0
H  H32  1  0.33689642  0.78517992  0.87654770  1  0  0.138449  0  0.986707  0  0  0.142991  0  1.056925  0  0  0.146464  0  1.05524  0  0  0.096529  0.140448  0  1.058258  0
H  H33  1  0.16310494  0.21482218  0.37654697  1  0  0.138437  0  0.986721  0  0  0.142983  0  1.056944  0  0  0.146462  0  1.055255  0  0  0.096543  0.140443  0  1.058279  0
H  H34  1  0.66310309  0.21482167  0.12345231  1  0  0.13845  0  0.986683  0  0  0.143001  0  1.056894  0  0  0.146481  0  1.055207  0  0  0.096536  0.140458  0  1.05823  0
H  H35  1  0.83689663  0.78517858  0.62345232  1  0  0.138438  0  0.986689  0  0  0.142969  0  1.056926  0  0  0.146443  0  1.05524  0  0  0.096531  0.140428  0  1.05826  0
H  H36  1  0.21714752  0.69592898  0.78167803  1  0  0.124783  0  0.96732  0  0  0.135662  0  1.030347  0  0  0.138246  0  1.030042  0  0  0.092734  0.133808  0  1.030684  0
H  H37  1  0.28285235  0.30407336  0.28167655  1  0  0.124735  0  0.967387  0  0  0.135646  0  1.030391  0  0  0.138231  0  1.030084  0  0  0.092757  0.133795  0  1.030726  0
H  H38  1  0.78285110  0.30407344  0.21832125  1  0  0.124772  0  0.96739  0  0  0.135638  0  1.030439  0  0  0.138223  0  1.030133  0  0  0.092753  0.133784  0  1.030775  0
H  H39  1  0.71714947  0.69592823  0.71832346  1  0  0.124791  0  0.967365  0  0  0.135655  0  1.030416  0  0  0.138241  0  1.030108  0  0  0.092749  0.133802  0  1.030751  0
C  C40  1  0.68660115  0.65571251  0.14143649  1  0  0.155605  0  3.778537  0  0  0.144825  0  4.030141  0  0  0.148537  0  4.052167  0  0  0.088605  0.142271  0  4.015318  0
C  C41  1  0.81339401  0.34428768  0.64143463  1  0  0.155722  0  3.778405  0  0  0.144959  0  4.029985  0  0  0.148671  0  4.052012  0  0  0.088702  0.142399  0  4.015169  0
C  C42  1  0.31339476  0.34428489  0.85856353  1  0  0.155631  0  3.778556  0  0  0.144863  0  4.030166  0  0  0.148573  0  4.052196  0  0  0.088646  0.14231  0  4.015343  0
C  C43  1  0.18660512  0.65571641  0.35856465  1  0  0.155526  0  3.778646  0  0  0.144761  0  4.030246  0  0  0.148471  0  4.052274  0  0  0.088627  0.142213  0  4.015417  0
C  C44  1  0.75323736  0.71513110  0.22381886  1  0  -0.1123  0  3.708961  0  0  -0.13245  0  3.961338  0  0  -0.134372  0  3.981255  0  0  -0.085586  -0.131107  0  3.947974  0
C  C45  1  0.74675835  0.28486972  0.72381704  1  0  -0.112426  0  3.709003  0  0  -0.132579  0  3.961383  0  0  -0.134502  0  3.981307  0  0  -0.085635  -0.131234  0  3.948015  0
C  C46  1  0.24676138  0.28486798  0.77618262  1  0  -0.112345  0  3.708947  0  0  -0.132504  0  3.961356  0  0  -0.134425  0  3.98128  0  0  -0.085628  -0.131156  0  3.947985  0
C  C47  1  0.25323796  0.71513271  0.27618079  1  0  -0.112344  0  3.708952  0  0  -0.1325  0  3.961335  0  0  -0.134421  0  3.981254  0  0  -0.085594  -0.131151  0  3.947964  0
C  C48  1  0.75061181  0.65928370  0.31266036  1  0  -0.115522  0  3.740562  0  0  -0.138306  0  3.990504  0  0  -0.141925  0  4.012526  0  0  -0.09394  -0.135824  0  3.975703  0
C  C49  1  0.74938600  0.34071522  0.81265913  1  0  -0.115433  0  3.740436  0  0  -0.138236  0  3.990359  0  0  -0.141843  0  4.012345  0  0  -0.093911  -0.135749  0  3.975546  0
C  C50  1  0.24938667  0.34071454  0.68733893  1  0  -0.115513  0  3.74045  0  0  -0.138268  0  3.990407  0  0  -0.141871  0  4.012385  0  0  -0.093884  -0.135784  0  3.975604  0
C  C51  1  0.25061069  0.65928470  0.18733943  1  0  -0.115607  0  3.740587  0  0  -0.138334  0  3.990502  0  0  -0.141948  0  4.012509  0  0  -0.093924  -0.135848  0  3.97569  0
C  C52  1  0.67865289  0.54559214  0.31762191  1  0  0.140496  0  3.794623  0  0  0.156132  0  4.049662  0  0  0.159362  0  4.071428  0  0  0.015884  0.153748  0  4.035026  0
C  C53  1  0.82134982  0.45440761  0.81761979  1  0  0.140486  0  3.794496  0  0  0.15614  0  4.049517  0  0  0.159371  0  4.071287  0  0  0.01589  0.153759  0  4.034875  0
C  C54  1  0.32135048  0.45440695  0.68237956  1  0  0.140543  0  3.794514  0  0  0.156175  0  4.049559  0  0  0.159408  0  4.071331  0  0  0.015902  0.153794  0  4.034919  0
C  C55  1  0.17865085  0.54559398  0.18237949  1  0  0.140544  0  3.794553  0  0  0.156185  0  4.049578  0  0  0.159417  0  4.071346  0  0  0.015902  0.153807  0  4.034932  0
C  C56  1  0.61108749  0.48646076  0.23524246  1  0  -0.11925  0  3.743543  0  0  -0.135884  0  3.979199  0  0  -0.139456  0  4.001567  0  0  -0.093221  -0.133407  0  3.964091  0
C  C57  1  0.88891352  0.51353836  0.73524177  1  0  -0.119203  0  3.7436  0  0  -0.135896  0  3.979251  0  0  -0.139469  0  4.001622  0  0  -0.093242  -0.133426  0  3.964147  0
C  C58  1  0.38891446  0.51353749  0.76475828  1  0  -0.119237  0  3.743553  0  0  -0.135935  0  3.979254  0  0  -0.139509  0  4.001627  0  0  -0.093249  -0.133455  0  3.96414  0
C  C59  1  0.11108715  0.48646323  0.26475970  1  0  -0.119334  0  3.743633  0  0  -0.136037  0  3.979346  0  0  -0.139609  0  4.001715  0  0  -0.093318  -0.133563  0  3.964241  0
C  C60  1  0.61608804  0.54173448  0.14627319  1  0  -0.110103  0  3.729146  0  0  -0.13278  0  3.984869  0  0  -0.134803  0  4.004973  0  0  -0.085648  -0.131355  0  3.971329  0
C  C61  1  0.88391254  0.45826821  0.64627263  1  0  -0.110118  0  3.729104  0  0  -0.132795  0  3.984824  0  0  -0.13482  0  4.00493  0  0  -0.085643  -0.131369  0  3.971287  0
C  C62  1  0.38391302  0.45826460  0.85372756  1  0  -0.110112  0  3.7291  0  0  -0.132806  0  3.984808  0  0  -0.134829  0  4.004918  0  0  -0.085624  -0.131381  0  3.971264  0
C  C63  1  0.11608839  0.54173421  0.35372812  1  0  -0.10998  0  3.729221  0  0  -0.132655  0  3.98493  0  0  -0.134677  0  4.005037  0  0  -0.085597  -0.131231  0  3.971391  0
C  C64  1  0.80046805  0.78657405  0.00364251  1  0  0.231664  0  3.765939  0  0  0.194948  0  4.067897  0  0  0.211935  0  4.079303  0  0  0.232389  0.183553  0  4.060049  0
C  C65  1  0.69953163  0.21342399  0.50364370  1  0  0.231534  0  3.766071  0  0  0.194828  0  4.068026  0  0  0.211813  0  4.079433  0  0  0.232332  0.183449  0  4.060158  0
C  C66  1  0.19953184  0.21342503  0.99635751  1  0  0.231536  0  3.766028  0  0  0.19484  0  4.067961  0  0  0.211826  0  4.079368  0  0  0.232349  0.183459  0  4.060098  0
C  C67  1  0.30046737  0.78657593  0.49635705  1  0  0.231523  0  3.766048  0  0  0.194817  0  4.068001  0  0  0.211803  0  4.079409  0  0  0.232355  0.183437  0  4.060136  0
C  C68  1  0.09579419  0.88766506  0.93649907  1  0  -0.156258  0  3.645286  0  0  -0.186733  0  3.882987  0  0  -0.18647  0  3.893649  0  0  -0.14881  -0.186751  0  3.875762  0
C  C69  1  0.40420340  0.11233521  0.43649755  1  0  -0.156275  0  3.645538  0  0  -0.18666  0  3.88307  0  0  -0.186408  0  3.893726  0  0  -0.14878  -0.186673  0  3.875838  0
C  C70  1  0.90420507  0.11233569  0.06350241  1  0  -0.156277  0  3.645523  0  0  -0.186649  0  3.883061  0  0  -0.186397  0  3.893718  0  0  -0.148766  -0.186668  0  3.875836  0
C  C71  1  0.59579791  0.88766471  0.56350174  1  0  -0.156247  0  3.645478  0  0  -0.186644  0  3.883009  0  0  -0.186377  0  3.893676  0  0  -0.148771  -0.186663  0  3.875781  0
C  C72  1  0.09783412  0.80278255  0.85871245  1  0  0.000177  0  3.77292  0  0  -0.006579  0  4.03003  0  0  -0.006729  0  4.049983  0  0  -0.105783  -0.006663  0  4.016679  0
C  C73  1  0.40216718  0.19721960  0.35871071  1  0  0.000114  0  3.772946  0  0  -0.006649  0  4.030067  0  0  -0.006801  0  4.050024  0  0  -0.105806  -0.006731  0  4.016709  0
C  C74  1  0.90216540  0.19721904  0.14128829  1  0  0.00014  0  3.772926  0  0  -0.006628  0  4.030027  0  0  -0.006777  0  4.049983  0  0  -0.105795  -0.006713  0  4.016684  0
C  C75  1  0.59783465  0.80278200  0.64128930  1  0  0.00014  0  3.773056  0  0  -0.006635  0  4.030159  0  0  -0.006786  0  4.050112  0  0  -0.105784  -0.006719  0  4.016807  0
C  C76  1  0.22542376  0.76139769  0.83666600  1  0  -0.280786  0  3.636665  0  0  -0.3187  0  3.888198  0  0  -0.32319  0  3.900992  0  0  -0.191445  -0.3156  0  3.87967  0
C  C77  1  0.27457631  0.23860451  0.33666613  1  0  -0.280657  0  3.63662  0  0  -0.318612  0  3.888136  0  0  -0.323108  0  3.900928  0  0  -0.191449  -0.315525  0  3.879631  0
C  C78  1  0.77457460  0.23860390  0.16333329  1  0  -0.280722  0  3.636666  0  0  -0.318642  0  3.888188  0  0  -0.323142  0  3.900984  0  0  -0.191459  -0.31554  0  3.879662  0
C  C79  1  0.72542436  0.76139708  0.66333462  1  0  -0.280725  0  3.636711  0  0  -0.318634  0  3.888266  0  0  -0.323125  0  3.90106  0  0  -0.191444  -0.315532  0  3.879738  0
S  S80  1  0.99143424  0.82774325  0.04724665  1  0  0.067152  0  2.361867  0  0  0.063086  0  2.705405  0  0  0.059205  0  2.701456  0  0  0.071134  0.065819  0  2.708262  0
S  S81  1  0.50856418  0.17225385  0.54724615  1  0  0.067135  0  2.36196  0  0  0.063047  0  2.705467  0  0  0.059162  0  2.701522  0  0  0.071111  0.065774  0  2.708319  0
S  S82  1  0.00856399  0.17225416  0.95275410  1  0  0.067146  0  2.361962  0  0  0.063057  0  2.705448  0  0  0.059174  0  2.701504  0  0  0.071122  0.065783  0  2.708307  0
S  S83  1  0.49143571  0.82774524  0.45275460  1  0  0.067132  0  2.361925  0  0  0.063039  0  2.705439  0  0  0.059157  0  2.701491  0  0  0.071092  0.065768  0  2.708297  0
N  N84  1  0.68482478  0.71142718  0.05062500  1  0  -0.050124  0  3.568929  0  0  0.028758  0  3.793682  0  0  0.015519  0  3.816204  0  0  -0.109833  0.037313  0  3.778684  0
N  N85  1  0.81517122  0.28857325  0.55062475  1  0  -0.050095  0  3.568995  0  0  0.028759  0  3.793775  0  0  0.015524  0  3.816294  0  0  -0.109911  0.03731  0  3.778777  0
N  N86  1  0.31517255  0.28857106  0.94937501  1  0  -0.050074  0  3.568987  0  0  0.028798  0  3.79374  0  0  0.01556  0  3.816261  0  0  -0.109863  0.03735  0  3.778739  0
N  N87  1  0.18482765  0.71143001  0.44937381  1  0  -0.050018  0  3.569026  0  0  0.02885  0  3.793786  0  0  0.015614  0  3.816307  0  0  -0.109863  0.037391  0  3.778793  0
N  N88  1  0.55155848  0.69180327  0.99450552  1  0  -0.068006  0  2.865639  0  0  -0.072274  0  3.158218  0  0  -0.06906  0  3.165675  0  0  -0.05947  -0.074295  0  3.153246  0
N  N89  1  0.94843959  0.30819769  0.49450796  1  0  -0.068102  0  2.865626  0  0  -0.07236  0  3.158212  0  0  -0.069149  0  3.16567  0  0  -0.059494  -0.074376  0  3.15324  0
N  N90  1  0.44844026  0.30819581  0.00549377  1  0  -0.068007  0  2.865609  0  0  -0.072276  0  3.158202  0  0  -0.069064  0  3.165661  0  0  -0.059471  -0.074292  0  3.153229  0
N  N91  1  0.05155993  0.69180390  0.50549205  1  0  -0.068041  0  2.865537  0  0  -0.072303  0  3.158121  0  0  -0.069091  0  3.16558  0  0  -0.059493  -0.074314  0  3.153142  0
N  N92  1  0.58533413  0.75186331  0.91690348  1  0  -0.041748  0  2.97502  0  0  -0.032953  0  3.278728  0  0  -0.030427  0  3.287737  0  0  -0.069787  -0.034365  0  3.272502  0
N  N93  1  0.91466662  0.24813618  0.41690602  1  0  -0.041689  0  2.974893  0  0  -0.032911  0  3.278623  0  0  -0.030387  0  3.287634  0  0  -0.069796  -0.034328  0  3.272405  0
N  N94  1  0.41466513  0.24813744  0.08309654  1  0  -0.041777  0  2.975025  0  0  -0.032979  0  3.27873  0  0  -0.030454  0  3.287742  0  0  -0.069782  -0.034401  0  3.272518  0
N  N95  1  0.08533444  0.75186290  0.58309619  1  0  -0.041726  0  2.97499  0  0  -0.032937  0  3.278708  0  0  -0.030412  0  3.287718  0  0  -0.06976  -0.034355  0  3.272486  0
N  N96  1  0.73732017  0.81265128  0.91966356  1  0  -0.321354  0  3.154871  0  0  -0.270354  0  3.47355  0  0  -0.288219  0  3.484538  0  0  -0.237977  -0.258254  0  3.465927  0
N  N97  1  0.76268149  0.18734737  0.41966453  1  0  -0.321207  0  3.154813  0  0  -0.270194  0  3.47346  0  0  -0.288058  0  3.484451  0  0  -0.237842  -0.258097  0  3.465836  0
N  N98  1  0.26267909  0.18734947  0.08033938  1  0  -0.321243  0  3.154768  0  0  -0.270253  0  3.473444  0  0  -0.288117  0  3.484434  0  0  -0.237928  -0.258155  0  3.465821  0
N  N99  1  0.23731931  0.81265088  0.58033841  1  0  -0.321239  0  3.154883  0  0  -0.270237  0  3.47355  0  0  -0.288101  0  3.48454  0  0  -0.23791  -0.258142  0  3.465927  0
N  N100  1  0.51925486  0.05732003  0.85342589  1  0  0.691805  0  4.116576  0  0  0.724608  0  4.395557  0  0  0.753521  0  4.402864  0  0  0.095419  0.705028  0  4.390058  0
N  N101  1  0.98074116  0.94267627  0.35342608  1  0  0.691782  0  4.116599  0  0  0.724564  0  4.395586  0  0  0.753479  0  4.402892  0  0  0.09537  0.704934  0  4.390153  0
N  N102  1  0.48074657  0.94267654  0.14657267  1  0  0.691744  0  4.116616  0  0  0.724498  0  4.395644  0  0  0.753408  0  4.402955  0  0  0.095355  0.704891  0  4.390183  0
N  N103  1  0.01925423  0.05731946  0.64657394  1  0  0.691738  0  4.116684  0  0  0.724544  0  4.395652  0  0  0.753457  0  4.402963  0  0  0.095439  0.704974  0  4.390145  0
Cl  Cl104  1  0.66983436  0.47716476  0.42852172  1  0  -0.093936  0  1.398723  0  0  -0.080891  0  1.632183  0  0  -0.085959  0  1.630495  0  0  0.005071  -0.077052  0  1.633345  0
Cl  Cl105  1  0.83017195  0.52283387  0.92852091  1  0  -0.093942  0  1.398666  0  0  -0.080903  0  1.632122  0  0  -0.085974  0  1.630432  0  0  0.005061  -0.077066  0  1.633282  0
Cl  Cl106  1  0.33016695  0.52283516  0.57147975  1  0  -0.093963  0  1.398693  0  0  -0.080915  0  1.632154  0  0  -0.085985  0  1.630463  0  0  0.005055  -0.077077  0  1.63332  0
Cl  Cl107  1  0.16983026  0.47716521  0.07147984  1  0  -0.093914  0  1.398662  0  0  -0.080866  0  1.632121  0  0  -0.085935  0  1.630431  0  0  0.005085  -0.077028  0  1.633282  0
O  O108  1  0.38599057  0.07745848  0.87037508  1  0  -0.434727  0  1.776209  0  0  -0.422343  0  1.99252  0  0  -0.437587  0  1.988132  0  0  -0.175605  -0.411641  0  1.995369  0
O  O109  1  0.11401231  0.92254113  0.37037469  1  0  -0.434759  0  1.776178  0  0  -0.422361  0  1.992476  0  0  -0.437607  0  1.988088  0  0  -0.175634  -0.411635  0  1.995337  0
O  O110  1  0.61401279  0.92254060  0.12962494  1  0  -0.434702  0  1.776373  0  0  -0.422294  0  1.992687  0  0  -0.437537  0  1.988301  0  0  -0.175596  -0.411579  0  1.99554  0
O  O111  1  0.88599016  0.07745880  0.62962606  1  0  -0.43464  0  1.776258  0  0  -0.422267  0  1.992596  0  0  -0.437511  0  1.988212  0  0  -0.175578  -0.411569  0  1.995446  0
O  O112  1  0.63796907  0.09205851  0.90611396  1  0  -0.436974  0  1.771282  0  0  -0.427828  0  1.990243  0  0  -0.44185  0  1.983238  0  0  -0.176143  -0.418001  0  1.994973  0
O  O113  1  0.86203022  0.90793264  0.40611257  1  0  -0.436922  0  1.771361  0  0  -0.427773  0  1.990309  0  0  -0.441791  0  1.983301  0  0  -0.176108  -0.417936  0  1.995065  0
O  O114  1  0.36203365  0.90793472  0.09388387  1  0  -0.436981  0  1.771242  0  0  -0.427826  0  1.990211  0  0  -0.441848  0  1.983209  0  0  -0.17615  -0.417992  0  1.994954  0
O  O115  1  0.13796799  0.09205724  0.59388525  1  0  -0.436956  0  1.77131  0  0  -0.42781  0  1.990268  0  0  -0.441833  0  1.983264  0  0  -0.176166  -0.417989  0  1.994997  0
O  O116  1  0.53489738  0.99724072  0.77646528  1  0  -0.530091  0  1.935987  0  0  -0.487548  0  2.215753  0  0  -0.511321  0  2.203286  0  0  -0.225439  -0.470716  0  2.223924  0
O  O117  1  0.96509941  0.00275913  0.27646779  1  0  -0.53008  0  1.935964  0  0  -0.487491  0  2.215695  0  0  -0.51127  0  2.203233  0  0  -0.225377  -0.470639  0  2.223868  0
O  O118  1  0.46509969  0.00275669  0.22353108  1  0  -0.530034  0  1.935848  0  0  -0.487426  0  2.215571  0  0  -0.511199  0  2.203109  0  0  -0.225348  -0.470576  0  2.223725  0
O  O119  1  0.03489818  0.99723995  0.72353442  1  0  -0.530125  0  1.935983  0  0  -0.487559  0  2.215729  0  0  -0.511333  0  2.203264  0  0  -0.225451  -0.470729  0  2.223894  0
