# generated using pymatgen
data_ZnH14C18(N2O)3
_symmetry_space_group_name_H-M   'P 1'
_cell_length_a   8.85951051
_cell_length_b   10.55251304
_cell_length_c   12.52505691
_cell_angle_alpha   64.16653012
_cell_angle_beta   84.11534130
_cell_angle_gamma   67.24537594
_symmetry_Int_Tables_number   1
_chemical_formula_structural   ZnH14C18(N2O)3
_chemical_formula_sum   'Zn2 H28 C36 N12 O6'
_cell_volume   968.83908250
_cell_formula_units_Z   2
loop_
 _symmetry_equiv_pos_site_id
 _symmetry_equiv_pos_as_xyz
  1  'x, y, z'
loop_
 _atom_site_type_symbol
 _atom_site_label
 _atom_site_symmetry_multiplicity
 _atom_site_fract_x
 _atom_site_fract_y
 _atom_site_fract_z
 _atom_site_occupancy
 _atom_site_hle17_bader_spin_density
 _atom_site_hle17_ddec_charge
 _atom_site_hle17_ddec_spin_density
 _atom_site_hle17_ddec_sum_bond_order
 _atom_site_hle17_magmom
 _atom_site_hse06_10hf_bader_spin_density
 _atom_site_hse06_10hf_ddec_charge
 _atom_site_hse06_10hf_ddec_spin_density
 _atom_site_hse06_10hf_ddec_sum_bond_order
 _atom_site_hse06_10hf_magmom
 _atom_site_hse06_bader_spin_density
 _atom_site_hse06_ddec_charge
 _atom_site_hse06_ddec_spin_density
 _atom_site_hse06_ddec_sum_bond_order
 _atom_site_hse06_magmom
 _atom_site_pbe_bader_spin_density
 _atom_site_pbe_cm5_charge
 _atom_site_pbe_ddec_charge
 _atom_site_pbe_ddec_spin_density
 _atom_site_pbe_ddec_sum_bond_order
 _atom_site_pbe_magmom
Zn  Zn0  1  0.94409364  0.88227132  0.69978165  1  0  0.957259  0  1.88337  0  0  0.760257  0  2.348506  0  0  0.807452  0  2.296458  0  0  0.700758  0.72732  0  2.384245  0
Zn  Zn1  1  0.05590834  0.11772817  0.30021971  1  0  0.957253  0  1.883345  0  0  0.760245  0  2.348458  0  0  0.807441  0  2.29641  0  0  0.700758  0.727302  0  2.384196  0
H  H2  1  0.85424720  0.90036389  0.49533167  1  0  0.427448  0  0.876569  0  0  0.396153  0  0.942117  0  0  0.406366  0  0.927191  0  0  0.291218  0.388899  0  0.95272  0
H  H3  1  0.14574765  0.09963431  0.50467346  1  0  0.4275  0  0.876491  0  0  0.396212  0  0.942028  0  0  0.406423  0  0.927107  0  0  0.291256  0.388959  0  0.952629  0
H  H4  1  0.56416577  0.32628058  0.65048999  1  0  0.113026  0  0.945167  0  0  0.118851  0  1.012395  0  0  0.123519  0  1.008156  0  0  0.10703  0.115431  0  1.015614  0
H  H5  1  0.43583628  0.67371803  0.34950925  1  0  0.11303  0  0.945169  0  0  0.118859  0  1.012387  0  0  0.123527  0  1.008148  0  0  0.107032  0.11544  0  1.015607  0
H  H6  1  0.02743142  0.37825511  0.60926351  1  0  0.101151  0  0.953593  0  0  0.110666  0  1.015742  0  0  0.114114  0  1.013347  0  0  0.103999  0.108117  0  1.017567  0
H  H7  1  0.97256342  0.62174719  0.39074426  1  0  0.101126  0  0.953534  0  0  0.110673  0  1.015636  0  0  0.114129  0  1.013247  0  0  0.103989  0.108121  0  1.017468  0
H  H8  1  0.88557732  0.64774330  0.57653521  1  0  0.095486  0  0.98833  0  0  0.098357  0  1.062101  0  0  0.101541  0  1.060569  0  0  0.099597  0.096029  0  1.063422  0
H  H9  1  0.11441644  0.35226057  0.42346816  1  0  0.095432  0  0.988458  0  0  0.098356  0  1.062176  0  0  0.10154  0  1.060642  0  0  0.099602  0.096029  0  1.063498  0
H  H10  1  0.58143950  0.75918481  0.57717327  1  0  0.098448  0  0.946456  0  0  0.109641  0  1.005844  0  0  0.113427  0  1.002325  0  0  0.103506  0.106913  0  1.00836  0
H  H11  1  0.41854950  0.24082404  0.42281457  1  0  0.098434  0  0.946452  0  0  0.109633  0  1.005835  0  0  0.113419  0  1.002317  0  0  0.103492  0.106903  0  1.008351  0
H  H12  1  0.69369460  0.73423314  0.73893480  1  0  0.084218  0  0.962752  0  0  0.093228  0  1.026506  0  0  0.094844  0  1.025292  0  0  0.120007  0.091861  0  1.027621  0
H  H13  1  0.30633405  0.26573876  0.26106277  1  0  0.084405  0  0.962629  0  0  0.093341  0  1.026443  0  0  0.094957  0  1.025229  0  0  0.120013  0.09197  0  1.027555  0
H  H14  1  0.24946451  0.93319895  0.76711292  1  0  0.09496  0  0.928061  0  0  0.102481  0  0.988579  0  0  0.105433  0  0.985727  0  0  0.121949  0.100238  0  0.990787  0
H  H15  1  0.75054051  0.06679999  0.23289306  1  0  0.094951  0  0.928012  0  0  0.102474  0  0.988545  0  0  0.105424  0  0.985692  0  0  0.121959  0.100231  0  0.99075  0
H  H16  1  0.36378805  0.91814353  0.95031837  1  0  0.107723  0  0.930441  0  0  0.121908  0  0.977955  0  0  0.124841  0  0.978016  0  0  0.112952  0.119775  0  0.97807  0
H  H17  1  0.63621382  0.08185362  0.04968460  1  0  0.107642  0  0.930442  0  0  0.121769  0  0.978028  0  0  0.124699  0  0.978092  0  0  0.112891  0.11964  0  0.978143  0
H  H18  1  0.24568922  0.80785772  0.14510534  1  0  0.105693  0  0.958246  0  0  0.115028  0  1.017963  0  0  0.117513  0  1.016396  0  0  0.109404  0.1132  0  1.019147  0
H  H19  1  0.75430625  0.19214734  0.85489659  1  0  0.105614  0  0.958182  0  0  0.114948  0  1.017923  0  0  0.117433  0  1.016357  0  0  0.109386  0.113123  0  1.019108  0
H  H20  1  0.02982285  0.71030707  0.15114513  1  0  0.109894  0  0.964611  0  0  0.121055  0  1.023514  0  0  0.123318  0  1.024052  0  0  0.109875  0.119444  0  1.02309  0
H  H21  1  0.97015425  0.28971623  0.84885384  1  0  0.109966  0  0.964471  0  0  0.121087  0  1.023413  0  0  0.123337  0  1.023964  0  0  0.10985  0.119477  0  1.02299  0
H  H22  1  0.86578032  0.61388546  0.14400597  1  0  0.118864  0  0.969393  0  0  0.123163  0  1.038609  0  0  0.127172  0  1.035596  0  0  0.113172  0.120132  0  1.041086  0
H  H23  1  0.13420964  0.38612358  0.85599052  1  0  0.118801  0  0.96937  0  0  0.123085  0  1.038619  0  0  0.127096  0  1.035603  0  0  0.113147  0.120056  0  1.041098  0
H  H24  1  0.56494610  0.58838637  0.91092309  1  0  0.103518  0  0.943885  0  0  0.116872  0  0.997826  0  0  0.119618  0  0.997925  0  0  0.109399  0.114824  0  0.997998  0
H  H25  1  0.43508921  0.41157335  0.08907450  1  0  0.103524  0  0.943792  0  0  0.116859  0  0.997743  0  0  0.119604  0  0.997854  0  0  0.10938  0.114807  0  0.997922  0
H  H26  1  0.73940723  0.04956936  0.50387303  1  0  0.401314  0  0.896208  0  0  0.364208  0  0.977654  0  0  0.375116  0  0.961792  0  0  0.287219  0.356426  0  0.988958  0
H  H27  1  0.26058124  0.95042780  0.49613328  1  0  0.401353  0  0.896168  0  0  0.364259  0  0.977572  0  0  0.375163  0  0.961715  0  0  0.287258  0.35648  0  0.988872  0
H  H28  1  0.65358388  0.53185620  0.11870075  1  0  0.099847  0  0.945628  0  0  0.109724  0  1.004695  0  0  0.112077  0  1.003576  0  0  0.110531  0.107952  0  1.005586  0
H  H29  1  0.34643579  0.46812059  0.88129392  1  0  0.09975  0  0.945715  0  0  0.109629  0  1.004773  0  0  0.111982  0  1.003655  0  0  0.110499  0.107858  0  1.005665  0
C  C30  1  0.55289430  0.54865169  0.61758627  1  0  0.005163  0  3.809552  0  0  0.026175  0  4.042704  0  0  0.023281  0  4.066651  0  0  -0.00746  0.027985  0  4.026425  0
C  C31  1  0.44709736  0.45135444  0.38240616  1  0  0.005345  0  3.809703  0  0  0.026287  0  4.042871  0  0  0.023389  0  4.06682  0  0  -0.007443  0.028095  0  4.02659  0
C  C32  1  0.63392491  0.39736980  0.63410591  1  0  -0.095567  0  3.694549  0  0  -0.131543  0  3.9454  0  0  -0.13092  0  3.963685  0  0  -0.081399  -0.131735  0  3.933042  0
C  C33  1  0.36606942  0.60263604  0.36588868  1  0  -0.095664  0  3.694652  0  0  -0.131626  0  3.94552  0  0  -0.131001  0  3.963802  0  0  -0.081436  -0.131821  0  3.933164  0
C  C34  1  0.80407803  0.33728479  0.62902034  1  0  -0.076437  0  3.781384  0  0  -0.051286  0  4.017761  0  0  -0.059808  0  4.041205  0  0  -0.024512  -0.04588  0  4.001952  0
C  C35  1  0.19591761  0.66272174  0.37097787  1  0  -0.076451  0  3.781264  0  0  -0.051298  0  4.017647  0  0  -0.059819  0  4.041092  0  0  -0.024485  -0.045889  0  4.001838  0
C  C36  1  0.89455662  0.42736047  0.61023220  1  0  -0.063119  0  3.719412  0  0  -0.090758  0  3.96867  0  0  -0.089734  0  3.987839  0  0  -0.082751  -0.091027  0  3.955577  0
C  C37  1  0.10543834  0.57264417  0.38977396  1  0  -0.063141  0  3.719115  0  0  -0.090784  0  3.968368  0  0  -0.089776  0  3.987552  0  0  -0.08279  -0.091059  0  3.95528  0
C  C38  1  0.81404396  0.57869731  0.59154396  1  0  -0.074709  0  3.777983  0  0  -0.086513  0  4.034823  0  0  -0.090161  0  4.056222  0  0  -0.092551  -0.084184  0  4.020368  0
C  C39  1  0.18594930  0.42130614  0.40846363  1  0  -0.074615  0  3.777822  0  0  -0.086463  0  4.034644  0  0  -0.09011  0  4.056045  0  0  -0.092513  -0.084135  0  4.020193  0
C  C40  1  0.64405075  0.64012456  0.59332487  1  0  -0.08815  0  3.713219  0  0  -0.111191  0  3.956159  0  0  -0.111326  0  3.975155  0  0  -0.084937  -0.110756  0  3.942987  0
C  C41  1  0.35594238  0.35987974  0.40667441  1  0  -0.088141  0  3.71314  0  0  -0.111176  0  3.956102  0  0  -0.111311  0  3.975097  0  0  -0.084897  -0.110733  0  3.942916  0
C  C42  1  0.37705330  0.60612267  0.63133717  1  0  0.247964  0  3.823244  0  0  0.226591  0  4.098486  0  0  0.234729  0  4.11643  0  0  0.203204  0.221218  0  4.086229  0
C  C43  1  0.62293836  0.39388180  0.36865020  1  0  0.247781  0  3.823294  0  0  0.226514  0  4.098414  0  0  0.234654  0  4.116355  0  0  0.203137  0.221139  0  4.08616  0
C  C44  1  0.88924357  0.17708978  0.64387200  1  0  0.647702  0  3.905414  0  0  0.593725  0  4.201314  0  0  0.627949  0  4.194766  0  0  0.202341  0.570662  0  4.204699  0
C  C45  1  0.11075902  0.82291899  0.35612374  1  0  0.647541  0  3.905279  0  0  0.593563  0  4.201187  0  0  0.627785  0  4.194639  0  0  0.202299  0.570499  0  4.204572  0
C  C46  1  0.72826889  0.70515016  0.83005178  1  0  0.146291  0  3.687741  0  0  0.116252  0  3.931544  0  0  0.122958  0  3.95067  0  0  0.059376  0.111978  0  3.918602  0
C  C47  1  0.27174716  0.29483417  0.16994484  1  0  0.145918  0  3.687838  0  0  0.115943  0  3.931582  0  0  0.12265  0  3.95071  0  0  0.059215  0.111677  0  3.91863  0
C  C48  1  0.20590283  0.88379466  0.85438923  1  0  0.139565  0  3.705501  0  0  0.107142  0  3.96199  0  0  0.113751  0  3.979798  0  0  0.05327  0.102736  0  3.95  0
C  C49  1  0.79409890  0.11620667  0.14561556  1  0  0.139564  0  3.705575  0  0  0.10713  0  3.962063  0  0  0.11374  0  3.979869  0  0  0.053213  0.102724  0  3.950069  0
C  C50  1  0.26733496  0.87597358  0.95614735  1  0  -0.122421  0  3.740143  0  0  -0.133785  0  3.989979  0  0  -0.140762  0  4.011723  0  0  -0.081724  -0.12928  0  3.975339  0
C  C51  1  0.73266349  0.12402771  0.04385868  1  0  -0.122392  0  3.739982  0  0  -0.133703  0  3.989832  0  0  -0.140678  0  4.011573  0  0  -0.081676  -0.129209  0  3.975207  0
C  C52  1  0.20226602  0.81413113  0.06397573  1  0  0.000577  0  3.707773  0  0  -0.017523  0  3.956226  0  0  -0.014212  0  3.975416  0  0  -0.064875  -0.019752  0  3.94336  0
C  C53  1  0.79772369  0.18587731  0.93602661  1  0  0.000755  0  3.707477  0  0  -0.017345  0  3.955917  0  0  -0.014033  0  3.975103  0  0  -0.064803  -0.019577  0  3.94306  0
C  C54  1  0.07989011  0.76044941  0.06709046  1  0  -0.138465  0  3.692092  0  0  -0.157412  0  3.938372  0  0  -0.164806  0  3.961406  0  0  -0.077799  -0.151961  0  3.922328  0
C  C55  1  0.92009371  0.23956493  0.93290905  1  0  -0.138552  0  3.691914  0  0  -0.157475  0  3.93817  0  0  -0.164862  0  3.961216  0  0  -0.077841  -0.152024  0  3.922128  0
C  C56  1  0.02373117  0.77275681  0.96106982  1  0  0.170618  0  3.762338  0  0  0.165503  0  4.005309  0  0  0.171487  0  4.026219  0  0  0.119819  0.161506  0  3.990913  0
C  C57  1  0.97626068  0.22725412  0.03892900  1  0  0.170564  0  3.762418  0  0  0.165537  0  4.005295  0  0  0.171522  0  4.026202  0  0  0.119811  0.16154  0  3.990896  0
C  C58  1  0.89340231  0.72026324  0.95406247  1  0  0.178825  0  3.735759  0  0  0.174959  0  3.97216  0  0  0.181746  0  3.99298  0  0  0.123119  0.170442  0  3.958118  0
C  C59  1  0.10659479  0.27974222  0.04593511  1  0  0.178817  0  3.735698  0  0  0.174822  0  3.972228  0  0  0.181609  0  3.993049  0  0  0.123092  0.170304  0  3.958185  0
C  C60  1  0.82561976  0.64134550  0.05459982  1  0  -0.135707  0  3.682551  0  0  -0.155775  0  3.931512  0  0  -0.162828  0  3.951811  0  0  -0.073928  -0.15115  0  3.918173  0
C  C61  1  0.17437964  0.35865341  0.94539726  1  0  -0.135444  0  3.682272  0  0  -0.155491  0  3.931267  0  0  -0.162543  0  3.951566  0  0  -0.073803  -0.15087  0  3.917933  0
C  C62  1  0.70630529  0.59314939  0.04027590  1  0  0.009305  0  3.714273  0  0  -0.01234  0  3.970277  0  0  -0.008314  0  3.988412  0  0  -0.063042  -0.014733  0  3.957801  0
C  C63  1  0.29370823  0.40683514  0.95971937  1  0  0.009312  0  3.714092  0  0  -0.012308  0  3.970058  0  0  -0.008286  0  3.988204  0  0  -0.063035  -0.0147  0  3.957584  0
C  C64  1  0.65712446  0.62447096  0.92632932  1  0  -0.128647  0  3.747627  0  0  -0.142957  0  4.002516  0  0  -0.150137  0  4.024711  0  0  -0.082744  -0.138339  0  3.98744  0
C  C65  1  0.34289773  0.37550563  0.07366670  1  0  -0.128526  0  3.747379  0  0  -0.142824  0  4.002208  0  0  -0.150011  0  4.024406  0  0  -0.082664  -0.138206  0  3.987128  0
N  N66  1  0.28426597  0.74941132  0.61686389  1  0  -0.318226  0  2.982074  0  0  -0.287294  0  3.246225  0  0  -0.297077  0  3.260221  0  0  -0.219023  -0.280486  0  3.236709  0
N  N67  1  0.71572988  0.25059015  0.38313037  1  0  -0.31824  0  2.981976  0  0  -0.287358  0  3.246119  0  0  -0.29714  0  3.260109  0  0  -0.219078  -0.280553  0  3.236609  0
N  N68  1  0.13614673  0.74456810  0.64772449  1  0  -0.158497  0  3.310662  0  0  -0.095686  0  3.623444  0  0  -0.107154  0  3.637035  0  0  -0.137939  -0.087845  0  3.613976  0
N  N69  1  0.86385546  0.25542723  0.35228548  1  0  -0.158383  0  3.310662  0  0  -0.095513  0  3.623363  0  0  -0.10698  0  3.636958  0  0  -0.137832  -0.08767  0  3.613891  0
N  N70  1  0.13800143  0.60618732  0.67877504  1  0  -0.090481  0  3.000989  0  0  -0.081495  0  3.299736  0  0  -0.079634  0  3.311813  0  0  -0.101108  -0.082226  0  3.291262  0
N  N71  1  0.86200190  0.39380799  0.32123479  1  0  -0.090547  0  3.001099  0  0  -0.081606  0  3.299894  0  0  -0.079747  0  3.311972  0  0  -0.101118  -0.082338  0  3.29142  0
N  N72  1  0.28807321  0.51694331  0.66924367  1  0  -0.30406  0  2.936505  0  0  -0.284977  0  3.224233  0  0  -0.293848  0  3.235369  0  0  -0.224484  -0.278899  0  3.216712  0
N  N73  1  0.71192422  0.48305701  0.33075077  1  0  -0.304004  0  2.93656  0  0  -0.284952  0  3.224286  0  0  -0.293825  0  3.235423  0  0  -0.224506  -0.278873  0  3.216767  0
N  N74  1  0.08643062  0.83462695  0.85713051  1  0  -0.346911  0  3.260335  0  0  -0.27973  0  3.524252  0  0  -0.297441  0  3.541867  0  0  -0.314621  -0.267788  0  3.512395  0
N  N75  1  0.91356907  0.16537909  0.14287135  1  0  -0.346926  0  3.260493  0  0  -0.279739  0  3.524353  0  0  -0.29745  0  3.541967  0  0  -0.31456  -0.267795  0  3.512491  0
N  N76  1  0.84301223  0.75162491  0.84353811  1  0  -0.332264  0  3.255746  0  0  -0.254569  0  3.517876  0  0  -0.272914  0  3.533163  0  0  -0.315199  -0.242393  0  3.507584  0
N  N77  1  0.15699070  0.24837386  0.15645936  1  0  -0.332253  0  3.255756  0  0  -0.254494  0  3.517822  0  0  -0.272838  0  3.53311  0  0  -0.315145  -0.24232  0  3.507526  0
O  O78  1  0.78585620  0.93727038  0.55204200  1  0  -0.807208  0  1.883675  0  0  -0.744152  0  2.084071  0  0  -0.764688  0  2.049759  0  0  -0.576378  -0.729599  0  2.10809  0
O  O79  1  0.21414105  0.06272771  0.44796366  1  0  -0.807325  0  1.88367  0  0  -0.744294  0  2.084092  0  0  -0.764824  0  2.049775  0  0  -0.576471  -0.729744  0  2.108108  0
O  O80  1  0.03507694  0.13175549  0.61575588  1  0  -0.654692  0  1.982508  0  0  -0.597798  0  2.214983  0  0  -0.622496  0  2.203798  0  0  -0.322001  -0.580247  0  2.222046  0
O  O81  1  0.96492878  0.86826646  0.38423824  1  0  -0.654599  0  1.982799  0  0  -0.597722  0  2.215282  0  0  -0.622423  0  2.204098  0  0  -0.322018  -0.580172  0  2.222342  0
O  O82  1  0.80669552  0.09079632  0.68766893  1  0  -0.629302  0  2.029015  0  0  -0.555162  0  2.282569  0  0  -0.583987  0  2.270488  0  0  -0.333248  -0.534808  0  2.289985  0
O  O83  1  0.19331745  0.90920570  0.31232614  1  0  -0.629169  0  2.028569  0  0  -0.555044  0  2.282121  0  0  -0.58387  0  2.270044  0  0  -0.333189  -0.534691  0  2.289535  0
