# generated using pymatgen
data_TiH6C9O4
_symmetry_space_group_name_H-M   'P 1'
_cell_length_a   11.82237754
_cell_length_b   20.07299434
_cell_length_c   20.07302167
_cell_angle_alpha   120.00023116
_cell_angle_beta   89.99997302
_cell_angle_gamma   90.00000351
_symmetry_Int_Tables_number   1
_chemical_formula_structural   TiH6C9O4
_chemical_formula_sum   'Ti12 H72 C108 O48'
_cell_volume   4125.33631389
_cell_formula_units_Z   12
loop_
 _symmetry_equiv_pos_site_id
 _symmetry_equiv_pos_as_xyz
  1  'x, y, z'
loop_
 _atom_site_type_symbol
 _atom_site_label
 _atom_site_symmetry_multiplicity
 _atom_site_fract_x
 _atom_site_fract_y
 _atom_site_fract_z
 _atom_site_occupancy
 _atom_site_pbe_bader_charge
 _atom_site_pbe_bader_spin_density
 _atom_site_pbe_cm5_charge
 _atom_site_pbe_ddec_charge
 _atom_site_pbe_ddec_spin_density
 _atom_site_pbe_ddec_sum_bond_order
 _atom_site_pbe_magmom
Ti  Ti0  1  0.60485804  0.99999896  0.10258412  1  2.243041  0  1.45455  2.177893  0  2.338396  0
Ti  Ti1  1  0.60485848  0.10258438  0.99999924  1  2.243056  0  1.454531  2.177857  0  2.338376  0
Ti  Ti2  1  0.60485856  0.89741580  0.89741550  1  2.240476  0  1.454535  2.177866  0  2.33843  0
Ti  Ti3  1  0.10485841  0.00000127  0.89741570  1  2.243003  0  1.454556  2.177939  0  2.338331  0
Ti  Ti4  1  0.10485797  0.89741577  0.00000165  1  2.243034  0  1.454583  2.17796  0  2.338277  0
Ti  Ti5  1  0.10485874  0.10258414  0.10258461  1  2.240492  0  1.454525  2.177841  0  2.338445  0
Ti  Ti6  1  0.89514145  0.99999894  0.10258407  1  2.243042  0  1.454563  2.177926  0  2.33834  0
Ti  Ti7  1  0.89514112  0.89741599  0.89741623  1  2.240469  0  1.454537  2.17785  0  2.338446  0
Ti  Ti8  1  0.89514189  0.10258436  0.99999919  1  2.243029  0  1.454536  2.177901  0  2.338337  0
Ti  Ti9  1  0.39514182  0.00000125  0.89741565  1  2.242996  0  1.454547  2.177882  0  2.338388  0
Ti  Ti10  1  0.39514130  0.10258412  0.10258456  1  2.240468  0  1.454527  2.177849  0  2.338432  0
Ti  Ti11  1  0.39514222  0.89741575  0.00000160  1  2.243019  0  1.454589  2.177978  0  2.338247  0
H  H12  1  0.61753137  0.83663632  0.32734531  1  0.050669  0  0.09994  0.099205  0  1.006576  0
H  H13  1  0.61753141  0.49070864  0.16336532  1  0.045954  0  0.09996  0.099261  0  1.006586  0
H  H14  1  0.61753213  0.67265591  0.50929073  1  0.047797  0  0.099925  0.099211  0  1.006591  0
H  H15  1  0.11753024  0.16336411  0.67265529  1  0.052865  0  0.099948  0.099215  0  1.00659  0
H  H16  1  0.11752935  0.50929186  0.83663421  1  0.048309  0  0.099942  0.099197  0  1.006673  0
H  H17  1  0.11753286  0.32734402  0.49070938  1  0.047783  0  0.099926  0.099199  0  1.006558  0
H  H18  1  0.88246952  0.16336613  0.49070986  1  0.04597  0  0.099953  0.099223  0  1.006574  0
H  H19  1  0.88246777  0.50929101  0.67265612  1  0.047782  0  0.099922  0.099202  0  1.006567  0
H  H20  1  0.88246939  0.32734411  0.83663507  1  0.050555  0  0.099944  0.099207  0  1.006605  0
H  H21  1  0.38246944  0.83663348  0.50929043  1  0.048304  0  0.099947  0.099221  0  1.006596  0
H  H22  1  0.38246949  0.49070996  0.32734381  1  0.050124  0  0.099941  0.099196  0  1.006575  0
H  H23  1  0.38247041  0.67265571  0.16336601  1  0.05289  0  0.099945  0.099211  0  1.006563  0
H  H24  1  0.38246934  0.16336409  0.67265525  1  0.05054  0  0.099943  0.099213  0  1.006587  0
H  H25  1  0.38247014  0.50929185  0.83663416  1  0.045983  0  0.099935  0.099205  0  1.006639  0
H  H26  1  0.38246773  0.32734400  0.49070933  1  0.050104  0  0.099924  0.099197  0  1.006562  0
H  H27  1  0.88246962  0.83663581  0.32734476  1  0.052857  0  0.099955  0.099242  0  1.006599  0
H  H28  1  0.88246882  0.49070863  0.16336527  1  0.048273  0  0.099955  0.099257  0  1.006593  0
H  H29  1  0.88246784  0.67265590  0.50929068  1  0.050072  0  0.099932  0.099214  0  1.006579  0
H  H30  1  0.11753119  0.83663350  0.50929048  1  0.045981  0  0.099946  0.09922  0  1.006597  0
H  H31  1  0.11753040  0.49070998  0.32734386  1  0.047812  0  0.09995  0.099211  0  1.006559  0
H  H32  1  0.11753047  0.67265580  0.16336499  1  0.050554  0  0.099949  0.099215  0  1.006612  0
H  H33  1  0.61753042  0.16336644  0.49070962  1  0.048298  0  0.099959  0.099234  0  1.006568  0
H  H34  1  0.61753206  0.50929103  0.67265617  1  0.050104  0  0.099927  0.09921  0  1.006562  0
H  H35  1  0.61753029  0.32734413  0.83663511  1  0.052877  0  0.099953  0.099223  0  1.006604  0
H  H36  1  0.61748065  0.90801410  0.25491756  1  0.072553  0  0.109653  0.115391  0  0.992597  0
H  H37  1  0.61748068  0.34690330  0.09198631  1  0.114519  0  0.109657  0.115424  0  0.99258  0
H  H38  1  0.61747963  0.74508227  0.65309570  1  0.093207  0  0.109644  0.115379  0  0.992611  0
H  H39  1  0.11748031  0.09198634  0.74508304  1  0.072569  0  0.109651  0.115396  0  0.992605  0
H  H40  1  0.11748027  0.65309692  0.90801350  1  0.114533  0  0.109643  0.115388  0  0.99256  0
H  H41  1  0.11747963  0.25491716  0.34690391  1  0.095085  0  0.109669  0.115374  0  0.992626  0
H  H42  1  0.88251947  0.09198770  0.34690414  1  0.112549  0  0.109676  0.115409  0  0.992593  0
H  H43  1  0.88252019  0.65309610  0.74508355  1  0.093879  0  0.109651  0.115332  0  0.992666  0
H  H44  1  0.88252010  0.25491646  0.90801236  1  0.070615  0  0.109646  0.115377  0  0.992593  0
H  H45  1  0.38251929  0.90801219  0.65309587  1  0.112551  0  0.109678  0.115421  0  0.992586  0
H  H46  1  0.38252111  0.34690459  0.25491667  1  0.093904  0  0.109663  0.115373  0  0.992642  0
H  H47  1  0.38252035  0.74508315  0.09198794  1  0.070631  0  0.109662  0.11541  0  0.992548  0
H  H48  1  0.38252006  0.09198632  0.74508300  1  0.070582  0  0.109648  0.115389  0  0.992618  0
H  H49  1  0.38251917  0.65309690  0.90801346  1  0.112533  0  0.109661  0.115384  0  0.992564  0
H  H50  1  0.38252022  0.25491764  0.34690436  1  0.093194  0  0.109666  0.115389  0  0.992612  0
H  H51  1  0.88251955  0.90801358  0.25491701  1  0.070584  0  0.10965  0.115398  0  0.992607  0
H  H52  1  0.88251874  0.34690329  0.09198627  1  0.112519  0  0.109652  0.115415  0  0.992585  0
H  H53  1  0.88252023  0.74508226  0.65309565  1  0.095196  0  0.109663  0.115392  0  0.992612  0
H  H54  1  0.11748039  0.90801221  0.65309591  1  0.114544  0  0.109658  0.115392  0  0.992624  0
H  H55  1  0.11747882  0.34690489  0.25491643  1  0.095903  0  0.109649  0.115356  0  0.992643  0
H  H56  1  0.11747976  0.74508346  0.09198770  1  0.072596  0  0.109658  0.115399  0  0.992568  0
H  H57  1  0.61748057  0.09198772  0.34690419  1  0.114541  0  0.109679  0.11542  0  0.992579  0
H  H58  1  0.61747959  0.65309612  0.74508360  1  0.095873  0  0.109654  0.115335  0  0.992664  0
H  H59  1  0.61747951  0.25491648  0.90801241  1  0.072597  0  0.10966  0.115381  0  0.992625  0
H  H60  1  0.74999976  0.88249835  0.05572998  1  0.569784  0  0.326764  0.419263  0  0.858173  0
H  H61  1  0.74999970  0.17322897  0.11749569  1  0.621516  0  0.326714  0.419354  0  0.858087  0
H  H62  1  0.75000030  0.94426877  0.82677141  1  0.574634  0  0.326698  0.419332  0  0.857923  0
H  H63  1  0.25000010  0.11750165  0.94426900  1  0.569787  0  0.326697  0.419275  0  0.858093  0
H  H64  1  0.25000016  0.82677095  0.88250437  1  0.621511  0  0.326699  0.419321  0  0.85812  0
H  H65  1  0.24999956  0.05573086  0.17322893  1  0.574625  0  0.32669  0.419316  0  0.85794  0
H  H66  1  0.74999967  0.11749603  0.17322947  1  0.621509  0  0.326704  0.41933  0  0.858112  0
H  H67  1  0.75000024  0.82677098  0.94426888  1  0.574612  0  0.326694  0.419327  0  0.857925  0
H  H68  1  0.75000023  0.05572978  0.88249829  1  0.569783  0  0.326737  0.419245  0  0.858197  0
H  H69  1  0.25000019  0.88250388  0.82677059  1  0.621508  0  0.326703  0.419325  0  0.858108  0
H  H70  1  0.24999962  0.17322893  0.05573117  1  0.574616  0  0.326701  0.419329  0  0.857923  0
H  H71  1  0.24999963  0.94426906  0.11750184  1  0.569784  0  0.326693  0.419266  0  0.858104  0
H  H72  1  0.49999998  0.80959479  0.40479788  1  0.067607  0  0.100459  0.100043  0  1.019884  0
H  H73  1  0.50000090  0.59520314  0.19040526  1  0.067618  0  0.100454  0.099996  0  1.019909  0
H  H74  1  0.49999997  0.59520255  0.40479670  1  0.076014  0  0.100456  0.10005  0  1.019815  0
H  H75  1  0.99999998  0.19040559  0.59520259  1  0.067615  0  0.100438  0.099989  0  1.0199  0
H  H76  1  0.00000054  0.40479731  0.80959538  1  0.067612  0  0.10044  0.09997  0  1.01991  0
H  H77  1  0.99999999  0.40479704  0.59520356  1  0.076026  0  0.100479  0.100077  0  1.019835  0
H  H78  1  0.49999988  0.19040562  0.59520268  1  0.067611  0  0.100452  0.10004  0  1.019863  0
H  H79  1  0.49999980  0.40479728  0.80959529  1  0.067606  0  0.100439  0.099969  0  1.019911  0
H  H80  1  0.49999989  0.40479708  0.59520365  1  0.076033  0  0.100464  0.100021  0  1.019853  0
H  H81  1  0.00000009  0.80959505  0.40479750  1  0.067604  0  0.100459  0.100038  0  1.019886  0
H  H82  1  0.00000016  0.59520261  0.19040468  1  0.0676  0  0.100455  0.100015  0  1.0199  0
H  H83  1  0.00000008  0.59520281  0.40479632  1  0.076031  0  0.10046  0.099998  0  1.019887  0
C  C84  1  0.56511807  0.81683927  0.27613736  1  -0.060306  0  -0.09198  -0.138488  0  3.993135  0
C  C85  1  0.56511978  0.45929886  0.18316140  1  -0.102167  0  -0.091944  -0.138468  0  3.992972  0
C  C86  1  0.56511965  0.72386263  0.54070076  1  -0.049  0  -0.091931  -0.138437  0  3.992943  0
C  C87  1  0.06511860  0.18316067  0.72386276  1  -0.060234  0  -0.092004  -0.138508  0  3.993148  0
C  C88  1  0.06511858  0.54070187  0.81683893  1  -0.102166  0  -0.091964  -0.138441  0  3.993118  0
C  C89  1  0.06511787  0.27613632  0.45929836  1  -0.048985  0  -0.091975  -0.138479  0  3.993138  0
C  C90  1  0.93488115  0.18316134  0.45929807  1  -0.102147  0  -0.091979  -0.138476  0  3.99308  0
C  C91  1  0.93488107  0.54070125  0.72386354  1  -0.04897  0  -0.091937  -0.138466  0  3.99302  0
C  C92  1  0.93488101  0.27613658  0.81683849  1  -0.060464  0  -0.09193  -0.138398  0  3.992941  0
C  C93  1  0.43488189  0.81683904  0.54070242  1  -0.102153  0  -0.09197  -0.138467  0  3.993111  0
C  C94  1  0.43488283  0.45929864  0.27613645  1  -0.048995  0  -0.09194  -0.138439  0  3.99302  0
C  C95  1  0.43488288  0.72386381  0.18316200  1  -0.060455  0  -0.092002  -0.138495  0  3.993124  0
C  C96  1  0.43488094  0.18316064  0.72386270  1  -0.06048  0  -0.092008  -0.13852  0  3.993149  0
C  C97  1  0.43488092  0.54070184  0.81683887  1  -0.102157  0  -0.091968  -0.13846  0  3.993048  0
C  C98  1  0.43488190  0.27613629  0.45929830  1  -0.04899  0  -0.091979  -0.138483  0  3.993136  0
C  C99  1  0.93488126  0.81683975  0.27613779  1  -0.060477  0  -0.091964  -0.138512  0  3.993066  0
C  C100  1  0.93487959  0.45929884  0.18316133  1  -0.102176  0  -0.091935  -0.138466  0  3.992936  0
C  C101  1  0.93488199  0.72386310  0.54070120  1  -0.048994  0  -0.091942  -0.138445  0  3.993009  0
C  C102  1  0.06511786  0.81683857  0.54070198  1  -0.102145  0  -0.091964  -0.138465  0  3.993117  0
C  C103  1  0.06511710  0.45929817  0.27613602  1  -0.048965  0  -0.091984  -0.138499  0  3.993154  0
C  C104  1  0.06511885  0.72386334  0.18316156  1  -0.060472  0  -0.091949  -0.138439  0  3.992981  0
C  C105  1  0.56511881  0.18316137  0.45929814  1  -0.102153  0  -0.091987  -0.138496  0  3.993087  0
C  C106  1  0.56511872  0.54070128  0.72386360  1  -0.048967  0  -0.091935  -0.138468  0  3.99302  0
C  C107  1  0.56511867  0.27613660  0.81683856  1  -0.060458  0  -0.091981  -0.1385  0  3.993123  0
C  C108  1  0.56582945  0.85663654  0.23596457  1  0.065395  0  -0.081188  -0.084795  0  3.983778  0
C  C109  1  0.56582862  0.37932755  0.14336443  1  0.010287  0  -0.081192  -0.084859  0  3.98367  0
C  C110  1  0.56583014  0.76403601  0.62067217  1  0.045696  0  -0.081176  -0.084789  0  3.983575  0
C  C111  1  0.06582825  0.14336390  0.76403605  1  0.06541  0  -0.081153  -0.084778  0  3.983767  0
C  C112  1  0.06582824  0.62067325  0.85663483  1  0.010299  0  -0.081138  -0.084764  0  3.983751  0
C  C113  1  0.06583010  0.23596372  0.37932717  1  0.045805  0  -0.081172  -0.084719  0  3.983716  0
C  C114  1  0.93417151  0.14336438  0.37932687  1  0.01027  0  -0.081175  -0.084771  0  3.983843  0
C  C115  1  0.93416884  0.62067384  0.76403685  1  0.045801  0  -0.081221  -0.084744  0  3.983573  0
C  C116  1  0.93417132  0.23596289  0.85663545  1  0.065394  0  -0.081222  -0.084848  0  3.983641  0
C  C117  1  0.43417135  0.85663551  0.62067312  1  0.010272  0  -0.081189  -0.084811  0  3.983828  0
C  C118  1  0.43417063  0.37932634  0.23596286  1  0.045778  0  -0.081213  -0.084763  0  3.983584  0
C  C119  1  0.43417153  0.76403721  0.14336533  1  0.065569  0  -0.081179  -0.084823  0  3.983738  0
C  C120  1  0.43417125  0.14336387  0.76403599  1  0.065402  0  -0.081155  -0.08477  0  3.983775  0
C  C121  1  0.43417209  0.62067372  0.85663526  1  0.010302  0  -0.081179  -0.084784  0  3.983798  0
C  C122  1  0.43416972  0.23596370  0.37932710  1  0.045687  0  -0.081169  -0.084739  0  3.983724  0
C  C123  1  0.93417161  0.85663602  0.23596401  1  0.065419  0  -0.081173  -0.084805  0  3.983675  0
C  C124  1  0.93417077  0.37932753  0.14336437  1  0.01029  0  -0.081203  -0.084864  0  3.983622  0
C  C125  1  0.93416976  0.76403620  0.62067289  1  0.045696  0  -0.081213  -0.084818  0  3.983563  0
C  C126  1  0.06582835  0.85663554  0.62067318  1  0.010259  0  -0.081171  -0.084776  0  3.983874  0
C  C127  1  0.06582932  0.37932636  0.23596292  1  0.045764  0  -0.081159  -0.084676  0  3.983684  0
C  C128  1  0.06582853  0.76403703  0.14336461  1  0.065391  0  -0.081224  -0.084872  0  3.983637  0
C  C129  1  0.56582851  0.14336441  0.37932694  1  0.010263  0  -0.08118  -0.08478  0  3.983824  0
C  C130  1  0.56583092  0.62067387  0.76403691  1  0.045798  0  -0.081217  -0.084735  0  3.983601  0
C  C131  1  0.56582833  0.23596292  0.85663551  1  0.06541  0  -0.08116  -0.084727  0  3.983831  0
C  C132  1  0.50000089  0.74970691  0.25029475  1  -0.021868  0  -0.00402  0.077985  0  3.996246  0
C  C133  1  0.49999918  0.50058705  0.25029379  1  -0.120105  0  -0.004013  0.077969  0  3.99626  0
C  C134  1  0.50000079  0.74970615  0.49941266  1  -0.028651  0  -0.004019  0.077987  0  3.996156  0
C  C135  1  0.00000056  0.25029353  0.74970589  1  -0.02177  0  -0.004012  0.077964  0  3.996176  0
C  C136  1  0.99999824  0.49941333  0.74970668  1  -0.120111  0  -0.003998  0.077983  0  3.996256  0
C  C137  1  0.00000150  0.25029359  0.50058669  1  -0.028664  0  -0.004034  0.077937  0  3.996207  0
C  C138  1  0.49999982  0.25029350  0.74970581  1  -0.021525  0  -0.004017  0.077974  0  3.996122  0
C  C139  1  0.50000152  0.49941336  0.74970677  1  -0.120111  0  -0.004001  0.077982  0  3.996268  0
C  C140  1  0.49999822  0.25029355  0.50058661  1  -0.028666  0  -0.004027  0.077955  0  3.996193  0
C  C141  1  0.00000015  0.74970638  0.25029416  1  -0.021523  0  -0.004013  0.078  0  3.996132  0
C  C142  1  0.00000077  0.50058737  0.25029359  1  -0.120122  0  -0.004015  0.07798  0  3.996259  0
C  C143  1  0.99999836  0.74970633  0.49941336  1  -0.028673  0  -0.004023  0.077946  0  3.99625  0
C  C144  1  0.50000093  0.83059605  0.16940583  1  -0.059941  0  -0.017865  -0.042344  0  3.977269  0
C  C145  1  0.50000090  0.33880814  0.16940258  1  0.015587  0  -0.017954  -0.042501  0  3.977411  0
C  C146  1  0.50000073  0.83059579  0.66119093  1  -0.073817  0  -0.017915  -0.042462  0  3.977307  0
C  C147  1  0.99999988  0.16940483  0.83059513  1  -0.059811  0  -0.017894  -0.042373  0  3.977277  0
C  C148  1  0.99999991  0.66119181  0.83059632  1  -0.073846  0  -0.017945  -0.042486  0  3.977402  0
C  C149  1  0.00000008  0.16940330  0.33880883  1  -0.073824  0  -0.017905  -0.042463  0  3.977316  0
C  C150  1  0.49999978  0.16940458  0.83059551  1  -0.059801  0  -0.017927  -0.04245  0  3.977327  0
C  C151  1  0.50000065  0.66119185  0.83059641  1  -0.073852  0  -0.017914  -0.042462  0  3.977456  0
C  C152  1  0.49999998  0.16940383  0.33880941  1  -0.073819  0  -0.017912  -0.042479  0  3.977303  0
C  C153  1  0.00000018  0.83059531  0.16940446  1  -0.059843  0  -0.017905  -0.04236  0  3.977276  0
C  C154  1  0.99999931  0.33880811  0.16940249  1  0.015593  0  -0.017932  -0.04249  0  3.977354  0
C  C155  1  0.99999999  0.83059605  0.66119056  1  -0.073827  0  -0.017898  -0.042417  0  3.977313  0
C  C156  1  0.50000010  0.87344172  0.12655828  1  1.54033  0  0.227629  0.617106  0  4.148176  0
C  C157  1  0.49999753  0.25311544  0.12655798  1  1.519491  0  0.227757  0.617304  0  4.148052  0
C  C158  1  0.50000239  0.87344138  0.74688451  1  1.608893  0  0.227718  0.617226  0  4.147775  0
C  C159  1  0.00000135  0.12655773  0.87344136  1  1.540342  0  0.227712  0.617242  0  4.147888  0
C  C160  1  0.99999821  0.74688473  0.87344170  1  1.608882  0  0.227734  0.617266  0  4.14789  0
C  C161  1  0.00000244  0.12655885  0.25311534  1  1.608888  0  0.22772  0.617218  0  4.147928  0
C  C162  1  0.49999891  0.12655741  0.87344156  1  1.540337  0  0.227661  0.617176  0  4.148127  0
C  C163  1  0.50000233  0.74688476  0.87344179  1  1.608878  0  0.227751  0.617302  0  4.147964  0
C  C164  1  0.49999747  0.12655882  0.25311526  1  1.608907  0  0.227816  0.617383  0  4.147792  0
C  C165  1  0.00000020  0.87344148  0.12655741  1  1.54038  0  0.227677  0.617178  0  4.147956  0
C  C166  1  0.00000165  0.25311548  0.12655807  1  1.519497  0  0.227749  0.617274  0  4.148048  0
C  C167  1  0.99999826  0.87344135  0.74688443  1  1.608899  0  0.227758  0.617296  0  4.147621  0
C  C168  1  0.50000087  0.70722438  0.29277717  1  -0.199406  0  -0.007705  0.077281  0  4.038013  0
C  C169  1  0.50000002  0.58555218  0.29277494  1  0.048608  0  -0.007668  0.077367  0  4.037883  0
C  C170  1  0.50000167  0.70722393  0.41444773  1  -0.042831  0  -0.007663  0.077299  0  4.03789  0
C  C171  1  0.00000058  0.29277607  0.70722347  1  -0.199407  0  -0.007688  0.077339  0  4.037976  0
C  C172  1  0.99999910  0.41444771  0.70722503  1  0.0486  0  -0.007665  0.077358  0  4.037922  0
C  C173  1  0.00000147  0.29277602  0.58555241  1  -0.042828  0  -0.007638  0.077373  0  4.037864  0
C  C174  1  0.49999984  0.29277604  0.70722338  1  -0.198387  0  -0.007698  0.077333  0  4.037972  0
C  C175  1  0.50000069  0.41444774  0.70722512  1  0.0486  0  -0.007667  0.077354  0  4.037929  0
C  C176  1  0.49999819  0.29277599  0.58555232  1  -0.042821  0  -0.007635  0.077371  0  4.037864  0
C  C177  1  0.00000013  0.70722385  0.29277658  1  -0.198392  0  -0.007702  0.07731  0  4.037992  0
C  C178  1  0.00000012  0.58555214  0.29277485  1  0.048609  0  -0.007716  0.077294  0  4.037939  0
C  C179  1  0.99999839  0.70722390  0.41444765  1  -0.043891  0  -0.007626  0.077392  0  4.037842  0
C  C180  1  0.50000169  0.74684069  0.37342023  1  0.081215  0  -0.088394  -0.178448  0  3.9342  0
C  C181  1  0.50000173  0.62657942  0.25315965  1  0.081211  0  -0.088368  -0.178361  0  3.934114  0
C  C182  1  0.50000083  0.62657930  0.37342003  1  -0.206018  0  -0.088388  -0.178452  0  3.934022  0
C  C183  1  0.00000061  0.25315955  0.62657962  1  0.081225  0  -0.088374  -0.178405  0  3.934153  0
C  C184  1  0.99999993  0.37342046  0.74684032  1  0.081222  0  -0.088365  -0.17837  0  3.934175  0
C  C185  1  0.00000061  0.37342065  0.62658011  1  -0.206026  0  -0.08842  -0.178512  0  3.93407  0
C  C186  1  0.49999902  0.25315923  0.62657982  1  0.081216  0  -0.088389  -0.178448  0  3.934127  0
C  C187  1  0.49999982  0.37342049  0.74684040  1  0.081224  0  -0.088371  -0.178378  0  3.934166  0
C  C188  1  0.49999987  0.37342033  0.62658031  1  -0.207041  0  -0.088401  -0.178459  0  3.93411  0
C  C189  1  0.99999925  0.74684065  0.37342014  1  0.081232  0  -0.088384  -0.178443  0  3.934175  0
C  C190  1  0.99999929  0.62657968  0.25315928  1  0.081195  0  -0.088379  -0.178393  0  3.934134  0
C  C191  1  0.99999925  0.62657906  0.37341916  1  -0.20596  0  -0.088383  -0.178419  0  3.934118  0
O  O192  1  0.56888641  0.92910318  0.14826271  1  -1.148044  0  -0.342555  -0.582669  0  2.334946  0
O  O193  1  0.56888302  0.21915675  0.07089055  1  -1.145185  0  -0.342642  -0.582759  0  2.334699  0
O  O194  1  0.56887938  0.85173627  0.78084285  1  -1.149252  0  -0.342563  -0.582659  0  2.335062  0
O  O195  1  0.06888598  0.07089676  0.85173741  1  -1.148067  0  -0.342595  -0.582741  0  2.334944  0
O  O196  1  0.06888344  0.78084377  0.92910900  1  -1.14516  0  -0.342637  -0.58276  0  2.334709  0
O  O197  1  0.06887862  0.14826260  0.21915735  1  -1.149216  0  -0.342564  -0.582669  0  2.335206  0
O  O198  1  0.93111635  0.07088994  0.21915687  1  -1.145159  0  -0.342682  -0.582793  0  2.334621  0
O  O199  1  0.93112036  0.78084287  0.85173696  1  -1.149192  0  -0.342578  -0.582698  0  2.335026  0
O  O200  1  0.93111438  0.14826280  0.92910386  1  -1.148041  0  -0.342606  -0.582771  0  2.334832  0
O  O201  1  0.43111606  0.92910859  0.78084349  1  -1.145129  0  -0.342667  -0.582782  0  2.334651  0
O  O202  1  0.43112136  0.21915780  0.14826324  1  -1.149206  0  -0.342597  -0.582737  0  2.33516  0
O  O203  1  0.43111465  0.85173701  0.07089720  1  -1.148035  0  -0.34256  -0.582669  0  2.334954  0
O  O204  1  0.43111345  0.07089674  0.85173735  1  -1.148079  0  -0.342557  -0.582689  0  2.334979  0
O  O205  1  0.43111684  0.78084374  0.92910893  1  -1.145153  0  -0.342629  -0.582757  0  2.334706  0
O  O206  1  0.43112132  0.14826307  0.21915778  1  -1.149224  0  -0.342577  -0.582717  0  2.335234  0
O  O207  1  0.93111388  0.92910394  0.14826286  1  -1.148043  0  -0.342588  -0.582731  0  2.334802  0
O  O208  1  0.93111642  0.21915672  0.07089048  1  -1.145151  0  -0.342658  -0.582755  0  2.33468  0
O  O209  1  0.93112039  0.85173625  0.78084278  1  -1.149236  0  -0.342581  -0.58269  0  2.33496  0
O  O210  1  0.06888351  0.92910862  0.78084355  1  -1.145133  0  -0.342709  -0.582879  0  2.334655  0
O  O211  1  0.06887865  0.21915783  0.14826331  1  -1.149265  0  -0.342593  -0.582731  0  2.335176  0
O  O212  1  0.06888548  0.85173732  0.07089698  1  -1.148087  0  -0.342583  -0.582709  0  2.334971  0
O  O213  1  0.56888380  0.07089025  0.21915664  1  -1.145162  0  -0.342734  -0.582896  0  2.334573  0
O  O214  1  0.56887935  0.78084290  0.85173702  1  -1.149195  0  -0.34262  -0.582759  0  2.335135  0
O  O215  1  0.56888521  0.14826233  0.92910343  1  -1.148042  0  -0.342576  -0.582686  0  2.334961  0
O  O216  1  0.74999975  0.93813830  0.08321890  1  -1.082613  0  -0.659321  -0.913983  0  2.145469  0
O  O217  1  0.74999972  0.14508757  0.06185567  1  -1.162765  0  -0.659268  -0.914111  0  2.14527  0
O  O218  1  0.75000028  0.91677490  0.85491684  1  -1.092698  0  -0.659229  -0.914035  0  2.145123  0
O  O219  1  0.25000011  0.06186140  0.91678036  1  -1.082486  0  -0.659286  -0.914015  0  2.145341  0
O  O220  1  0.25000014  0.85491214  0.93814360  1  -1.162704  0  -0.659241  -0.914056  0  2.145283  0
O  O221  1  0.24999958  0.08322502  0.14508322  1  -1.092691  0  -0.659217  -0.914014  0  2.14516  0
O  O222  1  0.74999968  0.06185593  0.14508807  1  -1.152548  0  -0.659258  -0.914069  0  2.145301  0
O  O223  1  0.75000026  0.85491677  0.91677479  1  -1.118313  0  -0.65923  -0.914035  0  2.145123  0
O  O224  1  0.75000021  0.08321978  0.93813809  1  -1.08239  0  -0.65927  -0.913937  0  2.14542  0
O  O225  1  0.25000018  0.93814398  0.85491199  1  -1.152546  0  -0.659245  -0.914024  0  2.145274  0
O  O226  1  0.24999960  0.14508364  0.08322576  1  -1.118442  0  -0.659231  -0.914021  0  2.1451  0
O  O227  1  0.24999965  0.91677964  0.06186147  1  -1.082454  0  -0.659265  -0.913999  0  2.145339  0
O  O228  1  0.42640489  0.00000021  0.08513708  1  -1.096815  0  -0.719904  -1.152099  0  2.011737  0
O  O229  1  0.42640408  0.08513671  0.00000082  1  -1.096842  0  -0.71988  -1.152101  0  2.01174  0
O  O230  1  0.42639615  0.91486917  0.91486887  1  -1.096326  0  -0.719838  -1.152166  0  2.011696  0
O  O231  1  0.92640556  0.99999989  0.91486370  1  -1.09775  0  -0.719886  -1.152091  0  2.011759  0
O  O232  1  0.92640468  0.91486368  0.99999967  1  -1.097752  0  -0.719894  -1.152107  0  2.01174  0
O  O233  1  0.92639485  0.08513101  0.08513084  1  -1.096335  0  -0.719844  -1.15211  0  2.011659  0
O  O234  1  0.07359515  0.00000023  0.08513714  1  -1.096815  0  -0.719906  -1.152105  0  2.011735  0
O  O235  1  0.07360417  0.91486841  0.91486872  1  -1.096259  0  -0.719842  -1.152174  0  2.011713  0
O  O236  1  0.07359603  0.08513673  0.00000088  1  -1.096803  0  -0.719883  -1.152107  0  2.011725  0
O  O237  1  0.57359412  0.99999942  0.91486326  1  -1.097716  0  -0.719877  -1.152055  0  2.011704  0
O  O238  1  0.57360540  0.08513104  0.08513090  1  -1.096302  0  -0.719853  -1.1521  0  2.011669  0
O  O239  1  0.57359493  0.91486371  0.99999973  1  -1.09772  0  -0.719892  -1.152128  0  2.011758  0
