# generated using pymatgen
data_HgH16C26S2N4(ClO2)2
_symmetry_space_group_name_H-M   'P 1'
_cell_length_a   8.27497610
_cell_length_b   12.16849375
_cell_length_c   13.08680774
_cell_angle_alpha   90.00079073
_cell_angle_beta   98.61297136
_cell_angle_gamma   89.99955250
_symmetry_Int_Tables_number   1
_chemical_formula_structural   HgH16C26S2N4(ClO2)2
_chemical_formula_sum   'Hg2 H32 C52 S4 N8 Cl4 O8'
_cell_volume   1302.90188347
_cell_formula_units_Z   2
loop_
 _symmetry_equiv_pos_site_id
 _symmetry_equiv_pos_as_xyz
  1  'x, y, z'
loop_
 _atom_site_type_symbol
 _atom_site_label
 _atom_site_symmetry_multiplicity
 _atom_site_fract_x
 _atom_site_fract_y
 _atom_site_fract_z
 _atom_site_occupancy
 _atom_site_hle17_bader_spin_density
 _atom_site_hle17_ddec_charge
 _atom_site_hle17_ddec_spin_density
 _atom_site_hle17_ddec_sum_bond_order
 _atom_site_hle17_magmom
 _atom_site_hse06_10hf_bader_spin_density
 _atom_site_hse06_10hf_ddec_charge
 _atom_site_hse06_10hf_ddec_spin_density
 _atom_site_hse06_10hf_ddec_sum_bond_order
 _atom_site_hse06_10hf_magmom
 _atom_site_hse06_bader_spin_density
 _atom_site_hse06_ddec_charge
 _atom_site_hse06_ddec_spin_density
 _atom_site_hse06_ddec_sum_bond_order
 _atom_site_hse06_magmom
 _atom_site_pbe_bader_spin_density
 _atom_site_pbe_cm5_charge
 _atom_site_pbe_ddec_charge
 _atom_site_pbe_ddec_spin_density
 _atom_site_pbe_ddec_sum_bond_order
 _atom_site_pbe_magmom
Hg  Hg0  1  0.50000183  0.00000032  0.00000113  1  0  0.609645  0  2.121766  0  0  0.50311  0  2.581718  0  0  0.535979  0  2.563888  0  0  0.508506  0.480566  0  2.594053  0
Hg  Hg1  1  0.49999873  0.49999854  0.50000010  1  0  0.609709  0  2.12168  0  0  0.503121  0  2.581722  0  0  0.535972  0  2.563929  0  0  0.508497  0.480579  0  2.593989  0
H  H2  1  0.49920576  0.28374620  0.77414602  1  0  0.108921  0  0.952212  0  0  0.116932  0  1.017409  0  0  0.120563  0  1.014924  0  0  0.09815  0.114362  0  1.019229  0
H  H3  1  0.50079414  0.78374692  0.72585474  1  0  0.108972  0  0.952189  0  0  0.11696  0  1.017396  0  0  0.120591  0  1.014914  0  0  0.098174  0.114392  0  1.019218  0
H  H4  1  0.50079537  0.71625498  0.22585759  1  0  0.108938  0  0.952228  0  0  0.116952  0  1.017416  0  0  0.120581  0  1.014935  0  0  0.098167  0.114379  0  1.019231  0
H  H5  1  0.49919966  0.21625262  0.27413977  1  0  0.108989  0  0.952071  0  0  0.116914  0  1.01735  0  0  0.120543  0  1.014869  0  0  0.098168  0.114346  0  1.019176  0
H  H6  1  0.53728045  0.11537613  0.67450878  1  0  0.095936  0  0.975668  0  0  0.099946  0  1.046328  0  0  0.103595  0  1.043629  0  0  0.090552  0.097339  0  1.048354  0
H  H7  1  0.46272335  0.61537853  0.82549325  1  0  0.095955  0  0.97565  0  0  0.099979  0  1.046291  0  0  0.10363  0  1.043598  0  0  0.090568  0.097374  0  1.04833  0
H  H8  1  0.46272190  0.88462588  0.32549342  1  0  0.095924  0  0.975598  0  0  0.099933  0  1.046263  0  0  0.103584  0  1.043571  0  0  0.090559  0.097328  0  1.048289  0
H  H9  1  0.53727656  0.38462184  0.17450260  1  0  0.095881  0  0.975644  0  0  0.099891  0  1.046301  0  0  0.103538  0  1.043608  0  0  0.090545  0.097283  0  1.048336  0
H  H10  1  0.73193549  0.96952546  0.75267786  1  0  0.092029  0  0.95672  0  0  0.105068  0  1.012947  0  0  0.107043  0  1.013218  0  0  0.097057  0.10366  0  1.012819  0
H  H11  1  0.26806403  0.46952639  0.74732066  1  0  0.092013  0  0.956719  0  0  0.104973  0  1.013031  0  0  0.106944  0  1.013306  0  0  0.097042  0.103576  0  1.01292  0
H  H12  1  0.26806564  0.03047655  0.24732422  1  0  0.092083  0  0.956629  0  0  0.105116  0  1.012854  0  0  0.107089  0  1.013123  0  0  0.097096  0.103713  0  1.012741  0
H  H13  1  0.73193710  0.53047397  0.25267608  1  0  0.092006  0  0.956662  0  0  0.104994  0  1.012948  0  0  0.106965  0  1.013223  0  0  0.097038  0.103589  0  1.012825  0
H  H14  1  0.88157978  0.99340608  0.93016265  1  0  0.11533  0  0.94796  0  0  0.123885  0  1.009144  0  0  0.126903  0  1.008548  0  0  0.100449  0.121746  0  1.009662  0
H  H15  1  0.11841953  0.49340846  0.56983463  1  0  0.115305  0  0.947986  0  0  0.123868  0  1.009162  0  0  0.126886  0  1.008568  0  0  0.100451  0.121727  0  1.00968  0
H  H16  1  0.11842257  0.00659511  0.06983802  1  0  0.115327  0  0.947972  0  0  0.123884  0  1.009154  0  0  0.126902  0  1.008559  0  0  0.100464  0.121746  0  1.009677  0
H  H17  1  0.88157793  0.50659191  0.43016328  1  0  0.11537  0  0.947961  0  0  0.123933  0  1.00914  0  0  0.126951  0  1.008545  0  0  0.100475  0.12179  0  1.009653  0
H  H18  1  0.00151525  0.30839452  0.18665554  1  0  0.108122  0  0.94841  0  0  0.112853  0  1.016446  0  0  0.116004  0  1.015269  0  0  0.105774  0.110633  0  1.017356  0
H  H19  1  0.99848874  0.80839472  0.31335073  1  0  0.108193  0  0.948302  0  0  0.112841  0  1.016463  0  0  0.115993  0  1.015284  0  0  0.105775  0.110611  0  1.017373  0
H  H20  1  0.99848587  0.69160666  0.81334730  1  0  0.108201  0  0.948262  0  0  0.112875  0  1.016385  0  0  0.116026  0  1.015208  0  0  0.105796  0.110649  0  1.017299  0
H  H21  1  0.00151361  0.19160482  0.68664917  1  0  0.108207  0  0.948306  0  0  0.112857  0  1.016455  0  0  0.11601  0  1.015276  0  0  0.105775  0.110634  0  1.017361  0
H  H22  1  0.17935136  0.35211230  0.35465720  1  0  0.100937  0  0.992175  0  0  0.101381  0  1.070005  0  0  0.105103  0  1.068053  0  0  0.096921  0.098677  0  1.071471  0
H  H23  1  0.82064859  0.85211834  0.14535001  1  0  0.100961  0  0.992113  0  0  0.101357  0  1.069987  0  0  0.105111  0  1.068014  0  0  0.096911  0.098669  0  1.071447  0
H  H24  1  0.82064488  0.64788725  0.64534595  1  0  0.100912  0  0.992171  0  0  0.101351  0  1.070007  0  0  0.105116  0  1.068024  0  0  0.096927  0.098646  0  1.07148  0
H  H25  1  0.17935131  0.14788367  0.85464966  1  0  0.100955  0  0.992165  0  0  0.10134  0  1.070048  0  0  0.105092  0  1.068075  0  0  0.096918  0.098651  0  1.071503  0
H  H26  1  0.09433490  0.02709941  0.46488578  1  0  0.107896  0  0.979394  0  0  0.11282  0  1.049074  0  0  0.116359  0  1.046554  0  0  0.107033  0.110269  0  1.05099  0
H  H27  1  0.90566543  0.52710501  0.03511043  1  0  0.107911  0  0.979345  0  0  0.112854  0  1.049011  0  0  0.116394  0  1.046485  0  0  0.107011  0.110293  0  1.050945  0
H  H28  1  0.90566867  0.97290095  0.53511272  1  0  0.107914  0  0.979344  0  0  0.112831  0  1.049042  0  0  0.116369  0  1.046524  0  0  0.107038  0.110271  0  1.050969  0
H  H29  1  0.09433570  0.47289618  0.96488707  1  0  0.107913  0  0.979352  0  0  0.11284  0  1.04904  0  0  0.116382  0  1.046514  0  0  0.107036  0.110289  0  1.050965  0
H  H30  1  0.90530001  0.98755264  0.30198105  1  0  0.107093  0  0.966227  0  0  0.116912  0  1.026782  0  0  0.119851  0  1.025659  0  0  0.102562  0.114798  0  1.027778  0
H  H31  1  0.09469756  0.48755376  0.19801468  1  0  0.107162  0  0.966119  0  0  0.11696  0  1.026706  0  0  0.119898  0  1.025583  0  0  0.10257  0.114834  0  1.027715  0
H  H32  1  0.09470234  0.01244608  0.69801962  1  0  0.10716  0  0.966241  0  0  0.116989  0  1.026786  0  0  0.119927  0  1.025666  0  0  0.102577  0.114865  0  1.027785  0
H  H33  1  0.90530479  0.51244579  0.80198293  1  0  0.107186  0  0.966172  0  0  0.116979  0  1.026757  0  0  0.119917  0  1.025636  0  0  0.102579  0.114864  0  1.027758  0
C  C34  1  0.77636016  0.15193756  0.95408506  1  0  0.146562  0  3.898586  0  0  0.147733  0  4.14568  0  0  0.154067  0  4.168302  0  0  0.072039  0.143404  0  4.130305  0
C  C35  1  0.22363476  0.65193954  0.54591353  1  0  0.146471  0  3.898622  0  0  0.147583  0  4.145787  0  0  0.153919  0  4.168411  0  0  0.071904  0.143262  0  4.130399  0
C  C36  1  0.22363974  0.84806280  0.04591614  1  0  0.146651  0  3.898615  0  0  0.147823  0  4.145679  0  0  0.154159  0  4.168298  0  0  0.072052  0.143487  0  4.130312  0
C  C37  1  0.77635903  0.34806083  0.45408479  1  0  0.146651  0  3.898495  0  0  0.147812  0  4.145593  0  0  0.154148  0  4.168213  0  0  0.072043  0.143476  0  4.130221  0
C  C38  1  0.66835109  0.23368878  0.90728134  1  0  0.042056  0  3.765886  0  0  0.052708  0  4.030074  0  0  0.052416  0  4.051953  0  0  0.001022  0.052693  0  4.015427  0
C  C39  1  0.33164191  0.73369088  0.59271812  1  0  0.042014  0  3.765898  0  0  0.052706  0  4.030054  0  0  0.052414  0  4.051933  0  0  0.001044  0.052698  0  4.015404  0
C  C40  1  0.33164637  0.76630829  0.09272039  1  0  0.042033  0  3.765918  0  0  0.052705  0  4.030066  0  0  0.052412  0  4.051947  0  0  0.001032  0.052695  0  4.015413  0
C  C41  1  0.66834944  0.26631030  0.40727998  1  0  0.042027  0  3.765862  0  0  0.052693  0  4.030013  0  0  0.052401  0  4.051894  0  0  0.001002  0.052685  0  4.015364  0
C  C42  1  0.58327869  0.22002594  0.80767306  1  0  -0.121051  0  3.777439  0  0  -0.146889  0  4.03644  0  0  -0.148316  0  4.057056  0  0  -0.102527  -0.145696  0  4.022301  0
C  C43  1  0.41671931  0.72002824  0.69232670  1  0  -0.121099  0  3.777502  0  0  -0.14693  0  4.03652  0  0  -0.148352  0  4.057123  0  0  -0.102563  -0.145741  0  4.022387  0
C  C44  1  0.41671877  0.77997278  0.19232790  1  0  -0.121146  0  3.777455  0  0  -0.146998  0  4.036458  0  0  -0.148425  0  4.057072  0  0  -0.102576  -0.145801  0  4.022302  0
C  C45  1  0.58327571  0.27997130  0.30767175  1  0  -0.121192  0  3.777345  0  0  -0.146951  0  4.036345  0  0  -0.148375  0  4.056956  0  0  -0.1026  -0.145765  0  4.022221  0
C  C46  1  0.60636060  0.12533666  0.75147968  1  0  -0.068578  0  3.7717  0  0  -0.085549  0  4.03185  0  0  -0.087567  0  4.051222  0  0  -0.105262  -0.08417  0  4.018661  0
C  C47  1  0.39363701  0.62533828  0.74851883  1  0  -0.068639  0  3.771708  0  0  -0.085597  0  4.031786  0  0  -0.08762  0  4.051162  0  0  -0.105276  -0.084219  0  4.018635  0
C  C48  1  0.39363931  0.87466452  0.24852229  1  0  -0.068538  0  3.771564  0  0  -0.085498  0  4.031698  0  0  -0.087521  0  4.051073  0  0  -0.105295  -0.084117  0  4.018516  0
C  C49  1  0.60635802  0.37466208  0.25147656  1  0  -0.068568  0  3.771645  0  0  -0.085503  0  4.031725  0  0  -0.087518  0  4.051088  0  0  -0.105286  -0.08413  0  4.018568  0
C  C50  1  0.71450692  0.04436201  0.79535763  1  0  -0.061186  0  3.786905  0  0  -0.077801  0  4.038621  0  0  -0.07748  0  4.058456  0  0  -0.103191  -0.07787  0  4.025  0
C  C51  1  0.28548894  0.54436356  0.70463814  1  0  -0.061067  0  3.786843  0  0  -0.077614  0  4.03855  0  0  -0.077289  0  4.058382  0  0  -0.10311  -0.077714  0  4.024982  0
C  C52  1  0.28549298  0.95563835  0.20464280  1  0  -0.061225  0  3.786845  0  0  -0.077834  0  4.038572  0  0  -0.077511  0  4.058406  0  0  -0.103194  -0.077921  0  4.024983  0
C  C53  1  0.71450608  0.45563599  0.29535801  1  0  -0.061086  0  3.786843  0  0  -0.077649  0  4.038547  0  0  -0.077324  0  4.05838  0  0  -0.103124  -0.077731  0  4.024939  0
C  C54  1  0.79845902  0.05718992  0.89538570  1  0  -0.163992  0  3.73467  0  0  -0.174581  0  3.979321  0  0  -0.179809  0  3.999277  0  0  -0.105164  -0.170997  0  3.965785  0
C  C55  1  0.20153917  0.55719125  0.60461428  1  0  -0.163968  0  3.734672  0  0  -0.174544  0  3.979311  0  0  -0.179771  0  3.999263  0  0  -0.105166  -0.170963  0  3.965788  0
C  C56  1  0.20153966  0.94280798  0.10461385  1  0  -0.164033  0  3.734782  0  0  -0.174627  0  3.979432  0  0  -0.179856  0  3.999387  0  0  -0.105212  -0.171047  0  3.965921  0
C  C57  1  0.79845707  0.44280665  0.39538581  1  0  -0.164104  0  3.734738  0  0  -0.174711  0  3.9794  0  0  -0.179939  0  3.999356  0  0  -0.105201  -0.171121  0  3.96586  0
C  C58  1  0.82979028  0.12415633  0.13566101  1  0  0.23593  0  3.770768  0  0  0.222169  0  4.055376  0  0  0.241281  0  4.066117  0  0  0.146429  0.208986  0  4.047859  0
C  C59  1  0.17021409  0.62415510  0.36434064  1  0  0.235889  0  3.770858  0  0  0.222078  0  4.055479  0  0  0.241193  0  4.066217  0  0  0.146375  0.208886  0  4.047952  0
C  C60  1  0.17021818  0.87584650  0.86434177  1  0  0.235906  0  3.770829  0  0  0.222032  0  4.055516  0  0  0.241152  0  4.066248  0  0  0.146342  0.208847  0  4.047989  0
C  C61  1  0.82978826  0.37584526  0.63566079  1  0  0.235835  0  3.77094  0  0  0.222008  0  4.055572  0  0  0.241123  0  4.066309  0  0  0.146293  0.208813  0  4.048061  0
C  C62  1  0.94110917  0.14630906  0.23418963  1  0  0.053729  0  3.705823  0  0  0.067445  0  3.940544  0  0  0.065591  0  3.962005  0  0  0.006423  0.068753  0  3.92614  0
C  C63  1  0.05889501  0.64631106  0.26581152  1  0  0.053689  0  3.705807  0  0  0.067507  0  3.940378  0  0  0.065659  0  3.961825  0  0  0.006433  0.068822  0  3.92595  0
C  C64  1  0.05889440  0.85369131  0.76581268  1  0  0.053766  0  3.705705  0  0  0.067642  0  3.940228  0  0  0.065791  0  3.961681  0  0  0.006469  0.068951  0  3.925811  0
C  C65  1  0.94110734  0.35368848  0.73418533  1  0  0.053908  0  3.705722  0  0  0.067749  0  3.94026  0  0  0.065903  0  3.961704  0  0  0.006583  0.069064  0  3.925845  0
C  C66  1  0.02118341  0.24805221  0.24862458  1  0  -0.060742  0  3.663326  0  0  -0.081933  0  3.911733  0  0  -0.084579  0  3.932794  0  0  -0.071032  -0.080212  0  3.897633  0
C  C67  1  0.97882233  0.74805406  0.25137955  1  0  -0.060642  0  3.663126  0  0  -0.081831  0  3.911569  0  0  -0.084481  0  3.932635  0  0  -0.070992  -0.080108  0  3.897463  0
C  C68  1  0.97881893  0.75194897  0.75137914  1  0  -0.060725  0  3.663206  0  0  -0.081945  0  3.911659  0  0  -0.084594  0  3.932729  0  0  -0.071044  -0.080223  0  3.89756  0
C  C69  1  0.02118369  0.25194384  0.74861917  1  0  -0.060803  0  3.663294  0  0  -0.081967  0  3.911681  0  0  -0.084618  0  3.932747  0  0  -0.071046  -0.080242  0  3.897566  0
C  C70  1  0.11987400  0.27237858  0.34152555  1  0  -0.077546  0  3.695521  0  0  -0.098355  0  3.947718  0  0  -0.098799  0  3.966477  0  0  -0.075854  -0.097676  0  3.934504  0
C  C71  1  0.88013032  0.77238286  0.15847647  1  0  -0.077572  0  3.695537  0  0  -0.098358  0  3.947718  0  0  -0.098839  0  3.966474  0  0  -0.075831  -0.097705  0  3.934499  0
C  C72  1  0.88012590  0.72762179  0.65847718  1  0  -0.077507  0  3.695499  0  0  -0.09832  0  3.947662  0  0  -0.098806  0  3.966393  0  0  -0.075839  -0.09765  0  3.93446  0
C  C73  1  0.11987325  0.22761915  0.84152432  1  0  -0.077486  0  3.695653  0  0  -0.098266  0  3.947771  0  0  -0.098743  0  3.966522  0  0  -0.075785  -0.0976  0  3.934546  0
C  C74  1  0.14064105  0.19217689  0.41874873  1  0  0.078925  0  3.705457  0  0  0.061642  0  3.955994  0  0  0.063668  0  3.981392  0  0  0.077001  0.063283  0  3.940852  0
C  C75  1  0.85936640  0.69218342  0.08125332  1  0  0.078786  0  3.705846  0  0  0.061563  0  3.956147  0  0  0.063499  0  3.981503  0  0  0.076943  0.063202  0  3.941009  0
C  C76  1  0.85936007  0.80782265  0.58125259  1  0  0.07882  0  3.705646  0  0  0.061625  0  3.956039  0  0  0.063655  0  3.981449  0  0  0.077007  0.063268  0  3.940893  0
C  C77  1  0.14063717  0.30781777  0.91874746  1  0  0.078811  0  3.705736  0  0  0.061637  0  3.955982  0  0  0.063608  0  3.981349  0  0  0.076951  0.063272  0  3.940857  0
C  C78  1  0.06876281  0.08861281  0.40448795  1  0  -0.093069  0  3.729441  0  0  -0.120237  0  3.990642  0  0  -0.120084  0  4.007842  0  0  -0.080519  -0.119978  0  3.978357  0
C  C79  1  0.93124065  0.58861670  0.09551087  1  0  -0.092962  0  3.729416  0  0  -0.120188  0  3.990589  0  0  -0.120042  0  4.00781  0  0  -0.080494  -0.119937  0  3.978326  0
C  C80  1  0.93123953  0.91138509  0.59551348  1  0  -0.092954  0  3.729423  0  0  -0.120164  0  3.990644  0  0  -0.120011  0  4.007844  0  0  -0.080525  -0.119911  0  3.978368  0
C  C81  1  0.06876170  0.41138449  0.90448675  1  0  -0.092924  0  3.729362  0  0  -0.12015  0  3.990529  0  0  -0.120003  0  4.007741  0  0  -0.080488  -0.119894  0  3.97826  0
C  C82  1  0.96631779  0.06680672  0.31278102  1  0  -0.081835  0  3.704852  0  0  -0.103062  0  3.954034  0  0  -0.105646  0  3.97416  0  0  -0.080412  -0.101376  0  3.940532  0
C  C83  1  0.03368586  0.56681016  0.18721601  1  0  -0.08201  0  3.704844  0  0  -0.103247  0  3.954041  0  0  -0.105835  0  3.974166  0  0  -0.080484  -0.101566  0  3.940548  0
C  C84  1  0.03368578  0.93319283  0.68722053  1  0  -0.082123  0  3.704972  0  0  -0.103399  0  3.95416  0  0  -0.105987  0  3.974286  0  0  -0.080557  -0.101715  0  3.940656  0
C  C85  1  0.96631527  0.43319103  0.81278148  1  0  -0.082186  0  3.704823  0  0  -0.10344  0  3.954038  0  0  -0.106028  0  3.974162  0  0  -0.080558  -0.101752  0  3.940538  0
S  S86  1  0.66106198  0.04444619  0.15972442  1  0  -0.268553  0  2.249271  0  0  -0.226564  0  2.613876  0  0  -0.249273  0  2.61254  0  0  -0.108273  -0.210751  0  2.614581  0
S  S87  1  0.33893575  0.54444535  0.34027557  1  0  -0.268529  0  2.249368  0  0  -0.226543  0  2.614033  0  0  -0.249253  0  2.612692  0  0  -0.108278  -0.210758  0  2.614725  0
S  S88  1  0.33893303  0.95555254  0.84027707  1  0  -0.268479  0  2.249472  0  0  -0.226477  0  2.614146  0  0  -0.249191  0  2.612809  0  0  -0.108226  -0.210675  0  2.614849  0
S  S89  1  0.66106538  0.45555419  0.65972421  1  0  -0.2685  0  2.249342  0  0  -0.226506  0  2.614002  0  0  -0.249217  0  2.612673  0  0  -0.108258  -0.210714  0  2.614703  0
N  N90  1  0.86592923  0.16664402  0.05189665  1  0  -0.372417  0  3.150125  0  0  -0.341384  0  3.428983  0  0  -0.361155  0  3.446438  0  0  -0.316912  -0.327557  0  3.416612  0
N  N91  1  0.13406989  0.66664588  0.44810276  1  0  -0.372357  0  3.150205  0  0  -0.341276  0  3.429045  0  0  -0.36104  0  3.44648  0  0  -0.316842  -0.327451  0  3.416667  0
N  N92  1  0.13407433  0.83335552  0.94810567  1  0  -0.372485  0  3.150134  0  0  -0.341411  0  3.428997  0  0  -0.361178  0  3.446431  0  0  -0.316899  -0.327581  0  3.416624  0
N  N93  1  0.86593002  0.33335120  0.55189538  1  0  -0.372424  0  3.150022  0  0  -0.341363  0  3.428885  0  0  -0.361134  0  3.446333  0  0  -0.316836  -0.327527  0  3.416512  0
N  N94  1  0.23608753  0.21695449  0.51956049  1  0  0.472004  0  3.956076  0  0  0.53066  0  4.211219  0  0  0.535385  0  4.245228  0  0  0.055593  0.515911  0  4.206912  0
N  N95  1  0.76391784  0.71695842  0.98044069  1  0  0.471719  0  3.956486  0  0  0.530685  0  4.211288  0  0  0.535733  0  4.244794  0  0  0.055572  0.515941  0  4.206981  0
N  N96  1  0.76391360  0.78304423  0.48044082  1  0  0.471908  0  3.956111  0  0  0.530596  0  4.211199  0  0  0.535305  0  4.245223  0  0  0.055582  0.515849  0  4.206893  0
N  N97  1  0.23608207  0.28304359  0.01955898  1  0  0.471701  0  3.956426  0  0  0.530615  0  4.21127  0  0  0.535551  0  4.244931  0  0  0.055536  0.515867  0  4.206967  0
Cl  Cl98  1  0.63975377  0.35291940  0.97493271  1  0  -0.075484  0  1.349761  0  0  -0.054242  0  1.574261  0  0  -0.05815  0  1.571234  0  0  0.001832  -0.051243  0  1.576375  0
Cl  Cl99  1  0.36024186  0.85291788  0.52506700  1  0  -0.075482  0  1.349842  0  0  -0.054228  0  1.574309  0  0  -0.058137  0  1.571282  0  0  0.001798  -0.051278  0  1.576436  0
Cl  Cl100  1  0.36024735  0.64708014  0.02507166  1  0  -0.075466  0  1.349829  0  0  -0.054231  0  1.574324  0  0  -0.05814  0  1.571298  0  0  0.001822  -0.051259  0  1.576444  0
Cl  Cl101  1  0.63974949  0.14708002  0.47492804  1  0  -0.075455  0  1.349713  0  0  -0.054211  0  1.574197  0  0  -0.058118  0  1.571168  0  0  0.001853  -0.051235  0  1.576313  0
O  O102  1  0.25292704  0.14319807  0.58602671  1  0  -0.353119  0  1.780927  0  0  -0.344033  0  1.980895  0  0  -0.349658  0  1.985158  0  0  -0.125145  -0.33625  0  1.98387  0
O  O103  1  0.74707285  0.64320521  0.91397530  1  0  -0.35301  0  1.781214  0  0  -0.344057  0  1.981098  0  0  -0.34979  0  1.985201  0  0  -0.12517  -0.336281  0  1.984093  0
O  O104  1  0.74707409  0.85679983  0.41397384  1  0  -0.353111  0  1.780872  0  0  -0.344019  0  1.980795  0  0  -0.349638  0  1.98507  0  0  -0.125151  -0.336239  0  1.98376  0
O  O105  1  0.25292339  0.35679680  0.08602326  1  0  -0.353042  0  1.781299  0  0  -0.344061  0  1.981177  0  0  -0.349764  0  1.985344  0  0  -0.125147  -0.336269  0  1.984148  0
O  O106  1  0.29356339  0.31092007  0.53473364  1  0  -0.372718  0  1.833239  0  0  -0.369067  0  2.059125  0  0  -0.375286  0  2.062353  0  0  -0.138712  -0.360932  0  2.062847  0
O  O107  1  0.70644482  0.81092818  0.96527131  1  0  -0.372526  0  1.833143  0  0  -0.369048  0  2.058957  0  0  -0.375384  0  2.062028  0  0  -0.138682  -0.360929  0  2.06271  0
O  O108  1  0.70643773  0.68908112  0.46526920  1  0  -0.372607  0  1.833274  0  0  -0.369012  0  2.059173  0  0  -0.375227  0  2.062413  0  0  -0.13871  -0.360878  0  2.062879  0
O  O109  1  0.29355631  0.18907218  0.03473001  1  0  -0.372522  0  1.833053  0  0  -0.369046  0  2.058886  0  0  -0.375341  0  2.062008  0  0  -0.138685  -0.360912  0  2.06263  0
