# generated using pymatgen
data_AlH10C19I2NO5
_symmetry_space_group_name_H-M   'P 1'
_cell_length_a   6.63763435
_cell_length_b   25.73622092
_cell_length_c   28.52277969
_cell_angle_alpha   90.35459595
_cell_angle_beta   90.43323342
_cell_angle_gamma   88.48925167
_symmetry_Int_Tables_number   1
_chemical_formula_structural   AlH10C19I2NO5
_chemical_formula_sum   'Al4 H40 C76 I8 N4 O20'
_cell_volume   4870.55832625
_cell_formula_units_Z   4
loop_
 _symmetry_equiv_pos_site_id
 _symmetry_equiv_pos_as_xyz
  1  'x, y, z'
loop_
 _atom_site_type_symbol
 _atom_site_label
 _atom_site_symmetry_multiplicity
 _atom_site_fract_x
 _atom_site_fract_y
 _atom_site_fract_z
 _atom_site_occupancy
 _atom_site_pbe_bader_charge
 _atom_site_pbe_bader_spin_density
 _atom_site_pbe_cm5_charge
 _atom_site_pbe_ddec_charge
 _atom_site_pbe_ddec_spin_density
 _atom_site_pbe_ddec_sum_bond_order
 _atom_site_pbe_magmom
Al  Al0  1  0.77088102  0.74852662  0.74685950  1  2.493836  0  0.393794  1.647775  0  2.566069  0
Al  Al1  1  0.22911634  0.25147440  0.25314217  1  2.493808  0  0.393793  1.647738  0  2.566072  0
Al  Al2  1  0.27099187  0.74691998  0.74567513  1  2.495647  0  0.389196  1.654154  0  2.557388  0
Al  Al3  1  0.72900840  0.25308259  0.25432585  1  2.495571  0  0.389144  1.654053  0  2.557433  0
H  H4  1  0.69480028  0.65045083  0.63761751  1  0.106768  0  0.110568  0.117147  0  1.000904  0
H  H5  1  0.30521210  0.34955093  0.36238420  1  0.106635  0  0.110558  0.117165  0  1.000912  0
H  H6  1  0.33255048  0.56925059  0.57791800  1  0.116846  0  0.105972  0.104905  0  1.0318  0
H  H7  1  0.66745137  0.43075080  0.42208054  1  0.116841  0  0.105989  0.104936  0  1.031768  0
H  H8  1  0.33964029  0.63482346  0.64371916  1  0.084281  0  0.108216  0.113557  0  1.007776  0
H  H9  1  0.66036767  0.36517675  0.35628078  1  0.084331  0  0.108205  0.113554  0  1.007758  0
H  H10  1  0.75320012  0.67551065  0.87429183  1  0.119124  0  0.107514  0.115271  0  0.993027  0
H  H11  1  0.24679003  0.32448573  0.12571367  1  0.119283  0  0.107504  0.115255  0  0.993046  0
H  H12  1  0.15070439  0.47321999  0.92399213  1  0.059459  0  0.104081  0.106322  0  0.997613  0
H  H13  1  0.84931445  0.52677515  0.07600816  1  0.059295  0  0.104023  0.106303  0  0.997483  0
H  H14  1  0.24159513  0.05356973  0.39751544  1  0.085977  0  0.106469  0.112682  0  0.987295  0
H  H15  1  0.75839311  0.94643247  0.60248237  1  0.085788  0  0.106489  0.112672  0  0.987292  0
H  H16  1  0.23451308  0.12180563  0.33547037  1  0.094667  0  0.11401  0.122499  0  0.980713  0
H  H17  1  0.76547636  0.87820124  0.66453167  1  0.094671  0  0.114034  0.122448  0  0.980897  0
H  H18  1  0.20208708  0.06045284  0.49571964  1  0.06645  0  0.08477  0.087152  0  1.059818  0
H  H19  1  0.79790446  0.93954508  0.50427956  1  0.066215  0  0.08478  0.087175  0  1.059813  0
H  H20  1  0.76361183  0.11294848  0.05242393  1  0.069114  0  0.098131  0.103838  0  1.028637  0
H  H21  1  0.23638389  0.88705449  0.94757670  1  0.069042  0  0.098122  0.103809  0  1.028676  0
H  H22  1  0.20412081  0.05459891  0.10371846  1  0.06337  0  0.103559  0.106936  0  0.997248  0
H  H23  1  0.79587798  0.94540327  0.89628252  1  0.06331  0  0.103624  0.107013  0  0.997288  0
H  H24  1  0.21133498  0.11966520  0.16791540  1  0.095156  0  0.105732  0.109982  0  1.001479  0
H  H25  1  0.78867449  0.88033502  0.83208770  1  0.095318  0  0.105714  0.109999  0  1.001498  0
H  H26  1  0.34500823  0.97963753  0.07638467  1  0.057346  0  0.103673  0.102679  0  1.002173  0
H  H27  1  0.65499204  0.02036504  0.92361526  1  0.057285  0  0.103682  0.102698  0  1.002138  0
H  H28  1  0.35873186  0.91328986  0.01422414  1  0.085158  0  0.104208  0.106333  0  0.997178  0
H  H29  1  0.64126230  0.08671388  0.98577509  1  0.085007  0  0.104193  0.106335  0  0.997217  0
H  H30  1  0.13720285  0.41026074  0.98823221  1  0.039981  0  0.103985  0.103922  0  0.999925  0
H  H31  1  0.86281911  0.58973283  0.01176773  1  0.039836  0  0.10395  0.103791  0  1.000052  0
H  H32  1  0.20517453  0.98663924  0.55130582  1  0.055661  0  0.097895  0.104032  0  0.996349  0
H  H33  1  0.79481849  0.01335907  0.44869339  1  0.055691  0  0.097926  0.104013  0  0.996354  0
H  H34  1  0.68656813  0.58536456  0.57153020  1  0.095899  0  0.105851  0.104084  0  1.031768  0
H  H35  1  0.31343070  0.41463723  0.42847219  1  0.095866  0  0.105875  0.104131  0  1.031677  0
H  H36  1  0.73488419  0.61436672  0.94087316  1  0.046185  0  0.104206  0.107789  0  0.997111  0
H  H37  1  0.26512711  0.38562884  0.05913168  1  0.046217  0  0.104173  0.107708  0  0.997129  0
H  H38  1  0.29689907  0.54252382  0.89686540  1  0.084431  0  0.099204  0.105626  0  1.024962  0
H  H39  1  0.70310153  0.45747368  0.10313066  1  0.084496  0  0.099233  0.105688  0  1.024846  0
H  H40  1  0.52810221  0.68395023  0.76627264  1  0.610957  0  0.318497  0.393939  0  0.933629  0
H  H41  1  0.47189510  0.31605157  0.23372869  1  0.610931  0  0.318504  0.393964  0  0.933594  0
H  H42  1  0.02165180  0.80949109  0.76912021  1  0.625622  0  0.346434  0.422886  0  0.869306  0
H  H43  1  0.97834551  0.19051071  0.23088042  1  0.625671  0  0.346401  0.422926  0  0.869331  0
C  C44  1  0.51228069  0.80455263  0.67930749  1  1.599457  0  0.267755  0.646271  0  4.09159  0
C  C45  1  0.48768802  0.19544884  0.32069449  1  1.599467  0  0.267636  0.646379  0  4.091386  0
C  C46  1  0.51519495  0.81165134  0.81067513  1  1.590563  0  0.262627  0.652773  0  4.086223  0
C  C47  1  0.48479184  0.18835009  0.18932653  1  1.589769  0  0.26252  0.652559  0  4.0865  0
C  C48  1  0.03059114  0.68408704  0.80989642  1  1.575443  0  0.253548  0.634728  0  4.12858  0
C  C49  1  0.96939126  0.31591246  0.19010522  1  1.575307  0  0.253411  0.634504  0  4.128618  0
C  C50  1  0.02124819  0.68385266  0.68423019  1  1.56423  0  0.261809  0.626771  0  4.124408  0
C  C51  1  0.97876125  0.31614794  0.31577116  1  1.56404  0  0.261848  0.62677  0  4.12413  0
C  C52  1  0.83305190  0.63226320  0.62422916  1  -0.068783  0  -0.077792  -0.082554  0  3.950741  0
C  C53  1  0.16695604  0.36773740  0.37577253  1  -0.06915  0  -0.07778  -0.082613  0  3.950828  0
C  C54  1  0.82845326  0.59631240  0.58773453  1  0.00506  0  -0.07968  -0.105409  0  3.952877  0
C  C55  1  0.17154556  0.40368940  0.41226645  1  0.005068  0  -0.079675  -0.105458  0  3.952817  0
C  C56  1  0.00905707  0.57324050  0.57117885  1  -0.071885  0  -0.000995  0.025846  0  3.981113  0
C  C57  1  0.99093883  0.42675975  0.42882177  1  -0.072154  0  -0.001027  0.02586  0  3.981056  0
C  C58  1  0.19417049  0.58728541  0.59130628  1  -0.014658  0  -0.080067  -0.106729  0  3.95196  0
C  C59  1  0.80582986  0.41271599  0.40869400  1  -0.01403  0  -0.080026  -0.106685  0  3.951942  0
C  C60  1  0.19806794  0.62341900  0.62765951  1  0.004692  0  -0.080767  -0.087966  0  3.973346  0
C  C61  1  0.80193696  0.37658200  0.37234183  1  0.004286  0  -0.080817  -0.088113  0  3.973351  0
C  C62  1  0.01771328  0.64583649  0.64458453  1  -0.033919  0  -0.014661  -0.038401  0  3.965243  0
C  C63  1  0.98229162  0.35416451  0.35541751  1  -0.033055  0  -0.014657  -0.038234  0  3.965091  0
C  C64  1  0.99572364  0.46563563  0.46678515  1  0.961423  0  0.242866  0.244064  0  3.977286  0
C  C65  1  0.00427224  0.53436501  0.53321478  1  0.961161  0  0.242849  0.24399  0  3.977389  0
C  C66  1  0.87350274  0.64661414  0.88022799  1  -0.040008  0  -0.084112  -0.082328  0  4.005084  0
C  C67  1  0.12649481  0.35338417  0.11977614  1  -0.040247  0  -0.084077  -0.082355  0  4.005276  0
C  C68  1  0.86429786  0.61245188  0.91755017  1  0.014902  0  -0.092768  -0.140603  0  3.989515  0
C  C69  1  0.13571193  0.38754368  0.08245326  1  0.015471  0  -0.092843  -0.140542  0  3.98953  0
C  C70  1  0.01644538  0.57411405  0.92419225  1  -0.039881  0  -0.001895  0.090571  0  3.994775  0
C  C71  1  0.98356588  0.42588189  0.07580873  1  -0.040271  0  -0.001965  0.090445  0  3.994762  0
C  C72  1  0.17656606  0.57168115  0.89223156  1  0.015566  0  -0.099602  -0.178744  0  3.975942  0
C  C73  1  0.82343610  0.42831558  0.10776660  1  0.015531  0  -0.099616  -0.17879  0  3.976017  0
C  C74  1  0.18569730  0.60619664  0.85482571  1  -0.29415  0  -0.038914  0.05692  0  3.875017  0
C  C75  1  0.81429567  0.39380245  0.14517350  1  -0.294364  0  -0.038841  0.056923  0  3.875109  0
C  C76  1  0.03411467  0.64480012  0.84829105  1  0.053148  0  -0.023558  -0.083851  0  3.961754  0
C  C77  1  0.96587825  0.35519975  0.15170956  1  0.05279  0  -0.023478  -0.083611  0  3.961644  0
C  C78  1  0.08717370  0.48547677  0.95756399  1  -0.038378  0  -0.089235  -0.123605  0  3.989831  0
C  C79  1  0.91284669  0.51451797  0.04243630  1  -0.038088  0  -0.089312  -0.123806  0  3.989626  0
C  C80  1  0.07924386  0.44982813  0.99388149  1  -0.085219  0  -0.090163  -0.127437  0  3.998028  0
C  C81  1  0.92077800  0.55016700  0.00611811  1  -0.085139  0  -0.090183  -0.127261  0  3.997883  0
C  C82  1  0.99170854  0.46355922  0.03711840  1  0.047858  0  -0.007469  0.066269  0  4.00151  0
C  C83  1  0.00830878  0.53643632  0.96288259  1  0.048241  0  -0.007522  0.066149  0  4.001496  0
C  C84  1  0.62690004  0.16516161  0.40114179  1  -0.156559  0  -0.047748  0.008657  0  3.863621  0
C  C85  1  0.37310805  0.83483666  0.59885919  1  -0.156928  0  -0.047596  0.00875  0  3.863572  0
C  C86  1  0.62811330  0.12700894  0.43639374  1  -0.229419  0  -0.052859  -0.026981  0  3.851229  0
C  C87  1  0.37188884  0.87298818  0.56360548  1  -0.229073  0  -0.052936  -0.027068  0  3.851346  0
C  C88  1  0.49406736  0.08531857  0.43441925  1  0.002145  0  -0.005674  0.059453  0  3.980679  0
C  C89  1  0.50592716  0.91467973  0.56557995  1  0.001835  0  -0.005639  0.0595  0  3.980647  0
C  C90  1  0.34930956  0.08485026  0.39836679  1  -0.061303  0  -0.090143  -0.12912  0  3.99714  0
C  C91  1  0.65068325  0.91515116  0.60163278  1  -0.061149  0  -0.090133  -0.129118  0  3.997102  0
C  C92  1  0.34605492  0.12241794  0.36367776  1  0.055136  0  -0.079869  -0.080827  0  3.99231  0
C  C93  1  0.65393618  0.87758660  0.63632322  1  0.055155  0  -0.080008  -0.080842  0  3.992375  0
C  C94  1  0.48898234  0.16154323  0.36333161  1  -0.018753  0  -0.017281  -0.066102  0  3.947543  0
C  C95  1  0.51101944  0.83845933  0.63667008  1  -0.018743  0  -0.017232  -0.066013  0  3.947399  0
C  C96  1  0.33245362  0.03376827  0.49743319  1  -0.026614  0  -0.095795  -0.120642  0  3.977328  0
C  C97  1  0.66754090  0.96623003  0.50256427  1  -0.026544  0  -0.095733  -0.120698  0  3.977254  0
C  C98  1  0.33429198  0.99233737  0.52864677  1  -0.050432  0  -0.097034  -0.125909  0  4.002057  0
C  C99  1  0.66570109  0.00766015  0.47135138  1  -0.050317  0  -0.097065  -0.125819  0  4.001945  0
C  C100  1  0.50142119  0.95796625  0.53143249  1  -0.019932  0  -0.017328  0.062414  0  4.02351  0
C  C101  1  0.49857188  0.04203127  0.46856531  1  -0.02049  0  -0.017418  0.062226  0  4.023622  0
C  C102  1  0.64307906  0.15106768  0.11357881  1  -0.26474  0  -0.040503  0.052089  0  3.892343  0
C  C103  1  0.35691825  0.84893411  0.88642217  1  -0.264546  0  -0.040552  0.052006  0  3.892355  0
C  C104  1  0.64108199  0.11406789  0.07763216  1  0.022791  0  -0.101283  -0.181331  0  3.982388  0
C  C105  1  0.35891672  0.88593546  0.92236813  1  0.022834  0  -0.101294  -0.181212  0  3.982413  0
C  C106  1  0.48694725  0.07787849  0.07378981  1  -0.008012  0  -0.00228  0.091153  0  3.998216  0
C  C107  1  0.51304998  0.92212447  0.92621047  1  -0.008605  0  -0.002277  0.09107  0  3.998255  0
C  C108  1  0.33055446  0.08063969  0.10675827  1  -0.0088  0  -0.093147  -0.140585  0  3.988189  0
C  C109  1  0.66944888  0.91936210  0.89324342  1  -0.008618  0  -0.093223  -0.14069  0  3.98813  0
C  C110  1  0.33331853  0.11734172  0.14260760  1  -0.026938  0  -0.083361  -0.080289  0  4.009821  0
C  C111  1  0.66668640  0.88265890  0.85739514  1  -0.02711  0  -0.083281  -0.080199  0  4.00982  0
C  C112  1  0.49034062  0.15267422  0.14765470  1  0.001539  0  -0.023097  -0.084271  0  3.946484  0
C  C113  1  0.50966573  0.84732756  0.85234734  1  0.001568  0  -0.023089  -0.08432  0  3.946451  0
C  C114  1  0.41065512  0.98913228  0.04266826  1  -0.059585  0  -0.089565  -0.125046  0  3.993754  0
C  C115  1  0.58934058  0.01087107  0.95733132  1  -0.059373  0  -0.089569  -0.12503  0  3.993773  0
C  C116  1  0.41853240  0.95156131  0.00746109  1  -0.097771  0  -0.090145  -0.124206  0  3.987461  0
C  C117  1  0.58146179  0.04844204  0.99253849  1  -0.097595  0  -0.09017  -0.124301  0  3.987539  0
C  C118  1  0.50778869  0.96159379  0.96396919  1  0.019639  0  -0.008704  0.063586  0  4.002739  0
C  C119  1  0.49220402  0.03840918  0.03603109  1  0.019518  0  -0.008714  0.063591  0  4.002688  0
I  I120  1  0.81012256  0.23033969  0.40789450  1  0.17017  0  0.101992  0.016671  0  1.631887  0
I  I121  1  0.18990839  0.76965464  0.59210405  1  0.170338  0  0.101935  0.016617  0  1.631834  0
I  I122  1  0.81956749  0.13249263  0.49570014  1  0.109354  0  0.073755  -0.03481  0  1.561052  0
I  I123  1  0.18043022  0.86750334  0.50430047  1  0.109352  0  0.073774  -0.034761  0  1.561071  0
I  I124  1  0.87671590  0.20497107  0.10975687  1  0.126752  0  0.095499  -0.002067  0  1.525298  0
I  I125  1  0.12329048  0.79503032  0.89024518  1  0.126771  0  0.095531  -0.002024  0  1.525319  0
I  I126  1  0.42766777  0.59179159  0.80819623  1  0.121086  0  0.110821  0.009192  0  1.474792  0
I  I127  1  0.57231006  0.40820830  0.19179910  1  0.121019  0  0.110823  0.009187  0  1.474729  0
N  N128  1  0.18168944  0.51200868  0.51952761  1  -0.522595  0  -0.149823  -0.13909  0  3.209271  0
N  N129  1  0.81830793  0.48799233  0.48047232  1  -0.522628  0  -0.149836  -0.139178  0  3.209331  0
N  N130  1  0.17735330  0.47706474  0.48572860  1  -0.555582  0  -0.15022  -0.14135  0  3.210353  0
N  N131  1  0.82264255  0.52293628  0.51427132  1  -0.555352  0  -0.150172  -0.141249  0  3.21034  0
O  O132  1  0.34752508  0.79852474  0.79295639  1  -1.259755  0  -0.239535  -0.597994  0  2.391874  0
O  O133  1  0.65248114  0.20147898  0.20704531  1  -1.258869  0  -0.239505  -0.597993  0  2.391627  0
O  O134  1  0.68342511  0.79443893  0.69792810  1  -1.257068  0  -0.230318  -0.57905  0  2.345726  0
O  O135  1  0.31659180  0.20556283  0.30207536  1  -1.257355  0  -0.23014  -0.578948  0  2.346385  0
O  O136  1  0.85162377  0.70043568  0.69941425  1  -1.254716  0  -0.231006  -0.579424  0  2.367712  0
O  O137  1  0.14836915  0.29956419  0.30058742  1  -1.254904  0  -0.230931  -0.579364  0  2.368062  0
O  O138  1  0.68908489  0.79841218  0.79522747  1  -1.254108  0  -0.240001  -0.60191  0  2.349678  0
O  O139  1  0.31092148  0.20158920  0.20477282  1  -1.254184  0  -0.239909  -0.601669  0  2.35003  0
O  O140  1  0.85695350  0.69980847  0.79573359  1  -1.255091  0  -0.240325  -0.599531  0  2.364607  0
O  O141  1  0.14304249  0.30019061  0.20426773  1  -1.254933  0  -0.240349  -0.599599  0  2.364556  0
O  O142  1  0.34385337  0.79097704  0.69534953  1  -1.255161  0  -0.231882  -0.579154  0  2.390796  0
O  O143  1  0.65616190  0.20902666  0.30465113  1  -1.255074  0  -0.23188  -0.579299  0  2.390036  0
O  O144  1  0.52506372  0.71653592  0.74903715  1  -1.431106  0  -0.452062  -0.982654  0  2.230128  0
O  O145  1  0.47493058  0.28346588  0.25096383  1  -1.431092  0  -0.452067  -0.982656  0  2.230009  0
O  O146  1  0.19896235  0.69920021  0.79502739  1  -1.25914  0  -0.241861  -0.610562  0  2.457769  0
O  O147  1  0.80103052  0.30080043  0.20497323  1  -1.258919  0  -0.24172  -0.610289  0  2.457917  0
O  O148  1  0.19237003  0.69657387  0.70039913  1  -1.261846  0  -0.234205  -0.592216  0  2.389831  0
O  O149  1  0.80762131  0.30342717  0.29960219  1  -1.261728  0  -0.234298  -0.592293  0  2.389283  0
O  O150  1  0.01912562  0.77987821  0.74790650  1  -1.430464  0  -0.447813  -0.977987  0  2.185181  0
O  O151  1  0.98087475  0.22012280  0.25209448  1  -1.430515  0  -0.447779  -0.978009  0  2.185109  0
