# generated using pymatgen
data_AgH8C8N2O2F3
_symmetry_space_group_name_H-M   'P 1'
_cell_length_a   9.32361395
_cell_length_b   10.66426084
_cell_length_c   11.57576215
_cell_angle_alpha   96.28005048
_cell_angle_beta   91.39847370
_cell_angle_gamma   114.68377650
_symmetry_Int_Tables_number   1
_chemical_formula_structural   AgH8C8N2O2F3
_chemical_formula_sum   'Ag4 H32 C32 N8 O8 F12'
_cell_volume   1036.39286860
_cell_formula_units_Z   4
loop_
 _symmetry_equiv_pos_site_id
 _symmetry_equiv_pos_as_xyz
  1  'x, y, z'
loop_
 _atom_site_type_symbol
 _atom_site_label
 _atom_site_symmetry_multiplicity
 _atom_site_fract_x
 _atom_site_fract_y
 _atom_site_fract_z
 _atom_site_occupancy
 _atom_site_pbe_bader_spin_density
 _atom_site_pbe_cm5_charge
 _atom_site_pbe_ddec_charge
 _atom_site_pbe_ddec_spin_density
 _atom_site_pbe_ddec_sum_bond_order
 _atom_site_pbe_magmom
Ag  Ag0  1  0.46671819  0.66740473  0.62217298  1  0  0.459771  0.337686  0  1.788056  0
Ag  Ag1  1  0.53328141  0.33259628  0.37782689  1  0  0.459758  0.337681  0  1.788126  0
Ag  Ag2  1  0.88317723  0.72202662  0.95292274  1  0  0.452384  0.348988  0  1.842304  0
Ag  Ag3  1  0.11682296  0.27797337  0.04707791  1  0  0.452385  0.348995  0  1.842281  0
H  H4  1  0.72054710  0.70961641  0.52021727  1  0  0.278026  0.275152  0  1.002919  0
H  H5  1  0.27945309  0.29038359  0.47978425  1  0  0.27804  0.275143  0  1.002911  0
H  H6  1  0.78052852  0.79299205  0.65947309  1  0  0.277063  0.27313  0  1.026392  0
H  H7  1  0.21947166  0.20700793  0.34052670  1  0  0.277061  0.273123  0  1.026403  0
H  H8  1  0.27644403  0.83083931  0.55138252  1  0  0.113991  0.087312  0  0.99836  0
H  H9  1  0.72355655  0.16916379  0.44861756  1  0  0.113999  0.087324  0  0.998356  0
H  H10  1  0.00180217  0.80788115  0.55562034  1  0  0.109959  0.127446  0  1.001893  0
H  H11  1  0.99819849  0.19211986  0.44437869  1  0  0.10996  0.127418  0  1.001951  0
H  H12  1  0.88294327  0.42724115  0.70730169  1  0  0.105785  0.120902  0  1.003122  0
H  H13  1  0.11705955  0.57275987  0.29269738  1  0  0.105787  0.120887  0  1.003131  0
H  H14  1  0.16512855  0.46564028  0.69634392  1  0  0.112362  0.098353  0  1.031119  0
H  H15  1  0.83487526  0.53436284  0.30365622  1  0  0.112336  0.098311  0  1.031168  0
H  H16  1  0.67227322  0.49278264  0.58107852  1  0  0.096061  0.073556  0  1.033363  0
H  H17  1  0.32772853  0.50721840  0.41892226  1  0  0.09607  0.07354  0  1.033332  0
H  H18  1  0.71335473  0.56930776  0.72779396  1  0  0.102895  0.081513  0  1.01969  0
H  H19  1  0.28664439  0.43069224  0.27220840  1  0  0.102889  0.081513  0  1.019705  0
H  H20  1  0.56506199  0.59056056  0.90066970  1  0  0.279911  0.272478  0  1.013017  0
H  H21  1  0.43493868  0.40944046  0.09933019  1  0  0.279907  0.272473  0  1.013038  0
H  H22  1  0.61074847  0.65710644  0.04048420  1  0  0.282669  0.279915  0  0.997477  0
H  H23  1  0.38925219  0.34289456  0.95951482  1  0  0.28268  0.279962  0  0.997411  0
H  H24  1  0.08932303  0.59030869  0.05539650  1  0  0.10764  0.068549  0  1.04064  0
H  H25  1  0.91067708  0.40969339  0.94460607  1  0  0.107653  0.068544  0  1.040633  0
H  H26  1  0.36295028  0.61113021  0.05013647  1  0  0.103584  0.111594  0  1.058015  0
H  H27  1  0.63704922  0.38887286  0.94986273  1  0  0.103577  0.111569  0  1.057973  0
H  H28  1  0.45789116  0.93809401  0.83371510  1  0  0.102277  0.118572  0  1.019819  0
H  H29  1  0.54210843  0.06190700  0.16628477  1  0  0.102277  0.118586  0  1.019814  0
H  H30  1  0.17667968  0.90249885  0.84637805  1  0  0.113047  0.092151  0  1.039045  0
H  H31  1  0.82331942  0.09750112  0.15362172  1  0  0.113034  0.092132  0  1.039022  0
H  H32  1  0.64330763  0.82453569  0.84667519  1  0  0.096506  0.074043  0  1.046548  0
H  H33  1  0.35669353  0.17546635  0.15332394  1  0  0.096526  0.074051  0  1.046513  0
H  H34  1  0.68063550  0.88759304  0.99592984  1  0  0.111875  0.111438  0  0.983769  0
H  H35  1  0.31936507  0.11241004  0.00406937  1  0  0.111876  0.111425  0  0.983787  0
C  C36  1  0.18597419  0.74287271  0.58577853  1  0  0.04253  0.079486  0  3.955217  0
C  C37  1  0.81402639  0.25713039  0.41422241  1  0  0.042558  0.079492  0  3.95515  0
C  C38  1  0.03106630  0.72885432  0.58822290  1  0  -0.081654  -0.1599  0  3.916356  0
C  C39  1  0.96893437  0.27114671  0.41177786  1  0  -0.081647  -0.159859  0  3.916438  0
C  C40  1  0.91719041  0.61475734  0.63246989  1  0  0.016122  0.148275  0  3.911176  0
C  C41  1  0.08281027  0.38524369  0.36753087  1  0  0.016113  0.148273  0  3.911233  0
C  C42  1  0.96652961  0.51888288  0.67268767  1  0  -0.086292  -0.184403  0  3.955302  0
C  C43  1  0.03347214  0.48111814  0.32731224  1  0  -0.086318  -0.184431  0  3.955325  0
C  C44  1  0.12295996  0.53909427  0.66773960  1  0  0.03739  0.086314  0  3.927668  0
C  C45  1  0.87704327  0.46090989  0.33226149  1  0  0.037478  0.086425  0  3.927585  0
C  C46  1  0.74612897  0.58940965  0.63876637  1  0  -0.069622  -0.027702  0  3.896683  0
C  C47  1  0.25387170  0.41059137  0.36123439  1  0  -0.069635  -0.027712  0  3.896593  0
C  C48  1  0.39906748  0.34492431  0.71823750  1  0  0.195045  0.432183  0  4.358466  0
C  C49  1  0.60092562  0.65506524  0.28176119  1  0  0.195105  0.432389  0  4.358156  0
C  C50  1  0.41117657  0.20275521  0.68974091  1  0  0.290677  0.57028  0  3.997672  0
C  C51  1  0.58882592  0.79724058  0.31025422  1  0  0.290663  0.570131  0  3.997621  0
C  C52  1  0.17358464  0.66477991  0.00526183  1  0  0.032933  0.068521  0  3.996925  0
C  C53  1  0.82641595  0.33522320  0.99473998  1  0  0.03294  0.068594  0  3.996955  0
C  C54  1  0.32744673  0.67693807  0.00179314  1  0  -0.09089  -0.176697  0  3.950068  0
C  C55  1  0.67255659  0.32306403  0.99820864  1  0  -0.090907  -0.176753  0  3.95007  0
C  C56  1  0.43484759  0.77579954  0.93931855  1  0  0.010558  0.142962  0  3.926748  0
C  C57  1  0.56515043  0.22420042  0.06068119  1  0  0.010549  0.14296  0  3.926719  0
C  C58  1  0.37962762  0.85875041  0.88318152  1  0  -0.089164  -0.187361  0  3.953657  0
C  C59  1  0.62037256  0.14124957  0.11681827  1  0  -0.089173  -0.187404  0  3.953637  0
C  C60  1  0.22340057  0.83981714  0.88933886  1  0  0.038933  0.090022  0  3.922855  0
C  C61  1  0.77659794  0.16018385  0.11066012  1  0  0.038979  0.090079  0  3.922859  0
C  C62  1  0.60461159  0.79729961  0.93296613  1  0  -0.075599  -0.051266  0  3.909843  0
C  C63  1  0.39538859  0.20270037  0.06703366  1  0  -0.075595  -0.051208  0  3.909878  0
C  C64  1  0.01662925  0.97341783  0.19800762  1  0  0.184818  0.419782  0  4.370262  0
C  C65  1  0.98337200  0.02658216  0.80199219  1  0  0.184822  0.419778  0  4.370463  0
C  C66  1  0.10025575  0.89996059  0.26595991  1  0  0.287247  0.568226  0  3.996372  0
C  C67  1  0.89974141  0.10003527  0.73404376  1  0  0.287365  0.568357  0  3.996259  0
N  N68  1  0.23232606  0.64989942  0.62492439  1  0  -0.360683  -0.203563  0  3.664754  0
N  N69  1  0.76767560  0.35010368  0.37507572  1  0  -0.360755  -0.203645  0  3.66472  0
N  N70  1  0.70637915  0.70157551  0.60767453  1  0  -0.657707  -0.51723  0  3.48476  0
N  N71  1  0.29362103  0.29842446  0.39232526  1  0  -0.657709  -0.517195  0  3.48472  0
N  N72  1  0.12018069  0.74317392  0.94909977  1  0  -0.358637  -0.205584  0  3.656198  0
N  N73  1  0.87981784  0.25682711  0.05090181  1  0  -0.35866  -0.205588  0  3.656151  0
N  N74  1  0.63642611  0.67819446  0.95661022  1  0  -0.653562  -0.50394  0  3.43759  0
N  N75  1  0.36357455  0.32180654  0.04338881  1  0  -0.653579  -0.504014  0  3.437511  0
O  O76  1  0.34002121  0.37984459  0.63578600  1  0  -0.314197  -0.522164  0  2.303249  0
O  O77  1  0.65995770  0.62013764  0.36421520  1  0  -0.314192  -0.522238  0  2.303389  0
O  O78  1  0.45724684  0.41082459  0.81744526  1  0  -0.315925  -0.529387  0  2.290085  0
O  O79  1  0.54275349  0.58917117  0.18254896  1  0  -0.315929  -0.529435  0  2.289888  0
O  O80  1  0.89355493  0.89685208  0.13527849  1  0  -0.32766  -0.517312  0  2.309377  0
O  O81  1  0.10644740  0.10314791  0.86472134  1  0  -0.327657  -0.517309  0  2.309385  0
O  O82  1  0.08704258  0.10476063  0.21635658  1  0  -0.323001  -0.527743  0  2.318098  0
O  O83  1  0.91296024  0.89524040  0.78364336  1  0  -0.322988  -0.527709  0  2.31816  0
F  F84  1  0.28511917  0.10557201  0.62003958  1  0  -0.105845  -0.198643  0  1.335491  0
F  F85  1  0.71488780  0.89441966  0.37995527  1  0  -0.105848  -0.19858  0  1.335505  0
F  F86  1  0.54411034  0.22352703  0.62984072  1  0  -0.119564  -0.23619  0  1.323043  0
F  F87  1  0.45589561  0.77647608  0.37015774  1  0  -0.11952  -0.236141  0  1.323079  0
F  F88  1  0.42628684  0.14486207  0.78539951  1  0  -0.088601  -0.17922  0  1.394419  0
F  F89  1  0.57371360  0.85513165  0.21459712  1  0  -0.088654  -0.179237  0  1.394427  0
F  F90  1  0.11952451  0.94484265  0.38349791  1  0  -0.110479  -0.210434  0  1.322579  0
F  F91  1  0.88046716  0.05515523  0.61650412  1  0  -0.110525  -0.210528  0  1.32261  0
F  F92  1  0.02021700  0.75868560  0.25282785  1  0  -0.09898  -0.203201  0  1.384794  0
F  F93  1  0.97978202  0.24131645  0.74717297  1  0  -0.099  -0.203259  0  1.384697  0
F  F94  1  0.24907714  0.92891986  0.23041262  1  0  -0.114017  -0.216899  0  1.326502  0
F  F95  1  0.75092094  0.07108021  0.76959577  1  0  -0.114074  -0.216903  0  1.326437  0
