# generated using pymatgen
data_CoH24C21(NO)4
_symmetry_space_group_name_H-M   'P 1'
_cell_length_a   9.60104613
_cell_length_b   14.35650281
_cell_length_c   17.65886663
_cell_angle_alpha   90.00066742
_cell_angle_beta   89.99996257
_cell_angle_gamma   96.43703523
_symmetry_Int_Tables_number   1
_chemical_formula_structural   CoH24C21(NO)4
_chemical_formula_sum   'Co4 H96 C84 N16 O16'
_cell_volume   2418.70797099
_cell_formula_units_Z   4
loop_
 _symmetry_equiv_pos_site_id
 _symmetry_equiv_pos_as_xyz
  1  'x, y, z'
loop_
 _atom_site_type_symbol
 _atom_site_label
 _atom_site_symmetry_multiplicity
 _atom_site_fract_x
 _atom_site_fract_y
 _atom_site_fract_z
 _atom_site_occupancy
 _atom_site_pbe_bader_charge
 _atom_site_pbe_bader_spin_density
 _atom_site_pbe_cm5_charge
 _atom_site_pbe_ddec_charge
 _atom_site_pbe_ddec_spin_density
 _atom_site_pbe_ddec_sum_bond_order
 _atom_site_pbe_magmom
Co  Co0  1  0.73419854  0.73635571  0.59683558  1  1.193805  2.552222  0.665051  0.819959  2.771907  2.567097  2.491
Co  Co1  1  0.26580215  0.76364689  0.09683033  1  1.193548  2.55224  0.665097  0.81986  2.771889  2.567101  2.491
Co  Co2  1  0.26581016  0.26364756  0.40316978  1  1.193835  2.552233  0.665088  0.819898  2.7719  2.56699  2.491
Co  Co3  1  0.73419607  0.23635012  0.90316880  1  1.1934  2.552269  0.665115  0.819945  2.77191  2.566901  2.491
H  H4  1  0.46396658  0.46969942  0.22073094  1  0.072504  2.2e-05  0.110927  0.116614  -3e-05  0.974901  0.0
H  H5  1  0.53602112  0.03030417  0.72073146  1  0.07261  2.2e-05  0.110895  0.116628  -3e-05  0.974955  0.0
H  H6  1  0.53602577  0.53029972  0.77926706  1  0.072506  2.2e-05  0.110923  0.116648  -3e-05  0.974906  0.0
H  H7  1  0.46396798  0.96969428  0.27926881  1  0.072509  2.2e-05  0.110902  0.116614  -3e-05  0.974895  0.0
H  H8  1  0.60175628  0.48510839  0.10200649  1  0.050606  2e-05  0.098915  0.09647  -3.2e-05  1.023218  0.0
H  H9  1  0.39824346  0.01489766  0.60200862  1  0.050647  2e-05  0.098954  0.096468  -3.2e-05  1.023256  0.0
H  H10  1  0.39824212  0.51488370  0.89798698  1  0.050763  2e-05  0.098965  0.096573  -3.2e-05  1.023213  0.0
H  H11  1  0.60176204  0.98509931  0.39798938  1  0.050723  2e-05  0.098986  0.09651  -3.2e-05  1.023287  0.0
H  H12  1  0.97656318  0.56621790  0.23109720  1  0.047704  -9e-06  0.110035  0.115525  -4.4e-05  0.977531  0.0
H  H13  1  0.02343671  0.93378100  0.73109387  1  0.047681  -9e-06  0.110019  0.115543  -4.4e-05  0.977579  0.0
H  H14  1  0.02343267  0.43378333  0.76890137  1  0.04771  -9e-06  0.110021  0.115567  -4.3e-05  0.977465  0.0
H  H15  1  0.97655693  0.06621953  0.26889790  1  0.047819  -9e-06  0.110037  0.115616  -4.3e-05  0.977493  0.0
H  H16  1  0.83816242  0.55232614  0.34940486  1  0.071365  7e-06  0.102067  0.102253  -2.3e-05  1.021183  0.0
H  H17  1  0.16183983  0.94767513  0.84940898  1  0.071188  7e-06  0.102112  0.102334  -2.3e-05  1.021173  0.0
H  H18  1  0.16182651  0.44767722  0.65059483  1  0.071333  7e-06  0.102094  0.102359  -2.3e-05  1.021208  0.0
H  H19  1  0.83815168  0.05233102  0.15059129  1  0.071291  7e-06  0.102104  0.102335  -2.3e-05  1.021132  0.0
H  H20  1  0.45703991  0.53431509  0.35551680  1  0.095912  4.2e-05  0.122627  0.116052  -2.4e-05  0.973535  0.0
H  H21  1  0.54296279  0.96566521  0.85550790  1  0.095527  4.2e-05  0.122672  0.116165  -2.4e-05  0.973643  0.0
H  H22  1  0.54296872  0.46568186  0.64449366  1  0.095712  4.3e-05  0.122653  0.116057  -2.4e-05  0.973684  0.0
H  H23  1  0.45702741  0.03432761  0.14449009  1  0.095556  4.2e-05  0.122681  0.116154  -2.4e-05  0.973647  0.0
H  H24  1  0.51548050  0.42324157  0.37212547  1  0.165513  0.000461  0.117429  0.117341  -1.9e-05  1.025977  0.0
H  H25  1  0.48454647  0.07674365  0.87212306  1  0.165531  0.000462  0.117504  0.11752  -1.9e-05  1.026049  0.0
H  H26  1  0.48452996  0.57675398  0.62787706  1  0.165491  0.000462  0.117476  0.11748  -1.9e-05  1.025959  0.0
H  H27  1  0.51545371  0.92325264  0.12787437  1  0.165435  0.000462  0.117464  0.117447  -1.9e-05  1.026072  0.0
H  H28  1  0.89646154  0.61447520  0.06977282  1  0.146508  0.000263  0.119253  0.121785  4.4e-05  0.999044  0.0
H  H29  1  0.10353771  0.88552491  0.56977296  1  0.14654  0.000263  0.119243  0.1218  4.4e-05  0.998955  0.0
H  H30  1  0.10353351  0.38552743  0.93022914  1  0.146523  0.000263  0.119278  0.1218  4.4e-05  0.999088  0.0
H  H31  1  0.89647610  0.11446010  0.43022277  1  0.146848  0.000263  0.119355  0.12183  4.4e-05  0.998943  0.0
H  H32  1  0.99255407  0.52277150  0.09853978  1  0.080328  0.000123  0.111872  0.09051  -4.7e-05  1.019124  0.0
H  H33  1  0.00743676  0.97722836  0.59853631  1  0.080249  0.000123  0.111868  0.09051  -4.7e-05  1.019006  0.0
H  H34  1  0.00743307  0.47722766  0.90146275  1  0.08021  0.000123  0.111843  0.090522  -4.7e-05  1.019008  0.0
H  H35  1  0.99256547  0.02275600  0.40145659  1  0.079327  0.000123  0.111822  0.090497  -4.7e-05  1.019125  0.0
H  H36  1  0.84864052  0.54348692  0.57064099  1  0.107051  0.001175  0.123665  0.121887  0.0003  0.993932  0.001
H  H37  1  0.15135744  0.95651180  0.07063481  1  0.106998  0.001176  0.123686  0.122023  0.000301  0.993796  0.001
H  H38  1  0.15138026  0.45651980  0.42935644  1  0.106984  0.001175  0.123689  0.122056  0.0003  0.993845  0.001
H  H39  1  0.84863317  0.04347752  0.92935980  1  0.106964  0.001176  0.123714  0.122074  0.000301  0.993681  0.001
H  H40  1  0.74500406  0.42019328  0.45689642  1  0.105148  0.000889  0.126701  0.130726  0.000322  1.01452  0.0
H  H41  1  0.25502493  0.07979805  0.95690149  1  0.105246  0.000888  0.126679  0.130719  0.000322  1.014593  0.0
H  H42  1  0.25501597  0.57980924  0.54310384  1  0.105087  0.000889  0.126676  0.130759  0.000322  1.014527  0.0
H  H43  1  0.74496947  0.92018915  0.04309594  1  0.105093  0.000888  0.126677  0.130817  0.000321  1.014555  0.0
H  H44  1  0.55139062  0.75633580  0.46533860  1  0.079844  0.001092  0.104409  0.152699  0.000501  1.000518  0.0
H  H45  1  0.44859173  0.74365387  0.96534063  1  0.079607  0.001092  0.10435  0.152645  0.000502  1.000483  0.0
H  H46  1  0.44860385  0.24365771  0.53466053  1  0.079756  0.001093  0.104379  0.152653  0.000502  1.000608  0.0
H  H47  1  0.55140454  0.25634384  0.03465963  1  0.07965  0.001093  0.104362  0.152628  0.000502  1.000555  0.0
H  H48  1  0.41342140  0.66547196  0.44791804  1  0.06065  -7.3e-05  0.102012  0.147444  -0.00013  0.99741  0.0
H  H49  1  0.58658183  0.83450615  0.94791807  1  0.085518  -7.5e-05  0.101946  0.147406  -0.00013  0.997433  0.0
H  H50  1  0.58658323  0.33452010  0.55208109  1  0.085544  -7.4e-05  0.10195  0.147418  -0.000129  0.997413  0.0
H  H51  1  0.41342097  0.16548732  0.05207823  1  0.085588  -7.4e-05  0.101964  0.147446  -0.00013  0.997389  0.0
H  H52  1  0.53182983  0.70112200  0.37431607  1  0.108445  6.3e-05  0.103099  0.15485  -3.3e-05  1.018821  0.0
H  H53  1  0.46816340  0.79885792  0.87431240  1  0.056303  6.7e-05  0.103071  0.154804  -3.3e-05  1.018734  0.0
H  H54  1  0.46816623  0.29886870  0.62568306  1  0.108399  6.3e-05  0.103114  0.154847  -3.3e-05  1.018838  0.0
H  H55  1  0.53183879  0.20113205  0.12568220  1  0.108408  6.3e-05  0.103114  0.154851  -3.3e-05  1.018827  0.0
H  H56  1  0.66854855  0.43618293  0.86203633  1  0.167609  0.000924  0.119485  0.123464  0.000374  1.043727  0.001
H  H57  1  0.33143423  0.06381146  0.36203197  1  0.16724  0.000925  0.119493  0.123525  0.000374  1.043711  0.001
H  H58  1  0.33142960  0.56381837  0.13797016  1  0.167274  0.000925  0.119441  0.123387  0.000374  1.043763  0.001
H  H59  1  0.66855666  0.93619118  0.63796207  1  0.16731  0.000925  0.119504  0.123465  0.000374  1.043746  0.001
H  H60  1  0.74819701  0.59191687  0.95595362  1  0.131125  0.000795  0.132086  0.139253  0.000307  0.979207  0.0
H  H61  1  0.25178774  0.90808038  0.45594977  1  0.131099  0.000795  0.132088  0.139229  0.000307  0.979155  0.0
H  H62  1  0.25179039  0.40808369  0.04405400  1  0.13117  0.000795  0.132088  0.139269  0.000307  0.979115  0.0
H  H63  1  0.74821777  0.09191659  0.54404710  1  0.131143  0.000795  0.132033  0.139216  0.000307  0.979221  0.0
H  H64  1  0.89782521  0.26124792  0.04639533  1  0.118775  0.000266  0.10655  0.164996  8.2e-05  1.011142  0.0
H  H65  1  0.10217549  0.23875734  0.54639746  1  0.118691  0.000266  0.106539  0.164992  8.2e-05  1.011106  0.0
H  H66  1  0.10216701  0.73875051  0.95360267  1  0.118811  0.000266  0.106535  0.164954  8.2e-05  1.011195  0.0
H  H67  1  0.89781366  0.76123550  0.45360847  1  0.118762  0.000266  0.106516  0.165035  8.2e-05  1.011033  0.0
H  H68  1  0.82085196  0.31983396  0.12329071  1  0.072849  7.2e-05  0.099884  0.147638  1e-06  1.001189  0.0
H  H69  1  0.17915514  0.18016675  0.62328715  1  0.072699  7.3e-05  0.099875  0.147658  1e-06  1.001204  0.0
H  H70  1  0.17914089  0.68016798  0.87670672  1  0.072848  7.2e-05  0.099886  0.147599  1e-06  1.001221  0.0
H  H71  1  0.82083718  0.81982046  0.37671708  1  0.072757  7.2e-05  0.099847  0.14767  1e-06  1.001137  0.0
H  H72  1  0.99126191  0.36038140  0.09117329  1  0.059439  0.000269  0.101132  0.144738  0.000112  0.998175  0.0
H  H73  1  0.00874265  0.13962237  0.59117168  1  0.059479  0.000269  0.101148  0.144802  0.000112  0.998242  0.0
H  H74  1  0.00873565  0.63961771  0.90882980  1  0.05942  0.000269  0.101105  0.144701  0.000112  0.998181  0.0
H  H75  1  0.99125408  0.86036622  0.40883198  1  0.059478  0.000269  0.101184  0.144854  0.000111  0.998334  0.0
H  H76  1  0.09930377  0.63734430  0.72473472  1  0.052199  0.000339  0.092252  0.105894  9.7e-05  1.008471  0.0
H  H77  1  0.90068539  0.86267630  0.22473696  1  0.051945  0.000339  0.092248  0.105973  9.7e-05  1.008325  0.0
H  H78  1  0.90069748  0.36266391  0.27526668  1  0.052226  0.000339  0.092205  0.105855  9.7e-05  1.008553  0.0
H  H79  1  0.09931049  0.13733685  0.77526670  1  0.051943  0.000339  0.092226  0.10588  9.7e-05  1.008465  0.0
H  H80  1  0.09407155  0.75595035  0.74685675  1  0.051766  0.000354  0.094902  0.109049  8.2e-05  0.992164  0.0
H  H81  1  0.90593650  0.74407118  0.24684936  1  0.051835  0.000354  0.094866  0.109088  8.2e-05  0.992286  0.0
H  H82  1  0.90593895  0.24405712  0.25314747  1  0.051882  0.000354  0.094965  0.109174  8.2e-05  0.992112  0.0
H  H83  1  0.09408057  0.25594397  0.75315260  1  0.051645  0.000354  0.094929  0.10915  8.2e-05  0.992105  0.0
H  H84  1  0.26464921  0.79484725  0.63341588  1  0.059914  0.000115  0.084138  0.073807  -1.1e-05  1.016783  0.0
H  H85  1  0.73534371  0.70515871  0.13342120  1  0.059737  0.000115  0.084189  0.073892  -1.1e-05  1.016793  0.0
H  H86  1  0.73535442  0.20515675  0.36658269  1  0.059631  0.000115  0.084174  0.073843  -1.1e-05  1.01682  0.0
H  H87  1  0.26466462  0.29484246  0.86658359  1  0.059681  0.000115  0.084189  0.073913  -1.1e-05  1.016685  0.0
H  H88  1  0.28667139  0.67554104  0.63057820  1  0.016057  0.000376  0.083325  0.070099  0.00011  1.029738  0.0
H  H89  1  0.71331644  0.82446560  0.13057505  1  0.015912  0.000376  0.083287  0.070083  0.00011  1.029623  0.0
H  H90  1  0.71332936  0.32446437  0.36942490  1  0.015937  0.000376  0.083282  0.070016  0.00011  1.029712  0.0
H  H91  1  0.28668490  0.17553139  0.86942748  1  0.015587  0.000376  0.08326  0.070015  0.00011  1.029661  0.0
H  H92  1  0.34508575  0.80302813  0.76896367  1  0.033742  0.001704  0.086406  0.091482  0.000631  1.044969  0.001
H  H93  1  0.65488899  0.69698194  0.26896272  1  0.033854  0.001704  0.086384  0.091418  0.000631  1.044975  0.001
H  H94  1  0.65491213  0.19697870  0.23103546  1  0.034146  0.001704  0.086404  0.091411  0.000631  1.045015  0.001
H  H95  1  0.34510398  0.30302070  0.73104377  1  0.033713  0.001704  0.086362  0.091435  0.000631  1.044965  0.001
H  H96  1  0.36971336  0.68238532  0.76508798  1  0.042007  0.000132  0.089488  0.098804  -1e-05  1.026037  0.0
H  H97  1  0.63029139  0.81762947  0.26509216  1  0.041698  0.000132  0.089453  0.098651  -1e-05  1.026044  0.0
H  H98  1  0.63029560  0.31761935  0.23491172  1  0.041881  0.000132  0.08947  0.098743  -1e-05  1.026079  0.0
H  H99  1  0.36969821  0.18237178  0.73490754  1  0.041747  0.000132  0.089447  0.098662  -1e-05  1.025945  0.0
C  C100  1  0.64109427  0.50976909  0.29317346  1  -0.110017  0.000281  -0.006259  0.095965  0.000134  3.956197  0.0
C  C101  1  0.35890724  0.99023349  0.79317677  1  -0.109788  0.000281  -0.006175  0.096189  0.000134  3.955858  0.0
C  C102  1  0.35890507  0.49023422  0.70682341  1  -0.110113  0.000281  -0.006217  0.096143  0.000134  3.956029  0.0
C  C103  1  0.64108199  0.00976566  0.20682123  1  -0.108907  0.000281  -0.006245  0.096126  0.000134  3.955819  0.0
C  C104  1  0.57665286  0.49063315  0.22287951  1  0.007352  4.3e-05  -0.080813  -0.109975  -4.4e-05  3.972116  0.0
C  C105  1  0.42333933  0.00937816  0.72288271  1  0.007269  4.3e-05  -0.080885  -0.110219  -4.4e-05  3.972146  0.0
C  C106  1  0.42334207  0.50936878  0.77711735  1  0.007356  4.3e-05  -0.080918  -0.110211  -4.4e-05  3.972303  0.0
C  C107  1  0.57665418  0.99062167  0.27711756  1  0.006  4.3e-05  -0.080921  -0.110196  -4.4e-05  3.972167  0.0
C  C108  1  0.65445880  0.49913282  0.15625465  1  -0.055109  0.000156  -0.094681  -0.142215  4.7e-05  3.999145  0.0
C  C109  1  0.34553514  0.00087613  0.65625609  1  -0.055178  0.000157  -0.094705  -0.142133  4.7e-05  3.999035  0.0
C  C110  1  0.34553417  0.50086982  0.84374052  1  -0.055172  0.000156  -0.094711  -0.14229  4.7e-05  3.999264  0.0
C  C111  1  0.65446125  0.99912228  0.34373907  1  -0.054739  0.000156  -0.094693  -0.142167  4.7e-05  3.999321  0.0
C  C112  1  0.79907950  0.52640794  0.15852783  1  0.005758  0.000168  -0.013445  0.086712  7.5e-05  3.986082  0.0
C  C113  1  0.20091903  0.97360045  0.65852765  1  0.006436  0.000168  -0.013338  0.086911  7.5e-05  3.985864  0.0
C  C114  1  0.20091110  0.47359892  0.84146960  1  0.006345  0.000168  -0.01337  0.086896  7.5e-05  3.986074  0.0
C  C115  1  0.79907956  0.02639865  0.34146865  1  0.004152  0.000168  -0.013375  0.086967  7.5e-05  3.9861  0.0
C  C116  1  0.86383002  0.54483190  0.22863829  1  -0.079336  0.000184  -0.087476  -0.128098  7.3e-05  3.984264  0.0
C  C117  1  0.13616407  0.95517540  0.72863739  1  -0.079749  0.000185  -0.087547  -0.128301  7.3e-05  3.984067  0.0
C  C118  1  0.13616316  0.45517775  0.77136197  1  -0.079936  0.000184  -0.087565  -0.128327  7.3e-05  3.984345  0.0
C  C119  1  0.86382149  0.04482656  0.27135891  1  -0.077594  0.000184  -0.087563  -0.128392  7.3e-05  3.98442  0.0
C  C120  1  0.78541866  0.53711776  0.29537755  1  -0.007243  0.000107  -0.091179  -0.137231  4.2e-05  3.994827  0.0
C  C121  1  0.21457864  0.96289047  0.79538519  1  -0.007104  0.000107  -0.091195  -0.137309  4.2e-05  3.9945  0.0
C  C122  1  0.21457352  0.46288628  0.70461931  1  -0.007239  0.000107  -0.091185  -0.137328  4.2e-05  3.994722  0.0
C  C123  1  0.78541562  0.03711356  0.20461678  1  -0.007481  0.000107  -0.091159  -0.137329  4.2e-05  3.994641  0.0
C  C124  1  0.55095308  0.49815152  0.36341122  1  0.267223  0.001117  -0.046896  -0.12362  0.000698  3.886314  0.001
C  C125  1  0.44906746  0.00183851  0.86341094  1  0.267159  0.001117  -0.046966  -0.124072  0.000698  3.886649  0.001
C  C126  1  0.44905983  0.50184611  0.63659244  1  0.26729  0.001117  -0.046872  -0.123809  0.000698  3.886887  0.001
C  C127  1  0.55093130  0.99815568  0.13659159  1  0.267114  0.001117  -0.04688  -0.123875  0.000698  3.886723  0.001
C  C128  1  0.88593951  0.54037943  0.08736703  1  0.271401  0.001028  -0.04758  -0.114191  0.000595  3.886998  0.001
C  C129  1  0.11405506  0.95962376  0.58736731  1  0.271427  0.001028  -0.047583  -0.114289  0.000595  3.886832  0.001
C  C130  1  0.11405230  0.45962251  0.91263210  1  0.271461  0.001028  -0.047564  -0.114307  0.000595  3.886924  0.001
C  C131  1  0.88594804  0.04036551  0.41262616  1  0.271868  0.001029  -0.047659  -0.114363  0.000596  3.887159  0.001
C  C132  1  0.61731244  0.62087457  0.46243514  1  0.968804  0.000541  0.221449  0.339802  -0.00025  3.930237  0.001
C  C133  1  0.38269825  0.87911634  0.96243794  1  0.969028  0.000541  0.221377  0.33952  -0.000249  3.930496  0.001
C  C134  1  0.38269577  0.37912589  0.53756286  1  0.968883  0.000543  0.221459  0.339695  -0.000249  3.930307  0.001
C  C135  1  0.61730609  0.12087993  0.03756062  1  0.968862  0.00054  0.221372  0.339484  -0.00025  3.930347  0.001
C  C136  1  0.77101805  0.55108017  0.52723169  1  0.406828  0.002033  -0.001573  -0.031857  0.001167  4.039964  0.002
C  C137  1  0.22899356  0.94891297  0.02722710  1  0.406382  0.002035  -0.001599  -0.032103  0.001168  4.040102  0.002
C  C138  1  0.22899378  0.44892309  0.47277311  1  0.4068  0.002034  -0.001598  -0.032209  0.001168  4.040055  0.002
C  C139  1  0.77100122  0.05107633  0.97277260  1  0.407183  0.002033  -0.001617  -0.032269  0.001167  4.040165  0.002
C  C140  1  0.72009996  0.48964896  0.47185072  1  0.324364  0.002323  -0.000115  -0.116896  0.001089  3.963855  0.002
C  C141  1  0.27992276  0.01034822  0.97185172  1  0.324292  0.002323  -0.000101  -0.117119  0.001089  3.963883  0.002
C  C142  1  0.27991395  0.51035428  0.52815237  1  0.324272  0.002322  -0.000139  -0.117026  0.001088  3.963801  0.002
C  C143  1  0.72007655  0.98964317  0.02815081  1  0.324366  0.002324  -9.2e-05  -0.11706  0.001089  3.963811  0.002
C  C144  1  0.52387332  0.68974053  0.43573162  1  -0.080838  0.001656  -0.229293  -0.466254  0.000756  3.940196  0.001
C  C145  1  0.47612344  0.81024796  0.93573146  1  -0.053432  0.001655  -0.229194  -0.466216  0.000756  3.940028  0.001
C  C146  1  0.47612790  0.31025576  0.56426694  1  -0.105678  0.001658  -0.229234  -0.46622  0.000757  3.940258  0.001
C  C147  1  0.52387466  0.18974834  0.06426484  1  -0.105703  0.001659  -0.229223  -0.466225  0.000756  3.94022  0.001
C  C148  1  0.82682114  0.39001722  0.01610070  1  0.964214  0.005383  0.221863  0.340915  0.003209  3.935613  0.004
C  C149  1  0.17318123  0.10998549  0.51610383  1  0.963998  0.005383  0.221803  0.340806  0.003209  3.935432  0.004
C  C150  1  0.17317617  0.60998049  0.98389730  1  0.964231  0.005385  0.2218  0.340738  0.003209  3.935543  0.004
C  C151  1  0.82682090  0.89001009  0.48389587  1  0.963791  0.005384  0.221832  0.340832  0.003209  3.935558  0.004
C  C152  1  0.72081258  0.44180883  0.91663215  1  0.34753  0.003217  -0.00746  -0.042206  0.001977  4.034435  0.003
C  C153  1  0.27919391  0.05819044  0.41663512  1  0.347776  0.003218  -0.007485  -0.042316  0.001977  4.034724  0.003
C  C154  1  0.27917494  0.55819243  0.08336924  1  0.347647  0.003218  -0.007446  -0.042172  0.001977  4.034689  0.003
C  C155  1  0.72080585  0.94180936  0.58336118  1  0.347941  0.003216  -0.007354  -0.042018  0.001976  4.034832  0.003
C  C156  1  0.76035094  0.51809025  0.96168467  1  0.264416  0.003497  -0.005491  -0.126753  0.001731  3.970945  0.002
C  C157  1  0.23965084  0.98190911  0.46168379  1  0.264373  0.003498  -0.005407  -0.126596  0.001731  3.970936  0.002
C  C158  1  0.23963750  0.48191030  0.03831730  1  0.264685  0.003497  -0.005419  -0.126762  0.001731  3.971026  0.002
C  C159  1  0.76034347  0.01808932  0.53830855  1  0.264396  0.003499  -0.005458  -0.126713  0.001732  3.971048  0.002
C  C160  1  0.88712808  0.32928168  0.07240922  1  -0.07884  0.000807  -0.230484  -0.467177  0.000259  3.932016  0.001
C  C161  1  0.11287216  0.17072114  0.57240899  1  -0.07872  0.000807  -0.230493  -0.467279  0.000259  3.932172  0.001
C  C162  1  0.11286947  0.67071743  0.92758934  1  -0.078939  0.000807  -0.230425  -0.467013  0.000259  3.932003  0.001
C  C163  1  0.88712624  0.82927095  0.42759467  1  -0.078739  0.000807  -0.230478  -0.467407  0.000259  3.932319  0.001
C  C164  1  0.99713936  0.71562546  0.64261809  1  1.536569  0.002848  0.194956  0.61074  0.002498  4.170944  0.001
C  C165  1  0.00285442  0.78440307  0.14261201  1  1.536197  0.002848  0.195226  0.611302  0.002496  4.169994  0.001
C  C166  1  0.00287446  0.28438901  0.35738274  1  1.536924  0.002846  0.195085  0.610849  0.002496  4.170672  0.001
C  C167  1  0.99713962  0.21561149  0.85738995  1  1.536697  0.002846  0.195093  0.610989  0.002496  4.170247  0.001
C  C168  1  0.11318547  0.70830708  0.70005680  1  -0.065636  0.003614  -0.171427  -0.293778  0.002  3.940374  0.002
C  C169  1  0.88681756  0.79171521  0.20005327  1  -0.065624  0.003614  -0.171584  -0.294185  0.002  3.940659  0.002
C  C170  1  0.88682968  0.29170318  0.29994686  1  -0.065989  0.003614  -0.171672  -0.294207  0.002001  3.940741  0.002
C  C171  1  0.11318523  0.20829580  0.79995322  1  -0.064992  0.003614  -0.171534  -0.294085  0.002001  3.940674  0.002
C  C172  1  0.26044314  0.73145746  0.66851579  1  -0.022623  0.00267  -0.172561  -0.098853  0.001388  3.975597  0.002
C  C173  1  0.73956331  0.76855454  0.16851889  1  -0.021474  0.002668  -0.172527  -0.098963  0.001388  3.975711  0.002
C  C174  1  0.73956398  0.26854862  0.33148334  1  -0.022252  0.00267  -0.17245  -0.098713  0.001388  3.975512  0.002
C  C175  1  0.26044282  0.23144593  0.83148817  1  -0.021691  0.00267  -0.172531  -0.098891  0.001388  3.975487  0.002
C  C176  1  0.37039157  0.74679097  0.73099493  1  -0.036943  0.006068  -0.174438  -0.301889  0.003256  3.936128  0.004
C  C177  1  0.62960517  0.75322548  0.23099510  1  -0.037315  0.006067  -0.174392  -0.301535  0.003255  3.935848  0.004
C  C178  1  0.62960864  0.25321725  0.26900476  1  -0.037172  0.006067  -0.174448  -0.3017  0.003256  3.935974  0.004
C  C179  1  0.37039379  0.24677573  0.76900856  1  -0.037029  0.006065  -0.174428  -0.301577  0.003255  3.935762  0.004
C  C180  1  0.51924894  0.77164950  0.70197787  1  1.538935  0.003127  0.202059  0.631597  0.00265  4.14084  0.001
C  C181  1  0.48076338  0.72836646  0.20196710  1  1.539445  0.003123  0.20183  0.631027  0.002652  4.141384  0.001
C  C182  1  0.48075440  0.22835870  0.29802296  1  1.539307  0.003125  0.20211  0.631593  0.00265  4.140759  0.001
C  C183  1  0.51924579  0.27162769  0.79803486  1  1.538934  0.003122  0.201788  0.630811  0.002651  4.141349  0.001
N  N184  1  0.62305758  0.53429737  0.43156694  1  -1.243737  0.004442  -0.244156  -0.010251  0.001982  3.746987  0.003
N  N185  1  0.37697047  0.96569723  0.93156944  1  -1.243857  0.004444  -0.244138  -0.009676  0.001983  3.746522  0.003
N  N186  1  0.37696066  0.46570094  0.56843558  1  -1.243666  0.004444  -0.244191  -0.01002  0.001982  3.746922  0.003
N  N187  1  0.62303192  0.03429975  0.06843252  1  -1.243553  0.004444  -0.244165  -0.009838  0.001982  3.746578  0.003
N  N188  1  0.70634914  0.63219066  0.52110825  1  -1.220581  0.065262  -0.366828  -0.377353  0.03398  3.623245  0.043
N  N189  1  0.29365180  0.86780104  0.02110229  1  -1.219898  0.065253  -0.366778  -0.377056  0.033982  3.623494  0.043
N  N190  1  0.29366116  0.36780980  0.47889484  1  -1.220054  0.065246  -0.366823  -0.377118  0.033979  3.623116  0.043
N  N191  1  0.70635258  0.13218963  0.97889514  1  -1.220411  0.065242  -0.366836  -0.377081  0.033981  3.623389  0.043
N  N192  1  0.82760865  0.48460470  0.02368035  1  -1.24204  0.00509  -0.245846  -0.014684  0.002233  3.760531  0.003
N  N193  1  0.17239091  0.01539393  0.52367804  1  -1.241996  0.00509  -0.24588  -0.014688  0.002233  3.76051  0.003
N  N194  1  0.17238591  0.51539513  0.97631991  1  -1.242154  0.005091  -0.245813  -0.014515  0.002233  3.760586  0.003
N  N195  1  0.82760461  0.98459958  0.47631316  1  -1.241625  0.005089  -0.245793  -0.014624  0.002233  3.760603  0.003
N  N196  1  0.76286666  0.36268856  0.95090293  1  -1.187704  0.06075  -0.367409  -0.3825  0.032041  3.632226  0.037
N  N197  1  0.23714551  0.13730767  0.45090497  1  -1.187344  0.060752  -0.367402  -0.382449  0.03204  3.632244  0.037
N  N198  1  0.23712894  0.63731126  0.04909507  1  -1.187588  0.060754  -0.36744  -0.382449  0.032042  3.632076  0.037
N  N199  1  0.76285504  0.86269073  0.54909755  1  -1.187453  0.060757  -0.36751  -0.382575  0.032044  3.632285  0.037
O  O200  1  0.87092491  0.70466925  0.67041147  1  -1.140065  0.109738  -0.350106  -0.570356  0.055727  2.288907  0.083
O  O201  1  0.12907935  0.79537155  0.17039695  1  -1.139683  0.109741  -0.350263  -0.57063  0.055731  2.28844  0.083
O  O202  1  0.12909273  0.29535503  0.32959559  1  -1.140342  0.109746  -0.350171  -0.570379  0.055728  2.288788  0.083
O  O203  1  0.87092381  0.20464156  0.82959425  1  -1.139943  0.109726  -0.350141  -0.570444  0.055724  2.288408  0.083
O  O204  1  0.02256802  0.73324184  0.57403186  1  -1.191155  0.027836  -0.332908  -0.576538  0.013625  2.1125  0.022
O  O205  1  0.97742202  0.76677100  0.07402976  1  -1.191275  0.027823  -0.332923  -0.576656  0.013621  2.112135  0.022
O  O206  1  0.97744539  0.26675860  0.42596557  1  -1.191122  0.027839  -0.332863  -0.576438  0.013627  2.112397  0.022
O  O207  1  0.02256694  0.23324428  0.92597391  1  -1.191374  0.027832  -0.33294  -0.576567  0.013623  2.112149  0.022
O  O208  1  0.54945247  0.72330707  0.64241605  1  -1.148073  0.108232  -0.341278  -0.572183  0.054856  2.353526  0.084
O  O209  1  0.45054836  0.77670249  0.14240916  1  -1.148408  0.108221  -0.341053  -0.57161  0.054845  2.35371  0.084
O  O210  1  0.45055311  0.27669621  0.35758591  1  -1.148363  0.108225  -0.341212  -0.571979  0.054851  2.353485  0.084
O  O211  1  0.54944346  0.22328192  0.85759394  1  -1.147933  0.108225  -0.340979  -0.571495  0.054845  2.353664  0.084
O  O212  1  0.60215866  0.83247963  0.73365742  1  -1.184314  0.016128  -0.338317  -0.574185  0.007745  2.07301  0.012
O  O213  1  0.39785137  0.66753540  0.23364779  1  -1.184395  0.016138  -0.338304  -0.574122  0.00775  2.07294  0.012
O  O214  1  0.39783964  0.16752369  0.26634794  1  -1.184514  0.016133  -0.338412  -0.574345  0.007748  2.072924  0.012
O  O215  1  0.60216950  0.33246010  0.76635927  1  -1.184429  0.01614  -0.338303  -0.57404  0.007751  2.072809  0.012
