# generated using pymatgen
data_Er2Cu3H38C42(N3O17)2
_symmetry_space_group_name_H-M   'P 1'
_cell_length_a   11.56734932
_cell_length_b   13.06051862
_cell_length_c   18.89499714
_cell_angle_alpha   90.00120472
_cell_angle_beta   93.10297581
_cell_angle_gamma   89.99946092
_symmetry_Int_Tables_number   1
_chemical_formula_structural   Er2Cu3H38C42(N3O17)2
_chemical_formula_sum   'Er4 Cu6 H76 C84 N12 O68'
_cell_volume   2850.38747097
_cell_formula_units_Z   2
loop_
 _symmetry_equiv_pos_site_id
 _symmetry_equiv_pos_as_xyz
  1  'x, y, z'
loop_
 _atom_site_type_symbol
 _atom_site_label
 _atom_site_symmetry_multiplicity
 _atom_site_fract_x
 _atom_site_fract_y
 _atom_site_fract_z
 _atom_site_occupancy
 _atom_site_pbe_bader_charge
 _atom_site_pbe_bader_spin_density
 _atom_site_pbe_cm5_charge
 _atom_site_pbe_ddec_charge
 _atom_site_pbe_ddec_spin_density
 _atom_site_pbe_ddec_sum_bond_order
 _atom_site_pbe_magmom
Er  Er0  1  0.13479938  0.94014058  0.85513935  1  2.195012  0.000125  1.488454  2.141053  9e-05  2.091346  0.0
Er  Er1  1  0.36519760  0.44017844  0.64483989  1  2.195696  0.000305  1.488548  2.141556  0.000307  2.090979  0.0
Er  Er2  1  0.86516596  0.05978330  0.14483706  1  2.195534  0.000124  1.488564  2.14158  9e-05  2.090964  0.0
Er  Er3  1  0.63479854  0.55981358  0.35514751  1  2.195423  0.000305  1.488548  2.141575  0.000306  2.090847  0.0
Cu  Cu4  1  0.83930802  0.59063342  0.67723320  1  1.102597  0.590888  0.76616  0.810033  0.759061  2.284778  0.589
Cu  Cu5  1  0.66068406  0.09063483  0.82278208  1  1.102353  0.590884  0.766101  0.809971  0.75905  2.284715  0.589
Cu  Cu6  1  0.16068872  0.40936779  0.32273835  1  1.102468  0.590877  0.766095  0.809965  0.759031  2.284876  0.589
Cu  Cu7  1  0.33929334  0.90935260  0.17726426  1  1.102465  0.590849  0.766072  0.809909  0.759025  2.284789  0.589
Cu  Cu8  1  0.50001084  0.50000252  0.00000577  1  1.081797  -0.578244  0.759428  0.765555  -0.829298  2.333784  -0.576
Cu  Cu9  1  0.99999780  0.99999551  0.49998460  1  1.081891  0.57886  0.759382  0.765574  0.74944  2.333982  0.577
H  H10  1  0.06119830  0.14271317  0.80696707  1  0.589539  4.1e-05  0.322503  0.403408  3.4e-05  0.88917  0.0
H  H11  1  0.43882450  0.64271446  0.69308424  1  0.588894  4.2e-05  0.322189  0.402984  3.4e-05  0.889606  0.0
H  H12  1  0.93881701  0.85736461  0.19319911  1  0.586731  4.1e-05  0.322186  0.402907  3.4e-05  0.88994  0.0
H  H13  1  0.56119581  0.35723698  0.30695143  1  0.588806  4.2e-05  0.322299  0.403038  3.4e-05  0.889522  0.0
H  H14  1  0.95674579  0.09468351  0.84462781  1  0.631565  0.000548  0.294808  0.383868  0.000629  0.963688  0.0
H  H15  1  0.54325558  0.59470386  0.65539326  1  0.631144  0.000548  0.294801  0.38387  0.000629  0.963664  0.0
H  H16  1  0.04321306  0.90527329  0.15542771  1  0.631424  0.000548  0.29478  0.383728  0.000629  0.963883  0.0
H  H17  1  0.45673553  0.40529581  0.34458967  1  0.631054  0.000547  0.294769  0.383811  0.000629  0.963787  0.0
H  H18  1  0.18722926  0.96966365  0.00308478  1  0.659077  -3.4e-05  0.293923  0.397445  -1.5e-05  0.942986  0.0
H  H19  1  0.31274665  0.46975102  0.49688401  1  0.658766  2.1e-05  0.293841  0.397415  4.9e-05  0.943014  0.0
H  H20  1  0.81272253  0.03016605  0.99686081  1  0.658642  -3.4e-05  0.293938  0.397726  -1.5e-05  0.942563  0.0
H  H21  1  0.68724335  0.53026090  0.50310522  1  0.658838  2.1e-05  0.293826  0.39739  4.9e-05  0.943065  0.0
H  H22  1  0.07780118  0.04898149  0.99011339  1  0.651061  -2e-05  0.332908  0.433679  -2.5e-05  0.853566  0.0
H  H23  1  0.42289728  0.54843522  0.50965997  1  0.651874  1.8e-05  0.332609  0.43367  1.3e-05  0.853716  0.0
H  H24  1  0.92341580  0.95196760  0.00949042  1  0.646507  -2e-05  0.332652  0.434081  -2.4e-05  0.853321  0.0
H  H25  1  0.57727500  0.45141821  0.49027914  1  0.651692  1.8e-05  0.33282  0.433739  1.4e-05  0.853671  0.0
H  H26  1  0.80248213  0.02990284  0.65603433  1  0.113423  -1e-05  0.112947  0.113892  -1.7e-05  1.024759  0.0
H  H27  1  0.69752523  0.52990315  0.84395803  1  0.113326  1.7e-05  0.112932  0.113828  4e-06  1.024782  0.0
H  H28  1  0.19750595  0.97010373  0.34398234  1  0.11352  -1e-05  0.112889  0.113745  -1.7e-05  1.024749  0.0
H  H29  1  0.30247512  0.47009805  0.15603275  1  0.113248  1.7e-05  0.112933  0.113811  5e-06  1.024926  0.0
H  H30  1  0.01851890  0.74885073  0.89977163  1  0.680578  1.4e-05  0.295683  0.418105  3.8e-05  0.908913  0.0
H  H31  1  0.48144795  0.24881350  0.60026746  1  0.680749  1.1e-05  0.295646  0.418071  2.9e-05  0.90897  0.0
H  H32  1  0.98140794  0.25118340  0.10030460  1  0.681236  1.4e-05  0.295691  0.418183  3.8e-05  0.908866  0.0
H  H33  1  0.51855179  0.75116627  0.39973917  1  0.681175  1.1e-05  0.295713  0.418225  2.9e-05  0.90876  0.0
H  H34  1  0.15037368  0.74226517  0.93226377  1  0.676145  8e-06  0.299581  0.415687  -4e-06  0.915834  0.0
H  H35  1  0.34961208  0.24225563  0.56775865  1  0.676144  2.1e-05  0.299413  0.415579  1.7e-05  0.916044  0.0
H  H36  1  0.84959047  0.25772379  0.06778935  1  0.67663  8e-06  0.299414  0.415511  -4e-06  0.916103  0.0
H  H37  1  0.65038854  0.75772950  0.43224750  1  0.676278  2.1e-05  0.299522  0.415728  1.7e-05  0.915788  0.0
H  H38  1  0.62475759  0.92847327  0.63557053  1  0.132788  0.001204  0.127146  0.140238  0.000627  0.951899  0.001
H  H39  1  0.87525123  0.42846953  0.86440758  1  0.1329  0.001222  0.127202  0.140311  0.000632  0.951815  0.001
H  H40  1  0.37524302  0.07153177  0.36443615  1  0.132994  0.001204  0.127085  0.140171  0.000627  0.951839  0.001
H  H41  1  0.12473701  0.57151637  0.13558262  1  0.132973  0.001221  0.127104  0.140101  0.000632  0.951879  0.001
H  H42  1  0.19658438  0.81031290  0.73829087  1  0.644233  3.7e-05  0.30082  0.403592  4.1e-05  0.931339  0.0
H  H43  1  0.30340426  0.31037401  0.76170886  1  0.643849  3.8e-05  0.300762  0.403548  4.2e-05  0.931377  0.0
H  H44  1  0.80336723  0.18960102  0.26170448  1  0.644146  3.7e-05  0.300853  0.403643  4.1e-05  0.931184  0.0
H  H45  1  0.69659089  0.68962414  0.23828167  1  0.643801  3.7e-05  0.300777  0.403532  4.2e-05  0.931381  0.0
H  H46  1  0.23505404  0.76344361  0.81247111  1  0.630453  9e-06  0.326144  0.410848  8e-06  0.879047  0.0
H  H47  1  0.26508948  0.26345989  0.68752522  1  0.631873  1.3e-05  0.32602  0.410975  8e-06  0.878902  0.0
H  H48  1  0.76507624  0.23651090  0.18752319  1  0.631926  8e-06  0.326111  0.410954  7e-06  0.878843  0.0
H  H49  1  0.73496296  0.73652218  0.31246379  1  0.632057  1.3e-05  0.326138  0.411055  8e-06  0.878819  0.0
H  H50  1  0.63987154  0.73526347  0.63934322  1  0.10791  0.002734  0.124624  0.097488  0.001264  0.996679  0.002
H  H51  1  0.86012454  0.23525669  0.86064841  1  0.107343  0.002745  0.124595  0.097453  0.001273  0.996534  0.002
H  H52  1  0.36013062  0.26474156  0.36064553  1  0.108246  0.002733  0.12462  0.097473  0.001264  0.996742  0.002
H  H53  1  0.13985018  0.76473227  0.13935492  1  0.107356  0.002742  0.124658  0.097462  0.001271  0.996717  0.002
H  H54  1  0.35728394  0.05760101  0.84481502  1  0.644055  0.00026  0.30957  0.408174  0.000398  0.913295  0.0
H  H55  1  0.14271810  0.55758223  0.65520866  1  0.644247  0.000262  0.309709  0.408388  0.000395  0.912968  0.0
H  H56  1  0.64266212  0.94231827  0.15530289  1  0.643301  0.000262  0.309845  0.408542  0.000399  0.9129  0.0
H  H57  1  0.85727646  0.44244042  0.34479720  1  0.64419  0.000263  0.309703  0.408251  0.000395  0.913148  0.0
H  H58  1  0.27274186  0.14529768  0.84079710  1  0.624524  -5e-06  0.312084  0.411175  1.5e-05  0.900025  0.0
H  H59  1  0.22723967  0.64529820  0.65922159  1  0.624493  -2e-06  0.312174  0.411217  2.1e-05  0.899993  0.0
H  H60  1  0.72730043  0.85468822  0.15920784  1  0.624405  -5e-06  0.312081  0.411001  1.5e-05  0.900113  0.0
H  H61  1  0.77280273  0.35469305  0.34075795  1  0.624986  -3e-06  0.312121  0.411143  2.1e-05  0.900039  0.0
H  H62  1  0.57465503  0.93721354  0.98393672  1  0.135472  3.3e-05  0.106971  0.114029  3.8e-05  1.028295  0.0
H  H63  1  0.92531366  0.43719258  0.51609096  1  0.135827  -4.1e-05  0.10691  0.11391  -3e-05  1.028346  0.0
H  H64  1  0.42529404  0.06281753  0.01610245  1  0.135928  3.3e-05  0.106899  0.113933  3.8e-05  1.02818  0.0
H  H65  1  0.07468741  0.56280098  0.48390356  1  0.135684  -4.1e-05  0.106946  0.114036  -3e-05  1.028303  0.0
H  H66  1  0.74761204  0.82280176  0.99603127  1  0.12719  -0.000952  0.114026  0.119112  -0.00054  1.000742  0.0
H  H67  1  0.75236547  0.32276429  0.50399570  1  0.126644  0.00096  0.113965  0.118812  0.000496  1.001079  0.0
H  H68  1  0.25236478  0.17726990  0.00403040  1  0.126904  -0.000953  0.113886  0.118653  -0.000541  1.001207  0.0
H  H69  1  0.24763812  0.67722391  0.49600106  1  0.126822  0.00096  0.113956  0.118833  0.000496  1.001018  0.0
H  H70  1  0.71798925  0.63298644  0.00529577  1  0.159646  -0.00203  0.132743  0.119185  -0.001046  0.96422  -0.002
H  H71  1  0.78200585  0.13296068  0.49471143  1  0.15938  0.002029  0.132719  0.119113  0.000941  0.964174  0.002
H  H72  1  0.28201081  0.36706224  0.99472517  1  0.159205  -0.00203  0.132659  0.119037  -0.001046  0.964406  -0.002
H  H73  1  0.21799780  0.86703134  0.50528374  1  0.159347  0.002028  0.132717  0.119182  0.00094  0.964169  0.002
H  H74  1  0.88883697  0.14839592  0.68548405  1  0.106247  1.4e-05  0.110491  0.112298  -1e-06  1.028456  0.0
H  H75  1  0.61117980  0.64839607  0.81448506  1  0.106311  2.5e-05  0.110406  0.11235  -1.7e-05  1.028557  0.0
H  H76  1  0.11117201  0.85160759  0.31450767  1  0.106179  1.4e-05  0.110465  0.112376  -1e-06  1.028534  0.0
H  H77  1  0.38880419  0.35159366  0.18550282  1  0.106424  2.5e-05  0.110427  0.11237  -1.7e-05  1.028579  0.0
H  H78  1  0.06421891  0.25781733  0.70773974  1  0.123934  0.001011  0.112633  0.119884  0.00053  1.014727  0.0
H  H79  1  0.43580199  0.75780714  0.79222210  1  0.124387  0.001011  0.112614  0.119828  0.000523  1.014777  0.0
H  H80  1  0.93579159  0.74219460  0.29223511  1  0.123987  0.001011  0.112658  0.119933  0.000529  1.014754  0.0
H  H81  1  0.56418965  0.24218106  0.20774709  1  0.12455  0.001011  0.112637  0.119887  0.000524  1.01489  0.0
H  H82  1  0.04057871  0.44735359  0.71082630  1  0.131375  0.00224  0.132809  0.107435  0.001032  0.986003  0.002
H  H83  1  0.45942227  0.94735000  0.78916013  1  0.13131  0.002238  0.132823  0.107476  0.001029  0.985911  0.002
H  H84  1  0.95942319  0.55265604  0.28914656  1  0.13093  0.002242  0.132858  0.10747  0.001033  0.985919  0.002
H  H85  1  0.54056842  0.05264968  0.21083390  1  0.132201  0.002236  0.132875  0.107559  0.001028  0.985973  0.002
C  C86  1  0.91706503  0.79164642  0.66887940  1  0.379452  0.000698  0.109646  0.059571  0.00069  3.931467  0.0
C  C87  1  0.58293112  0.29165640  0.83112047  1  0.379726  0.000863  0.109497  0.059412  0.00082  3.931457  0.0
C  C88  1  0.08293491  0.20835862  0.33112195  1  0.37952  0.000698  0.109422  0.059366  0.00069  3.93127  0.0
C  C89  1  0.41704385  0.70833945  0.16887651  1  0.379415  0.000869  0.109393  0.059295  0.000824  3.931041  0.0
C  C90  1  0.91598782  0.89879686  0.67007419  1  0.117971  0.002674  0.006568  -0.066659  0.001984  3.88288  0.002
C  C91  1  0.58401366  0.39880832  0.82992113  1  0.117599  0.003082  0.006728  -0.066401  0.00235  3.882781  0.002
C  C92  1  0.08400741  0.10120818  0.32993699  1  0.117566  0.002673  0.006662  -0.066427  0.001984  3.882716  0.002
C  C93  1  0.41596924  0.60118753  0.17007252  1  0.117563  0.003081  0.006678  -0.066536  0.002349  3.882682  0.002
C  C94  1  0.80815192  0.94699659  0.65768052  1  -0.110691  -0.003342  -0.057212  -0.039626  -0.002465  3.90617  -0.002
C  C95  1  0.69185018  0.44700216  0.84231025  1  -0.110153  -0.003198  -0.057219  -0.039532  -0.002342  3.905726  -0.002
C  C96  1  0.19184502  0.05301151  0.34233127  1  -0.110569  -0.003342  -0.057216  -0.039644  -0.002465  3.90612  -0.002
C  C97  1  0.30812925  0.55299369  0.15768325  1  -0.027202  -0.003192  -0.057363  -0.039823  -0.00234  3.906228  -0.002
C  C98  1  0.70746543  0.89044243  0.64651827  1  0.070213  0.006236  -0.060827  -0.081561  0.004261  3.914559  0.005
C  C99  1  0.79253995  0.39044366  0.85346759  1  0.069798  0.006257  -0.060923  -0.081738  0.004242  3.914189  0.005
C  C100  1  0.29253429  0.10956414  0.35348889  1  0.070457  0.006238  -0.060705  -0.081332  0.004262  3.914214  0.005
C  C101  1  0.20744808  0.60954913  0.14652790  1  -0.013649  0.006252  -0.060775  -0.081345  0.004241  3.914244  0.005
C  C102  1  0.71530080  0.78412429  0.64840425  1  0.507766  -0.001141  0.058979  0.110548  -0.000137  3.930497  -0.001
C  C103  1  0.78469401  0.28412399  0.85158697  1  0.508436  -0.001158  0.058955  0.110553  -0.000126  3.930207  -0.001
C  C104  1  0.28470019  0.21588457  0.35159238  1  0.507267  -0.001139  0.058776  0.110306  -0.000135  3.930492  -0.001
C  C105  1  0.21527910  0.71587033  0.14841310  1  0.508236  -0.001156  0.058901  0.110559  -0.000126  3.929932  -0.001
C  C106  1  0.02320087  0.72470039  0.67095498  1  1.573254  -0.001277  0.225229  0.560305  0.000159  4.1569  -0.001
C  C107  1  0.47679014  0.22470848  0.82904731  1  1.572895  -0.001254  0.22495  0.559898  0.000179  4.156954  -0.001
C  C108  1  0.97679766  0.27530465  0.32903783  1  1.57344  -0.001281  0.225216  0.560436  0.000158  4.156804  -0.001
C  C109  1  0.52319257  0.77528584  0.17095110  1  1.573496  -0.001252  0.224924  0.559932  0.000181  4.157724  -0.001
C  C110  1  0.02051022  0.96845506  0.68222468  1  1.64341  0.001231  0.217217  0.639845  0.000864  4.210959  0.001
C  C111  1  0.47949628  0.46846278  0.81777131  1  1.643735  0.001782  0.21726  0.639818  0.001274  4.211525  0.001
C  C112  1  0.97949197  0.03154845  0.31778577  1  1.643954  0.001231  0.217254  0.639689  0.000864  4.211834  0.001
C  C113  1  0.52049543  0.53153689  0.18221853  1  1.643885  0.001782  0.217537  0.640294  0.001274  4.21115  0.001
C  C114  1  0.44410297  0.70535133  0.99424985  1  0.530927  0.000246  0.108621  0.059195  -0.00049  3.94642  0.0
C  C115  1  0.05588523  0.20535234  0.50573986  1  0.531058  -0.00035  0.108815  0.059434  -1.3e-05  3.945882  -0.001
C  C116  1  0.55588363  0.29464835  0.00573763  1  0.531616  0.000252  0.108879  0.059563  -0.000487  3.945808  0.0
C  C117  1  0.94411817  0.79464428  0.49426166  1  0.530442  -0.000348  0.108829  0.059504  -1.3e-05  3.945873  -0.001
C  C118  1  0.45234888  0.81165173  0.98856282  1  -0.028711  -0.002682  0.00347  -0.056774  -0.00212  3.90904  -0.002
C  C119  1  0.04763218  0.31165375  0.51143074  1  -0.028926  0.002546  0.003477  -0.056835  0.001815  3.909397  0.002
C  C120  1  0.54762461  0.18834948  0.01142721  1  -0.028858  -0.002685  0.003408  -0.057023  -0.002122  3.909345  -0.002
C  C121  1  0.95237396  0.68833980  0.48856720  1  -0.028663  0.002545  0.003395  -0.056996  0.001815  3.909562  0.002
C  C122  1  0.56331533  0.85490913  0.98971011  1  -0.045985  0.003145  -0.068129  -0.058828  0.002045  3.906057  0.002
C  C123  1  0.93666607  0.35490015  0.51029845  1  -0.04624  -0.003193  -0.068189  -0.058733  -0.002334  3.906449  -0.002
C  C124  1  0.43665011  0.14511428  0.01030919  1  -0.045602  0.003147  -0.06799  -0.058434  0.002046  3.905988  0.002
C  C125  1  0.06333838  0.64509494  0.48969834  1  -0.046538  -0.003192  -0.068258  -0.058862  -0.002333  3.906653  -0.002
C  C126  1  0.66032727  0.79196568  0.99626094  1  -0.010881  -0.005652  -0.072236  -0.100448  -0.004248  3.953467  -0.005
C  C127  1  0.83966083  0.29194584  0.50374543  1  -0.077539  0.005857  -0.072309  -0.100397  0.003867  3.953633  0.005
C  C128  1  0.33965693  0.20807534  0.00376666  1  -0.079344  -0.005781  -0.072616  -0.100717  -0.004247  3.954101  -0.005
C  C129  1  0.16034618  0.70804542  0.49625254  1  -0.077566  0.005857  -0.072156  -0.100168  0.003867  3.953557  0.005
C  C130  1  0.64554882  0.68633143  0.00136459  1  0.459543  0.001391  0.06255  0.111858  -5.2e-05  3.887177  0.001
C  C131  1  0.85444790  0.18631360  0.49863341  1  0.526331  -0.001408  0.062587  0.111909  -0.000321  3.886992  -0.001
C  C132  1  0.35444545  0.31370347  0.99864920  1  0.52717  0.001519  0.062785  0.112015  -5.4e-05  3.887251  0.001
C  C133  1  0.14556003  0.81367919  0.50136302  1  0.526197  -0.001405  0.062394  0.111562  -0.000319  3.887253  -0.001
C  C134  1  0.33097958  0.64764354  0.99472330  1  1.611114  0.001244  0.208849  0.542777  -0.000962  4.224577  0.001
C  C135  1  0.16902127  0.14764664  0.50526617  1  1.610505  -0.00123  0.208972  0.542962  0.000458  4.224363  -0.001
C  C136  1  0.66902279  0.35234312  0.00526016  1  1.610248  0.001244  0.208856  0.542927  -0.000962  4.224453  0.001
C  C137  1  0.83097693  0.85234385  0.49473563  1  1.610349  -0.00123  0.208829  0.542791  0.000458  4.224554  -0.001
C  C138  1  0.34618796  0.87835765  0.97809840  1  1.618674  -0.001675  0.226438  0.629168  -0.001277  4.191413  -0.001
C  C139  1  0.15378392  0.37837363  0.52187081  1  1.621175  0.001501  0.226337  0.628728  0.001114  4.191947  0.001
C  C140  1  0.65376450  0.12160298  0.02185199  1  1.621768  -0.001674  0.226432  0.628848  -0.001277  4.192261  -0.001
C  C141  1  0.84622009  0.62162681  0.47811485  1  1.619503  0.001501  0.226371  0.628777  0.001114  4.192192  0.001
C  C142  1  0.76758451  0.38406681  0.67222666  1  0.473578  -0.00037  0.108997  0.053698  0.000107  3.928098  0.0
C  C143  1  0.73242048  0.88407170  0.82777074  1  0.472807  -0.000399  0.108974  0.053682  9e-05  3.928258  0.0
C  C144  1  0.23241697  0.61593133  0.32775729  1  0.472906  -0.00037  0.108978  0.053443  0.000108  3.928338  0.0
C  C145  1  0.26756290  0.11591803  0.17223300  1  0.472505  -0.000403  0.109019  0.053499  8.6e-05  3.927671  0.0
C  C146  1  0.77163278  0.27665987  0.67140783  1  -0.0348  0.003349  0.011469  -0.041292  0.002369  3.862098  0.003
C  C147  1  0.72837090  0.77666481  0.82858000  1  -0.034859  0.00334  0.011456  -0.041173  0.002371  3.862238  0.003
C  C148  1  0.22836920  0.72334057  0.32858567  1  -0.034615  0.003348  0.011494  -0.041144  0.002369  3.861952  0.003
C  C149  1  0.27161020  0.22332721  0.17141516  1  -0.034844  0.003339  0.011376  -0.041273  0.002371  3.862233  0.003
C  C150  1  0.88054305  0.23130997  0.68581545  1  -0.018002  -0.003841  -0.061859  -0.058033  -0.002806  3.925431  -0.002
C  C151  1  0.61946669  0.73130545  0.81416036  1  -0.018252  -0.003805  -0.061691  -0.058112  -0.002773  3.925629  -0.002
C  C152  1  0.11946004  0.76869736  0.31417176  1  -0.018102  -0.00384  -0.061812  -0.058136  -0.002806  3.925387  -0.002
C  C153  1  0.38051287  0.26868504  0.18582996  1  -0.01792  -0.003807  -0.061689  -0.057993  -0.002774  3.925725  -0.002
C  C154  1  0.97840728  0.29097125  0.69894233  1  -0.034859  0.005856  -0.070875  -0.102244  0.003889  3.954163  0.005
C  C155  1  0.52160644  0.79096715  0.80102924  1  -0.035177  0.005823  -0.070857  -0.102332  0.003872  3.954198  0.005
C  C156  1  0.02159794  0.70903685  0.30103439  1  -0.034866  0.005858  -0.07091  -0.102531  0.00389  3.954214  0.005
C  C157  1  0.47838113  0.20902334  0.19895564  1  -0.035313  0.005823  -0.0709  -0.102457  0.003872  3.954625  0.005
C  C158  1  0.96692958  0.39719603  0.69944581  1  0.522568  -0.001952  0.062046  0.109587  -0.000781  3.912274  -0.001
C  C159  1  0.53307662  0.89719641  0.80053966  1  0.522822  -0.001946  0.062065  0.109823  -0.000764  3.912349  -0.001
C  C160  1  0.03307577  0.60280977  0.30052774  1  0.523413  -0.001954  0.062161  0.109977  -0.000782  3.912321  -0.001
C  C161  1  0.46691487  0.10279943  0.19945599  1  0.522113  -0.001943  0.062132  0.109795  -0.000762  3.912508  -0.001
C  C162  1  0.66052566  0.44794817  0.66086943  1  1.572406  -0.00078  0.230614  0.581341  0.000268  4.154868  -0.001
C  C163  1  0.83946830  0.94794943  0.83912996  1  1.572223  -0.000799  0.230665  0.581506  0.000251  4.154968  -0.001
C  C164  1  0.33947594  0.55204844  0.33911135  1  1.572681  -0.000779  0.230669  0.581486  0.000269  4.154818  -0.001
C  C165  1  0.16050531  0.05203264  0.16087967  1  1.57298  -0.000802  0.23041  0.581069  0.000252  4.154875  -0.001
C  C166  1  0.66880596  0.20592242  0.65364469  1  1.666405  0.00097  0.199872  0.588807  0.00077  4.260055  0.001
C  C167  1  0.83120754  0.70593162  0.84635157  1  1.666496  0.000968  0.199873  0.588559  0.000775  4.26035  0.001
C  C168  1  0.33119706  0.79406578  0.34636686  1  1.665625  0.00097  0.200041  0.588803  0.00077  4.260036  0.001
C  C169  1  0.16877201  0.29405198  0.15363875  1  1.665932  0.000968  0.200238  0.58894  0.000774  4.260312  0.001
N  N170  1  0.81730860  0.73752175  0.65978618  1  -1.195591  0.089453  -0.352179  -0.253835  0.059229  3.681139  0.076
N  N171  1  0.68268624  0.23752427  0.84021495  1  -1.195408  0.089637  -0.352121  -0.253719  0.059351  3.680958  0.076
N  N172  1  0.18269421  0.26248635  0.34020842  1  -1.195837  0.089458  -0.351945  -0.253639  0.059231  3.680697  0.076
N  N173  1  0.31728589  0.76247771  0.15978825  1  -1.195527  0.089611  -0.35189  -0.253514  0.059339  3.680442  0.076
N  N174  1  0.53936652  0.64570943  0.00043525  1  -1.229967  -0.079125  -0.349218  -0.234397  -0.05854  3.663168  -0.068
N  N175  1  0.96063335  0.14569609  0.49955754  1  -1.229419  0.079116  -0.349385  -0.234586  0.052839  3.662892  0.068
N  N176  1  0.46063874  0.35430785  0.99956317  1  -1.229974  -0.079141  -0.349511  -0.234618  -0.058548  3.66314  -0.068
N  N177  1  0.03937446  0.85429746  0.50044206  1  -1.228702  0.079117  -0.34927  -0.234448  0.052841  3.663071  0.068
N  N178  1  0.86399973  0.44154213  0.68612546  1  -1.202199  0.080369  -0.346139  -0.253665  0.053454  3.657002  0.069
N  N179  1  0.63599527  0.94154128  0.81387071  1  -1.201364  0.080453  -0.346104  -0.253786  0.053515  3.657275  0.069
N  N180  1  0.13599607  0.55846444  0.31384816  1  -1.201731  0.080362  -0.346279  -0.253833  0.053441  3.657764  0.069
N  N181  1  0.36399225  0.05844844  0.18613799  1  -1.201962  0.080465  -0.346229  -0.25369  0.05352  3.656942  0.069
O  O182  1  0.00391312  0.62714233  0.67134592  1  -1.106569  0.099527  -0.313406  -0.535424  0.063934  2.373028  0.091
O  O183  1  0.49607466  0.12715254  0.82864951  1  -1.106498  0.099543  -0.313378  -0.535386  0.06395  2.373129  0.091
O  O184  1  0.99608522  0.37286424  0.32862941  1  -1.106796  0.099571  -0.313258  -0.535465  0.063961  2.37319  0.091
O  O185  1  0.50390600  0.87283871  0.17135728  1  -1.106349  0.099508  -0.313166  -0.535297  0.063931  2.373902  0.091
O  O186  1  0.04156154  0.11103066  0.85139368  1  -1.2114  0.001677  -0.618937  -0.816294  0.001029  2.016108  0.001
O  O187  1  0.45844114  0.61105033  0.64864669  1  -1.210176  0.001701  -0.6187  -0.815793  0.001041  2.016261  0.001
O  O188  1  0.95839506  0.88892997  0.14872049  1  -1.208428  0.001678  -0.618745  -0.815557  0.00103  2.016756  0.001
O  O189  1  0.54154705  0.38894705  0.35136733  1  -1.209937  0.0017  -0.618726  -0.815787  0.001041  2.016525  0.001
O  O190  1  0.12310879  0.76198941  0.66839820  1  -1.167219  0.017443  -0.289114  -0.512573  0.011066  2.194964  0.015
O  O191  1  0.37688509  0.26200685  0.83161166  1  -1.16698  0.017567  -0.288895  -0.512224  0.011148  2.194528  0.015
O  O192  1  0.87688930  0.23801486  0.33160624  1  -1.167272  0.017457  -0.289215  -0.512682  0.011075  2.194551  0.015
O  O193  1  0.62308320  0.73797215  0.16837866  1  -1.167265  0.017561  -0.289024  -0.512432  0.011145  2.195053  0.015
O  O194  1  0.11268455  0.98618813  0.97351422  1  -1.299145  -0.000153  -0.640937  -0.875153  -0.000103  2.062379  0.0
O  O195  1  0.38717621  0.48620457  0.52654765  1  -1.299897  0.000164  -0.641415  -0.875337  8.9e-05  2.063232  0.0
O  O196  1  0.88705619  0.01376102  0.02659871  1  -1.294407  -0.000152  -0.642177  -0.876296  -0.000103  2.063299  0.0
O  O197  1  0.61278859  0.51379128  0.47346580  1  -1.299647  0.000164  -0.641396  -0.875346  8.9e-05  2.063179  0.0
O  O198  1  0.03782505  0.03291025  0.63527590  1  -1.145481  0.001066  -0.311585  -0.551333  0.000558  2.159042  0.002
O  O199  1  0.46218093  0.53292503  0.86471849  1  -1.145511  0.003431  -0.311691  -0.551477  0.00214  2.159148  0.002
O  O200  1  0.96218921  0.96708866  0.36473671  1  -1.145812  0.001066  -0.311684  -0.551366  0.000559  2.159411  0.002
O  O201  1  0.53780932  0.46709226  0.13526440  1  -1.145591  0.00343  -0.311681  -0.551492  0.002139  2.159372  0.002
O  O202  1  0.09927700  0.77579181  0.89467381  1  -1.332262  0.000351  -0.660456  -0.900572  0.000229  2.045627  0.0
O  O203  1  0.40069015  0.27574700  0.60537415  1  -1.332631  0.000414  -0.660148  -0.900596  0.000259  2.045699  0.0
O  O204  1  0.90064357  0.22427754  0.10543018  1  -1.333682  0.000354  -0.660105  -0.900602  0.000231  2.045523  0.0
O  O205  1  0.59930692  0.72423048  0.39463447  1  -1.33316  0.000414  -0.660304  -0.90083  0.000259  2.04537  0.0
O  O206  1  0.07704396  0.96183502  0.74232915  1  -1.213957  0.001202  -0.445669  -0.73745  0.000778  2.377657  0.001
O  O207  1  0.42295552  0.46184062  0.75767065  1  -1.214485  0.001497  -0.445644  -0.737556  0.000902  2.377854  0.001
O  O208  1  0.92295530  0.03817155  0.25769016  1  -1.214214  0.001204  -0.445501  -0.737457  0.000779  2.378015  0.001
O  O209  1  0.57702035  0.53814451  0.24232532  1  -1.21411  0.001498  -0.445894  -0.737846  0.000902  2.377691  0.001
O  O210  1  0.24213676  0.82494069  0.78354998  1  -1.242489  0.000134  -0.621888  -0.82056  7.5e-05  2.050846  0.0
O  O211  1  0.25785288  0.32494643  0.71644313  1  -1.243678  0.000156  -0.621785  -0.820782  8.3e-05  2.050415  0.0
O  O212  1  0.75780443  0.17503295  0.21644594  1  -1.243991  0.000134  -0.621957  -0.820798  7.5e-05  2.050146  0.0
O  O213  1  0.74213710  0.67502798  0.28354663  1  -1.243699  0.000156  -0.621869  -0.820787  8.3e-05  2.050469  0.0
O  O214  1  0.33900537  0.54980980  0.99958293  1  -1.092039  -0.106174  -0.315482  -0.509491  -0.07536  2.331287  -0.096
O  O215  1  0.16099812  0.04980975  0.50040470  1  -1.092041  0.106085  -0.315489  -0.509609  0.067887  2.331199  0.096
O  O216  1  0.66100442  0.45017993  0.00041041  1  -1.091604  -0.106204  -0.315512  -0.509615  -0.075379  2.331316  -0.096
O  O217  1  0.83900722  0.95018840  0.49959161  1  -1.091748  0.106088  -0.315442  -0.50957  0.067889  2.331155  0.096
O  O218  1  0.27318202  0.06991787  0.84405145  1  -1.255175  0.001005  -0.644449  -0.870475  0.000635  2.107948  0.001
O  O219  1  0.22681742  0.56991601  0.65601464  1  -1.255598  0.001008  -0.64468  -0.870701  0.000628  2.107788  0.001
O  O220  1  0.72678140  0.93007569  0.15608846  1  -1.254203  0.00101  -0.644797  -0.870571  0.000638  2.107275  0.001
O  O221  1  0.77318317  0.43007525  0.34399256  1  -1.255926  0.001008  -0.644643  -0.870501  0.000628  2.108041  0.001
O  O222  1  0.23800309  0.69688163  0.99329183  1  -1.163445  -0.017795  -0.296435  -0.507888  -0.012481  2.207166  -0.015
O  O223  1  0.26198941  0.19688550  0.50670061  1  -1.163415  0.017608  -0.296525  -0.508018  0.011097  2.207481  0.015
O  O224  1  0.76198989  0.30309432  0.00668748  1  -1.16336  -0.01782  -0.296388  -0.507929  -0.012499  2.207271  -0.015
O  O225  1  0.73801295  0.80310192  0.49330562  1  -1.163355  0.017592  -0.296431  -0.507918  0.011088  2.207649  0.015
O  O226  1  0.30951670  0.92595549  0.03090894  1  -1.175837  -0.001999  -0.305387  -0.573315  -0.001503  2.225785  -0.001
O  O227  1  0.19040615  0.42596036  0.46905140  1  -1.176134  0.000836  -0.305395  -0.572989  0.000338  2.225847  0.001
O  O228  1  0.69034652  0.07401049  0.96901711  1  -1.177567  -0.002  -0.30554  -0.57329  -0.001503  2.225954  -0.001
O  O229  1  0.80958128  0.57403472  0.53093718  1  -1.17582  0.000835  -0.305529  -0.573198  0.000338  2.225693  0.001
O  O230  1  0.30572169  0.88645147  0.91437276  1  -1.188818  -0.001311  -0.397367  -0.65316  -0.000892  2.293874  -0.001
O  O231  1  0.19427975  0.38649050  0.58559268  1  -1.19051  0.001473  -0.397308  -0.652915  0.000903  2.293292  0.001
O  O232  1  0.69427631  0.11347547  0.08556603  1  -1.190045  -0.00131  -0.397115  -0.65256  -0.000892  2.293303  -0.001
O  O233  1  0.80573446  0.61350842  0.41439823  1  -1.189406  0.001472  -0.39715  -0.65274  0.000902  2.293781  0.001
O  O234  1  0.67469437  0.54619698  0.66637762  1  -1.111126  0.078929  -0.31014  -0.535885  0.051128  2.381655  0.073
O  O235  1  0.82530873  0.04619655  0.83363171  1  -1.111076  0.07886  -0.310133  -0.535902  0.051092  2.381763  0.073
O  O236  1  0.32530822  0.45380576  0.33357727  1  -1.111336  0.078895  -0.310198  -0.535869  0.051106  2.381504  0.073
O  O237  1  0.17468229  0.95379012  0.16639886  1  -1.110954  0.078934  -0.310091  -0.535683  0.051135  2.381761  0.073
O  O238  1  0.56375341  0.40772946  0.64755150  1  -1.184062  0.013592  -0.359286  -0.603942  0.008685  2.384852  0.012
O  O239  1  0.93624979  0.90772800  0.85244192  1  -1.184042  0.013558  -0.359387  -0.604062  0.00867  2.384703  0.012
O  O240  1  0.43624307  0.59226256  0.35244969  1  -1.183961  0.013586  -0.359277  -0.603956  0.00868  2.38497  0.012
O  O241  1  0.06373304  0.09225330  0.14755332  1  -1.184188  0.013579  -0.359165  -0.603769  0.008682  2.384749  0.012
O  O242  1  0.61895586  0.21691361  0.59295203  1  -1.171365  0.002362  -0.32856  -0.556497  0.001471  2.122572  0.002
O  O243  1  0.88103758  0.71692807  0.90704503  1  -1.171528  0.00235  -0.328497  -0.556335  0.001463  2.123081  0.002
O  O244  1  0.38103348  0.78307076  0.40705464  1  -1.171282  0.002357  -0.328618  -0.556403  0.001468  2.122704  0.002
O  O245  1  0.11892716  0.28304404  0.09294724  1  -1.171323  0.002347  -0.32901  -0.556802  0.001461  2.122985  0.002
O  O246  1  0.64768700  0.13953611  0.69991711  1  -1.182618  0.003821  -0.338609  -0.602497  0.002357  2.212636  0.004
O  O247  1  0.85234372  0.63954601  0.80007477  1  -1.182631  0.003807  -0.338606  -0.602359  0.002347  2.212502  0.004
O  O248  1  0.35233252  0.86046204  0.30009364  1  -1.182236  0.003814  -0.338715  -0.602599  0.002353  2.212689  0.004
O  O249  1  0.14763874  0.36045366  0.19990775  1  -1.18246  0.003805  -0.338541  -0.602339  0.002346  2.212591  0.004
