# generated using pymatgen
data_Al3H26C45Cl5O14
_symmetry_space_group_name_H-M   'P 1'
_cell_length_a   13.43807754
_cell_length_b   12.89433190
_cell_length_c   30.34600004
_cell_angle_alpha   98.86700226
_cell_angle_beta   90.27186251
_cell_angle_gamma   121.89159980
_symmetry_Int_Tables_number   1
_chemical_formula_structural   Al3H26C45Cl5O14
_chemical_formula_sum   'Al6 H52 C90 Cl10 O28'
_cell_volume   4387.78022491
_cell_formula_units_Z   2
loop_
 _symmetry_equiv_pos_site_id
 _symmetry_equiv_pos_as_xyz
  1  'x, y, z'
loop_
 _atom_site_type_symbol
 _atom_site_label
 _atom_site_symmetry_multiplicity
 _atom_site_fract_x
 _atom_site_fract_y
 _atom_site_fract_z
 _atom_site_occupancy
 _atom_site_pbe_bader_charge
 _atom_site_pbe_bader_spin_density
 _atom_site_pbe_cm5_charge
 _atom_site_pbe_ddec_charge
 _atom_site_pbe_ddec_spin_density
 _atom_site_pbe_ddec_sum_bond_order
 _atom_site_pbe_magmom
Al  Al0  1  0.59209516  0.18519638  0.51502427  1  2.496056  0  0.398372  1.686454  0  2.5513  0
Al  Al1  1  0.56894252  0.92195037  0.49644316  1  2.481504  0  0.504278  1.658323  0  2.514548  0
Al  Al2  1  0.34589668  0.92247611  0.49521366  1  2.480163  0  0.503459  1.665947  0  2.507584  0
Al  Al3  1  0.07232933  0.15963099  0.97846698  1  2.493867  0  0.399784  1.688633  0  2.545613  0
Al  Al4  1  0.32272398  0.41716695  0.99581573  1  2.479553  0  0.50518  1.664331  0  2.506698  0
Al  Al5  1  0.10372894  0.42608848  0.99537938  1  2.486717  0  0.502808  1.664392  0  2.508783  0
H  H6  1  0.21033788  0.95655600  0.71102477  1  0.077745  0  0.106684  0.087586  0  0.960732  0
H  H7  1  0.28945160  0.27511252  0.70548041  1  0.084943  0  0.106631  0.140017  0  0.962157  0
H  H8  1  0.17057132  0.11859042  0.69488472  1  0.075253  0  0.104092  0.132458  0  0.97962  0
H  H9  1  0.52475535  0.21036084  0.72652830  1  0.093133  0  0.096511  0.112714  0  1.015102  0
H  H10  1  0.50751932  0.32687853  0.71078623  1  0.0791  0  0.108669  0.130138  0  0.950875  0
H  H11  1  0.15689211  0.61600848  0.81018677  1  0.09703  0  0.109027  0.113925  0  0.983674  0
H  H12  1  0.78452261  0.30901818  0.78981979  1  0.029584  0  0.086847  0.08992  0  0.995505  0
H  H13  1  0.71310217  0.24219706  0.71331984  1  0.038038  0  0.096314  0.099956  0  0.97881  0
H  H14  1  0.93139133  0.35441191  0.71512601  1  0.07389  0  0.101271  0.079591  0  0.963953  0
H  H15  1  0.02917420  0.25484297  0.77378762  1  0.076834  0  0.080654  0.092965  0  1.06617  0
H  H16  1  0.73385424  0.95637225  0.70038116  1  0.05046  0  0.080669  0.085443  0  1.041184  0
H  H17  1  0.67618238  0.15675741  0.79610009  1  0.049727  0  0.089707  0.092993  0  0.994782  0
H  H18  1  0.87150478  0.03059996  0.78278678  1  0.04398  0  0.088061  0.094759  0  1.005676  0
H  H19  1  0.34345692  0.85382405  0.28725382  1  0.055759  0  0.092287  0.091307  0  0.997855  0
H  H20  1  0.17985095  0.50824398  0.28096987  1  0.046371  0  0.095645  0.097622  0  0.975966  0
H  H21  1  0.14788991  0.59107591  0.20164433  1  0.032676  0  0.084822  0.083318  0  1.020426  0
H  H22  1  0.48515151  0.87677689  0.28661621  1  0.012383  0  0.094499  0.094883  0  0.981807  0
H  H23  1  0.38646022  0.52322230  0.20367423  1  0.022105  0  0.092136  0.091055  0  0.996091  0
H  H24  1  0.12920983  0.04423825  0.08368000  1  0.09444  0  0.115277  0.12002  0  0.987068  0
H  H25  1  0.21162486  0.93452275  0.37959428  1  0.119035  0  0.113212  0.118423  0  0.989963  0
H  H26  1  0.50385849  0.32391167  0.32775431  1  0.0707  0  0.106951  0.10923  0  0.988834  0
H  H27  1  0.76546739  0.29541925  0.40759953  1  0.11726  0  0.116666  0.123239  0  0.985282  0
H  H28  1  0.73967696  0.94487955  0.38416603  1  0.112607  0  0.112804  0.118046  0  0.988338  0
H  H29  1  0.92378490  0.07073588  0.08731288  1  0.140784  0  0.120551  0.131209  0  0.987284  0
H  H30  1  0.47168554  0.60438423  0.89229667  1  0.113384  0  0.119386  0.127751  0  0.973498  0
H  H31  1  0.24629735  0.98616001  0.78950778  1  0.078674  0  0.10334  0.126206  0  0.970939  0
H  H32  1  0.13948096  0.57929317  0.88915327  1  0.102169  0  0.117333  0.124003  0  0.98365  0
H  H33  1  0.40076595  0.06453534  0.78766546  1  0.08339  0  0.099971  0.121363  0  0.985139  0
H  H34  1  0.45779121  0.37510835  0.78206166  1  0.092064  0  0.09929  0.078664  0  0.994579  0
H  H35  1  0.00295244  0.37535834  0.78910365  1  0.044165  0  0.093755  0.103451  0  0.991153  0
H  H36  1  0.88953147  0.04298204  0.70637742  1  0.052936  0  0.084454  0.087425  0  1.010411  0
H  H37  1  0.72366679  0.99050898  0.77839465  1  0.053793  0  0.09324  0.09673  0  0.973348  0
H  H38  1  0.63469506  0.08427457  0.71843737  1  0.043962  0  0.087576  0.091568  0  1.012792  0
H  H39  1  0.31772702  0.81515370  0.20888212  1  0.023477  0  0.096683  0.097735  0  0.973155  0
H  H40  1  0.16394491  0.63518967  0.27992718  1  0.027003  0  0.091971  0.091592  0  0.981701  0
H  H41  1  0.17756457  0.47363319  0.20302269  1  0.045654  0  0.092496  0.096735  0  0.976947  0
H  H42  1  0.51199995  0.69772527  0.28689353  1  0.019883  0  0.093218  0.090609  0  0.983392  0
H  H43  1  0.38807497  0.54473048  0.28164217  1  0.044639  0  0.095419  0.095941  0  0.975658  0
H  H44  1  0.50532068  0.67888338  0.20879710  1  0.054404  0  0.093958  0.092174  0  0.97782  0
H  H45  1  0.46434724  0.85202543  0.20856645  1  0.030463  0  0.097087  0.096599  0  0.975372  0
H  H46  1  0.14758202  0.01060337  0.16169064  1  0.06246  0  0.106389  0.108608  0  0.989362  0
H  H47  1  0.18770588  0.95763805  0.30050472  1  0.080761  0  0.105269  0.106772  0  0.991059  0
H  H48  1  0.52626211  0.29884937  0.40671901  1  0.115849  0  0.114331  0.118018  0  0.987354  0
H  H49  1  0.53298262  0.76912753  0.59824628  1  0.154255  0  0.122189  0.146198  0  0.983511  0
H  H50  1  0.48332179  0.35869599  0.18904256  1  0.083475  0  0.106395  0.108801  0  0.989629  0
H  H51  1  0.46261002  0.39112502  0.11113985  1  0.098086  0  0.114254  0.119798  0  0.986215  0
H  H52  1  0.82246864  0.32555810  0.32979641  1  0.072377  0  0.107269  0.110422  0  0.989198  0
H  H53  1  0.87654498  0.03292828  0.16511270  1  0.079518  0  0.11064  0.116458  0  0.981281  0
H  H54  1  0.49107741  0.64310121  0.81373031  1  0.081969  0  0.110099  0.11652  0  0.980969  0
H  H55  1  0.79670500  0.97327088  0.30637084  1  0.080846  0  0.104701  0.106322  0  0.993266  0
H  H56  1  0.66491179  0.38933373  0.50566415  1  0.55205  0  0.288627  0.375208  0  0.935619  0
H  H57  1  0.01168732  0.95493595  0.98237025  1  0.57171  0  0.289053  0.376914  0  0.933321  0
C  C58  1  0.70829645  0.09678324  0.57084015  1  1.668956  0  0.281842  0.719435  0  4.15263  0
C  C59  1  0.33622877  0.66558394  0.67655464  1  0.173952  0  -0.006537  0.032712  0  4.104959  0
C  C60  1  0.23835500  0.64968037  0.65139166  1  0.116735  0  0.015997  0.047142  0  4.003499  0
C  C61  1  0.24546490  0.67544583  0.60769706  1  0.148762  0  0.019668  0.07013  0  4.019489  0
C  C62  1  0.22599827  0.61476375  0.82856792  1  -0.077865  0  -0.077763  -0.121432  0  3.932267  0
C  C63  1  0.21663985  0.59520056  0.87243845  1  -0.001136  0  -0.071699  -0.076904  0  3.962334  0
C  C64  1  0.40463740  0.60967314  0.87430049  1  -0.001404  0  -0.070745  -0.073825  0  3.960558  0
C  C65  1  0.41500601  0.63046479  0.83056113  1  -0.010269  0  -0.079926  -0.125009  0  3.944184  0
C  C66  1  0.32466940  0.63101159  0.80672388  1  0.079514  0  0.004221  0.143268  0  4.09517  0
C  C67  1  0.33015104  0.64293298  0.76117565  1  -0.208712  0  -0.031118  -0.082979  0  4.078666  0
C  C68  1  0.33120105  0.64973166  0.72148356  1  -0.104778  0  -0.051396  -0.096996  0  4.183723  0
C  C69  1  0.38048930  0.77514737  0.54701670  1  1.566667  0  0.277672  0.660311  0  4.064144  0
C  C70  1  0.30515223  0.59103423  0.89541686  1  0.01523  0  -0.011064  -0.049087  0  3.971255  0
C  C71  1  0.30292468  0.02498940  0.72348443  1  0.133512  0  -0.039183  0.055721  0  3.754643  0
C  C72  1  0.25557983  0.18413217  0.71477446  1  -0.004929  0  -0.15829  -0.298904  0  3.834197  0
C  C73  1  0.23920020  0.19250898  0.76520222  1  0.222838  0  0.072131  0.228484  0  3.701376  0
C  C74  1  0.30937236  0.21512897  0.87812213  1  0.24408  0  -0.034331  -0.177567  0  3.933785  0
C  C75  1  0.34488758  0.14450134  0.70405704  1  0.154468  0  0.001839  0.157966  0  3.884686  0
C  C76  1  0.32049940  0.05764388  0.77494037  1  -0.042552  0  -0.161984  -0.246727  0  3.854518  0
C  C77  1  0.33631154  0.18599243  0.79124771  1  0.122019  0  -0.003715  0.068746  0  3.886609  0
C  C78  1  0.45566544  0.28803457  0.77725172  1  0.090138  0  -0.045121  0.062085  0  3.766865  0
C  C79  1  0.46775379  0.24768450  0.72824985  1  -0.062867  0  -0.159487  -0.254591  0  3.839496  0
C  C80  1  0.38559785  0.09439711  0.57070472  1  1.670236  0  0.27914  0.715343  0  4.156038  0
C  C81  1  0.32712102  0.20486848  0.83900319  1  -0.467999  0  -0.034356  -0.038955  0  4.084986  0
C  C82  1  0.34921728  0.12425933  0.65595538  1  -0.544207  0  -0.021496  -0.022032  0  4.009947  0
C  C83  1  0.35730132  0.11193979  0.61591483  1  0.286911  0  -0.037051  -0.192195  0  3.937549  0
C  C84  1  0.72028160  0.17224532  0.72711882  1  -0.029587  0  -0.154673  -0.186583  0  3.836565  0
C  C85  1  0.93479704  0.27412794  0.72056892  1  0.086702  0  -0.035559  0.075233  0  3.734041  0
C  C86  1  0.96410532  0.28034163  0.77033011  1  -0.020114  0  -0.162717  -0.243994  0  3.830333  0
C  C87  1  0.90404526  0.22579342  0.87871027  1  0.015579  0  -0.051183  -0.232254  0  3.963122  0
C  C88  1  0.81405015  0.15412361  0.70331570  1  0.15156  0  -0.001748  0.130282  0  3.891911  0
C  C89  1  0.75317835  0.21062007  0.77835252  1  -0.023513  0  -0.160622  -0.20253  0  3.881172  0
C  C90  1  0.85128818  0.18875460  0.79065658  1  0.167887  0  0.002043  0.178786  0  3.88577  0
C  C91  1  0.70377749  0.09789442  0.44463387  1  1.55947  0  0.269994  0.633883  0  4.100548  0
C  C92  1  0.81191093  0.05411977  0.76894377  1  -0.062517  0  -0.156646  -0.187331  0  3.841679  0
C  C93  1  0.81195813  0.04306674  0.71762920  1  -0.026146  0  -0.164985  -0.193059  0  3.856379  0
C  C94  1  0.87779099  0.20975109  0.83875643  1  -0.297448  0  -0.005731  0.007112  0  3.977748  0
C  C95  1  0.78782596  0.13527943  0.65531521  1  -0.265611  0  -0.012674  -0.003194  0  4.018863  0
C  C96  1  0.75881796  0.11910020  0.61566821  1  -0.02735  0  -0.047958  -0.219365  0  3.966425  0
C  C97  1  0.39248957  0.81257425  0.27298057  1  -0.019347  0  -0.149198  -0.178915  0  3.824351  0
C  C98  1  0.21601290  0.59527108  0.26817355  1  -0.001942  0  -0.153536  -0.187863  0  3.850505  0
C  C99  1  0.20955250  0.57141551  0.21639433  1  -0.039603  0  -0.157303  -0.189834  0  3.840804  0
C  C100  1  0.31684285  0.62043335  0.11178503  1  0.072211  0  -0.055184  -0.243834  0  3.969794  0
C  C101  1  0.34555316  0.68669818  0.28859526  1  0.178525  0  0.001028  0.160992  0  3.900129  0
C  C102  1  0.38574445  0.77662813  0.42508006  1  1.617562  0  0.280568  0.731316  0  4.146299  0
C  C103  1  0.37951477  0.79213856  0.22114077  1  0.016127  0  -0.149742  -0.180556  0  3.834008  0
C  C104  1  0.33321183  0.65450097  0.20106667  1  0.179134  0  0.001577  0.162287  0  3.900403  0
C  C105  1  0.41736219  0.61939901  0.21928576  1  -0.03072  0  -0.153585  -0.186029  0  3.846889  0
C  C106  1  0.42128646  0.63420141  0.27097407  1  -0.033633  0  -0.152713  -0.186141  0  3.84877  0
C  C107  1  0.32528531  0.63684445  0.15255177  1  -0.391391  0  0.000127  0.012139  0  3.987552  0
C  C108  1  0.35348856  0.70725619  0.33716017  1  -0.608198  0  -3.2e-05  0.008793  0  3.991877  0
C  C109  1  0.36175915  0.72744276  0.37794694  1  0.312219  0  -0.055065  -0.243205  0  3.97442  0
C  C110  1  0.36981783  0.11580676  0.39776214  1  0.028488  0  -0.01232  -0.044091  0  3.968401  0
C  C111  1  0.45214168  0.22563788  0.38314027  1  -0.055047  0  -0.073519  -0.077572  0  3.977005  0
C  C112  1  0.43988360  0.23906427  0.33932552  1  -0.057104  0  -0.081075  -0.127097  0  3.946196  0
C  C113  1  0.39020604  0.09780945  0.44342931  1  1.563633  0  0.269097  0.635741  0  4.098262  0
C  C114  1  0.34463274  0.14210397  0.30883029  1  0.117432  0  0.004046  0.144491  0  4.113921  0
C  C115  1  0.26139799  0.03230884  0.32393877  1  -0.021475  0  -0.083162  -0.132356  0  3.958975  0
C  C116  1  0.27413659  0.01965966  0.36786856  1  -0.087468  0  -0.076287  -0.083286  0  3.982896  0
C  C117  1  0.21662874  0.09334631  0.15037426  1  -0.038475  0  -0.081763  -0.128951  0  3.949893  0
C  C118  1  0.20644674  0.11152099  0.10711423  1  0.029577  0  -0.074539  -0.08003  0  3.977674  0
C  C119  1  0.39501096  0.30776550  0.12254439  1  -0.00648  0  -0.07601  -0.08237  0  3.979947  0
C  C120  1  0.40600096  0.29007895  0.16584091  1  -0.063367  0  -0.081917  -0.130737  0  3.952763  0
C  C121  1  0.31636896  0.18288867  0.18059457  1  0.093545  0  0.003411  0.143887  0  4.114151  0
C  C122  1  0.32575861  0.16683902  0.22513778  1  -0.428917  0  -0.043547  -0.107617  0  4.122854  0
C  C123  1  0.33380772  0.15476287  0.26389943  1  0.053889  0  -0.043558  -0.108149  0  4.121958  0
C  C124  1  0.35431315  0.72231800  0.58898862  1  0.036438  0  -0.013601  -0.078542  0  3.932128  0
C  C125  1  0.29500822  0.21901948  0.09291442  1  -0.035006  0  -0.012342  -0.043763  0  3.968887  0
C  C126  1  0.74914595  0.11856074  0.40012203  1  0.010729  0  -0.010014  -0.037494  0  3.961054  0
C  C127  1  0.75884346  0.02801370  0.37188531  1  -0.042575  0  -0.075804  -0.085042  0  3.982479  0
C  C128  1  0.78988411  0.04358222  0.32868483  1  -0.061972  0  -0.083459  -0.132686  0  3.959466  0
C  C129  1  0.81189194  0.15061452  0.31291151  1  0.086885  0  0.00319  0.139625  0  4.114419  0
C  C130  1  0.80461129  0.24271098  0.34197234  1  -0.008431  0  -0.078848  -0.122171  0  3.943744  0
C  C131  1  0.77340010  0.22641786  0.38498102  1  -0.049216  0  -0.072526  -0.07931  0  3.97234  0
C  C132  1  0.90067005  0.31194414  0.17222745  1  0.090468  0  0.013956  0.035018  0  3.97592  0
C  C133  1  0.92779390  0.33335639  0.12841905  1  0.097583  0  0.021556  0.078128  0  4.007375  0
C  C134  1  0.91668586  0.13720338  0.11175495  1  -0.03636  0  -0.075434  -0.076356  0  3.99005  0
C  C135  1  0.45000830  0.73335486  0.61308818  1  0.044223  0  -0.081988  -0.150065  0  3.960022  0
C  C136  1  0.89085541  0.11655715  0.15472986  1  -0.007048  0  -0.083176  -0.122649  0  3.973166  0
C  C137  1  0.88336472  0.20420074  0.18618644  1  0.157663  0  -0.000421  0.098453  0  4.120087  0
C  C138  1  0.85933255  0.18453620  0.23035448  1  -0.323825  0  -0.050438  -0.106542  0  4.150257  0
C  C139  1  0.83865316  0.16637012  0.26851258  1  -0.016691  0  -0.035662  -0.09026  0  4.100962  0
C  C140  1  0.93695288  0.24512695  0.09761390  1  0.006801  0  -0.012912  -0.089296  0  3.913792  0
C  C141  1  0.27629350  0.23655482  0.92208745  1  1.679356  0  0.278687  0.713444  0  4.149862  0
C  C142  1  0.28670396  0.55364846  0.93992693  1  1.521322  0  0.277545  0.64646  0  4.082215  0
C  C143  1  0.95512772  0.24958435  0.92363825  1  1.631649  0  0.281936  0.719936  0  4.152662  0
C  C144  1  0.27699069  0.24266483  0.04802634  1  1.555013  0  0.269236  0.636141  0  4.100205  0
C  C145  1  0.29064555  0.57222746  0.06457466  1  1.645086  0  0.283824  0.73479  0  4.141315  0
C  C146  1  0.44086768  0.70365563  0.65542986  1  0.039742  0  0.018046  0.110886  0  4.020629  0
C  C147  1  0.97515061  0.25936135  0.05133671  1  1.599544  0  0.268665  0.643767  0  4.087458  0
Cl  Cl148  1  0.09613553  0.06724454  0.77390741  1  -0.204441  0  0.006679  -0.085694  0  1.443138  0
Cl  Cl149  1  0.25111602  0.33618864  0.78740094  1  -0.203586  0  0.01395  -0.094768  0  1.612461  0
Cl  Cl150  1  0.57703060  0.32035788  0.81400449  1  -0.244369  0  -0.027722  -0.109959  0  1.410253  0
Cl  Cl151  1  0.38064826  0.95143978  0.70369651  1  -0.252885  0  -0.023675  -0.112476  0  1.486628  0
Cl  Cl152  1  0.04979345  0.28209892  0.68791337  1  -0.269291  0  -0.055482  -0.14908  0  1.411589  0
Cl  Cl153  1  0.11074336  0.60273884  0.67629139  1  -0.170228  0  0.013106  -0.043076  0  1.613588  0
Cl  Cl154  1  0.12085896  0.64709357  0.57927881  1  -0.128484  0  0.028535  -0.008673  0  1.579874  0
Cl  Cl155  1  0.94975269  0.46822786  0.11520124  1  -0.158262  0  0.013227  -0.037844  0  1.603556  0
Cl  Cl156  1  0.88800605  0.41695580  0.21034518  1  -0.187492  0  -0.000994  -0.065571  0  1.577303  0
Cl  Cl157  1  0.55980873  0.71658883  0.68356460  1  -0.196328  0  0.016006  -0.049714  0  1.504612  0
O  O158  1  0.48793280  0.17291384  0.56251419  1  -1.216129  0  -0.201624  -0.543243  0  2.287686  0
O  O159  1  0.48222770  0.80029066  0.44448998  1  -1.256478  0  -0.230752  -0.593301  0  2.248392  0
O  O160  1  0.31250883  0.79944713  0.44379753  1  -1.247623  0  -0.229949  -0.592627  0  2.246752  0
O  O161  1  0.31011937  0.99539716  0.45505295  1  -1.27805  0  -0.2479  -0.612284  0  2.287629  0
O  O162  1  0.50097779  0.00789376  0.50179829  1  -1.610482  0  -0.390436  -1.266975  0  2.291882  0
O  O163  1  0.96972218  0.16841772  0.93545706  1  -1.215456  0  -0.200031  -0.53384  0  2.266632  0
O  O164  1  0.17024405  0.16527372  0.92858954  1  -1.214873  0  -0.204147  -0.547534  0  2.278757  0
O  O165  1  0.35745578  0.33044302  0.95038667  1  -1.25625  0  -0.243472  -0.607321  0  2.229016  0
O  O166  1  0.35873330  0.52944041  0.95632362  1  -1.258943  0  -0.233663  -0.598023  0  2.295849  0
O  O167  1  0.19615528  0.54075082  0.95821392  1  -1.265216  0  -0.234898  -0.601384  0  2.313788  0
O  O168  1  0.98709130  0.35608310  0.94795945  1  -1.257632  0  -0.245237  -0.612133  0  2.227733  0
O  O169  1  0.69018270  0.17665039  0.56014879  1  -1.213864  0  -0.200116  -0.533086  0  2.273047  0
O  O170  1  0.99152343  0.17717545  0.03108747  1  -1.233989  0  -0.216421  -0.563938  0  2.360345  0
O  O171  1  0.18383812  0.16194780  0.02292748  1  -1.25447  0  -0.224807  -0.588721  0  2.350521  0
O  O172  1  0.35659555  0.34838906  0.03853589  1  -1.276859  0  -0.245945  -0.608082  0  2.287539  0
O  O173  1  0.36170730  0.54758552  0.04489607  1  -1.250809  0  -0.230334  -0.593955  0  2.246705  0
O  O174  1  0.19405055  0.55050705  0.04601539  1  -1.248019  0  -0.231108  -0.594686  0  2.255115  0
O  O175  1  0.99278178  0.35412382  0.03559181  1  -1.270806  0  -0.247418  -0.610407  0  2.35154  0
O  O176  1  0.16758171  0.33602922  0.99024377  1  -1.612349  0  -0.390815  -1.268892  0  2.295432  0
O  O177  1  0.68106717  0.99309009  0.54547250  1  -1.25983  0  -0.245931  -0.614195  0  2.231248  0
O  O178  1  0.47707874  0.79867840  0.53127508  1  -1.260277  0  -0.233795  -0.592956  0  2.302009  0
O  O179  1  0.31088684  0.80223459  0.53101105  1  -1.25244  0  -0.231085  -0.598851  0  2.382451  0
O  O180  1  0.30579377  0.99731077  0.54314534  1  -1.252544  0  -0.243304  -0.60673  0  2.228907  0
O  O181  1  0.48536467  0.17953936  0.46716816  1  -1.253944  0  -0.222064  -0.581599  0  2.343989  0
O  O182  1  0.68403165  0.17645306  0.46576204  1  -1.243348  0  -0.216138  -0.572098  0  2.371961  0
O  O183  1  0.68276605  0.99803483  0.45775885  1  -1.271065  0  -0.249385  -0.613583  0  2.281349  0
O  O184  1  0.67524333  0.34793299  0.52756683  1  -1.343496  0  -0.577902  -0.991678  0  1.801979  0
O  O185  1  0.98292848  0.99710001  0.96785103  1  -1.361269  0  -0.577814  -0.993109  0  1.798281  0
