# generated using pymatgen
data_Zn3H22C39O17
_symmetry_space_group_name_H-M   'P 1'
_cell_length_a   18.42043209
_cell_length_b   18.53349020
_cell_length_c   18.57556110
_cell_angle_alpha   109.52945899
_cell_angle_beta   109.06748903
_cell_angle_gamma   108.56117827
_symmetry_Int_Tables_number   1
_chemical_formula_structural   Zn3H22C39O17
_chemical_formula_sum   'Zn6 H44 C78 O34'
_cell_volume   4955.69993474
_cell_formula_units_Z   2
loop_
 _symmetry_equiv_pos_site_id
 _symmetry_equiv_pos_as_xyz
  1  'x, y, z'
loop_
 _atom_site_type_symbol
 _atom_site_label
 _atom_site_symmetry_multiplicity
 _atom_site_fract_x
 _atom_site_fract_y
 _atom_site_fract_z
 _atom_site_occupancy
 _atom_site_pbe_bader_charge
 _atom_site_pbe_bader_spin_density
 _atom_site_pbe_cm5_charge
 _atom_site_pbe_ddec_charge
 _atom_site_pbe_ddec_spin_density
 _atom_site_pbe_ddec_sum_bond_order
 _atom_site_pbe_magmom
Zn  Zn0  1  0.55239045  0.49778974  0.56231917  1  1.307718  0  0.72085  0.954778  0  2.122213  0
Zn  Zn1  1  0.42857756  0.50115590  0.43650163  1  1.314149  0  0.726754  0.956958  0  2.14785  0
Zn  Zn2  1  0.58772053  0.07295367  0.00357009  1  1.306525  0  0.718262  0.940258  0  2.183185  0
Zn  Zn3  1  0.46578411  0.95444992  0.01279384  1  1.300236  0  0.720319  0.952263  0  2.114141  0
Zn  Zn4  1  0.00423588  0.06406881  0.57385779  1  1.299151  0  0.718951  0.939642  0  2.181574  0
Zn  Zn5  1  0.99801390  0.92703837  0.45663882  1  1.303703  0  0.71777  0.945342  0  2.151222  0
H  H6  1  0.31693206  0.72424644  0.70574566  1  0.095255  0  0.106734  0.100838  0  0.979675  0
H  H7  1  0.06336348  0.05145021  0.35062987  1  0.109044  0  0.098719  0.121272  0  1.068061  0
H  H8  1  0.24952511  0.27451544  0.65335979  1  0.062933  0  0.104728  0.106857  0  1.008977  0
H  H9  1  0.41529771  0.21560367  0.32354168  1  0.06625  0  0.108386  0.112732  0  0.991162  0
H  H10  1  0.53527875  0.46802539  0.29605900  1  0.090089  0  0.104521  0.114372  0  1.006266  0
H  H11  1  0.60086684  0.50411767  0.20811165  1  0.060194  0  0.104028  0.100762  0  0.990434  0
H  H12  1  0.61127886  0.38921416  0.09947519  1  0.04785  0  0.10059  0.093386  0  0.993229  0
H  H13  1  0.56194827  0.24288219  0.08401386  1  0.076063  0  0.099324  0.109935  0  1.048408  0
H  H14  1  0.42510467  0.10036514  0.21615208  1  0.096887  0  0.111096  0.118078  0  0.986314  0
H  H15  1  0.79829318  0.67341131  0.58246541  1  0.069618  0  0.107551  0.112522  0  0.987626  0
H  H16  1  0.36215194  0.58964891  0.69400352  1  0.08279  0  0.107934  0.099385  0  0.976483  0
H  H17  1  0.54683372  0.71504160  0.53163356  1  0.078358  0  0.0947  0.101644  0  1.05075  0
H  H18  1  0.50783568  0.82523908  0.51386029  1  0.086135  0  0.098846  0.110139  0  1.024755  0
H  H19  1  0.61145194  0.94756700  0.50962363  1  0.054567  0  0.108013  0.118995  0  0.988277  0
H  H20  1  0.90429093  0.79649674  0.58217131  1  0.071262  0  0.10613  0.110876  0  0.986127  0
H  H21  1  0.31714165  0.89470240  0.73894185  1  0.050973  0  0.105317  0.1095  0  0.991613  0
H  H22  1  0.46916198  0.19966833  0.94326173  1  0.066606  0  0.096994  0.100096  0  1.050629  0
H  H23  1  0.44485757  0.32508399  0.95266397  1  0.04727  0  0.099095  0.093273  0  1.007259  0
H  H24  1  0.31852937  0.30521859  0.82805352  1  0.045335  0  0.101569  0.097003  0  0.99098  0
H  H25  1  0.21427409  0.16044113  0.70019772  1  0.104853  0  0.097436  0.105726  0  1.05495  0
H  H26  1  0.52227728  0.71300264  0.85314434  1  0.086427  0  0.108398  0.10876  0  0.980212  0
H  H27  1  0.19036957  0.87318298  0.61414487  1  0.098018  0  0.107557  0.111627  0  0.991132  0
H  H28  1  0.77326206  0.13498337  0.28429220  1  0.101414  0  0.116219  0.12085  0  0.966878  0
H  H29  1  0.68812872  0.76072865  0.95901237  1  0.162467  0  0.114284  0.122942  0  1.021225  0
H  H30  1  0.79865930  0.81093702  0.22429132  1  0.158692  0  0.114029  0.13424  0  1.017867  0
H  H31  1  0.86310731  0.10636533  0.39365244  1  0.130338  0  0.114782  0.122835  0  0.987643  0
H  H32  1  0.55944364  0.88136191  0.76156468  1  0.116498  0  0.114155  0.122654  0  0.964054  0
H  H33  1  0.37822825  0.37912008  0.65725887  1  0.077557  0  0.108108  0.115033  0  0.986252  0
H  H34  1  0.31031993  0.27118173  0.35733440  1  0.098092  0  0.099592  0.106803  0  1.035027  0
H  H35  1  0.19314019  0.13988339  0.21774932  1  0.062453  0  0.11117  0.125132  0  0.981265  0
H  H36  1  0.94660453  0.97594334  0.20291825  1  0.040583  0  0.095318  0.056511  0  0.990052  0
H  H37  1  0.01181532  0.92544781  0.22843474  1  0.049061  0  0.100359  0.062628  0  0.961477  0
H  H38  1  0.98310146  0.85928605  0.07185712  1  0.060995  0  0.093598  0.127982  0  0.990686  0
H  H39  1  0.88429125  0.82399243  0.07776011  1  0.039422  0  0.086599  0.120355  0  1.031612  0
H  H40  1  0.91340487  0.90554497  0.04681028  1  0.037819  0  0.090198  0.12646  0  0.997355  0
H  H41  1  0.84806816  0.06974216  0.66034276  1  0.063453  0  0.094484  0.057941  0  0.983212  0
H  H42  1  0.74418957  0.06566635  0.61440758  1  0.031897  0  0.095556  0.049154  0  0.989898  0
H  H43  1  0.86372308  0.19732148  0.63655546  1  0.042685  0  0.093624  0.124475  0  0.994821  0
H  H44  1  0.88797787  0.12886683  0.56555756  1  0.017317  0  0.084397  0.115566  0  1.036572  0
H  H45  1  0.78539338  0.12655136  0.52351910  1  0.029992  0  0.09202  0.125366  0  0.991892  0
H  H46  1  0.78417995  0.01760436  0.98698088  1  0.638057  0  0.353902  0.392486  0  0.832963  0
H  H47  1  0.73405446  0.60134113  0.08844959  1  0.626738  0  0.346692  0.382149  0  0.853634  0
H  H48  1  0.70747985  0.71421132  0.79478559  1  0.62013  0  0.34554  0.382243  0  0.848145  0
H  H49  1  0.28067026  0.71908509  0.48572768  1  0.605978  0  0.34645  0.380796  0  0.853954  0
C  C50  1  0.39635964  0.38106787  0.52111154  1  1.539544  0  0.223608  0.612845  0  4.128944  0
C  C51  1  0.51478659  0.81703742  0.74718305  1  0.001846  0  -0.063344  -0.07722  0  3.596974  0
C  C52  1  0.42556426  0.75095994  0.66167543  1  0.017825  0  0.000483  -0.040653  0  3.639311  0
C  C53  1  0.45079944  0.67615273  0.65597639  1  0.022608  0  0.013916  -0.026744  0  3.572393  0
C  C54  1  0.25718080  0.22310002  0.35657691  1  0.023682  0  -0.094259  -0.112439  0  4.016068  0
C  C55  1  0.19205583  0.15081546  0.27873428  1  -0.057538  0  -0.098537  -0.185309  0  4.012302  0
C  C56  1  0.12108475  0.08843130  0.27628421  1  0.469864  0  0.083193  0.265828  0  4.105597  0
C  C57  1  0.11695117  0.09976907  0.35220956  1  0.0102  0  -0.123058  -0.300087  0  3.97319  0
C  C58  1  0.18437490  0.17398352  0.43407903  1  -0.013995  0  0.003375  0.095527  0  3.943382  0
C  C59  1  0.25607223  0.23757034  0.43641253  1  -0.025106  0  -0.006131  0.04196  0  3.952916  0
C  C60  1  0.32496958  0.31140649  0.51814562  1  -0.034797  0  -0.007371  -0.053936  0  3.941484  0
C  C61  1  0.45103866  0.61022352  0.58386475  1  1.54379  0  0.218203  0.595947  0  4.156614  0
C  C62  1  0.32399074  0.32308033  0.59542942  1  0.005648  0  -0.090896  -0.116991  0  4.016261  0
C  C63  1  0.25195859  0.26401654  0.59307200  1  0.021648  0  -0.083828  -0.090067  0  4.007097  0
C  C64  1  0.18367467  0.19070929  0.51517155  1  -0.037586  0  -0.015155  -0.077879  0  3.911017  0
C  C65  1  0.54126618  0.41862934  0.24982537  1  -0.028864  0  -0.088851  -0.127148  0  3.971392  0
C  C66  1  0.57744993  0.43863598  0.20037663  1  -0.094324  0  -0.09292  -0.086217  0  4.054529  0
C  C67  1  0.58362624  0.37396029  0.13958183  1  -0.000924  0  -0.09224  -0.079764  0  4.04987  0
C  C68  1  0.55551611  0.29130109  0.13023477  1  -0.035038  0  -0.093904  -0.134931  0  3.974814  0
C  C69  1  0.51885160  0.26803586  0.18075092  1  -0.010428  0  0.004973  0.072643  0  3.917933  0
C  C70  1  0.51041133  0.33369440  0.24087491  1  0.021922  0  0.000747  0.054631  0  3.946464  0
C  C71  1  0.47354479  0.31311077  0.29248252  1  -0.007406  0  0.001047  -0.042009  0  3.921973  0
C  C72  1  0.63224055  0.62818398  0.54016500  1  1.536197  0  0.226361  0.617588  0  4.104484  0
C  C73  1  0.44306158  0.23035550  0.28338115  1  -0.02621  0  -0.085697  -0.108554  0  3.995329  0
C  C74  1  0.44917625  0.16555483  0.22333486  1  -0.047762  0  -0.075817  -0.077496  0  3.984525  0
C  C75  1  0.48822168  0.18311046  0.17432141  1  -0.009612  0  -0.014229  -0.088279  0  3.921873  0
C  C76  1  0.59266413  0.76864189  0.53124716  1  -0.038442  0  -0.099623  -0.133482  0  3.987888  0
C  C77  1  0.57043872  0.83000127  0.52063556  1  0.016515  0  -0.092641  -0.057131  0  4.044663  0
C  C78  1  0.62913326  0.89958027  0.51979768  1  0.040801  0  -0.102462  -0.202385  0  4.042402  0
C  C79  1  0.71044665  0.90905908  0.53201280  1  0.461089  0  0.078745  0.198227  0  4.056734  0
C  C80  1  0.73741034  0.84796301  0.54540213  1  -0.042451  0  -0.002118  -0.037922  0  3.897574  0
C  C81  1  0.67452596  0.77436218  0.54228783  1  -0.021258  0  0.005834  0.084345  0  3.918486  0
C  C82  1  0.69794788  0.71064153  0.55389959  1  -0.01493  0  -0.007769  -0.057752  0  3.908216  0
C  C83  1  0.47224239  0.38303479  0.36128966  1  1.577682  0  0.227648  0.612876  0  4.140618  0
C  C84  1  0.78100249  0.72157097  0.57227017  1  0.021723  0  -0.084062  -0.096825  0  4.009231  0
C  C85  1  0.84093591  0.79146220  0.57286795  1  -0.014939  0  -0.088833  -0.107571  0  4.007202  0
C  C86  1  0.82056940  0.85331407  0.55900612  1  0.012946  0  -0.002505  -0.036073  0  3.89833  0
C  C87  1  0.43572123  0.03955067  0.88796064  1  1.545387  0  0.223385  0.611729  0  4.126533  0
C  C88  1  0.48526264  0.86843206  0.88247742  1  1.531298  0  0.220149  0.61036  0  4.124075  0
C  C89  1  0.67198329  0.02866333  0.11201582  1  1.562461  0  0.223509  0.607795  0  4.140168  0
C  C90  1  0.49951224  0.11230492  0.11941408  1  1.516939  0  0.2227  0.60888  0  4.119345  0
C  C91  1  0.88583510  0.97021468  0.37101977  1  1.54753  0  0.223919  0.60449  0  4.120388  0
C  C92  1  0.11398117  0.12879966  0.52115290  1  1.50627  0  0.218424  0.604483  0  4.121294  0
C  C93  1  0.13414862  0.98539714  0.60519193  1  1.514713  0  0.219965  0.608879  0  4.12712  0
C  C94  1  0.40593243  0.65577496  0.71127193  1  -0.019976  0  -0.063733  -0.051936  0  3.617348  0
C  C95  1  0.88951647  0.91807797  0.55350995  1  1.548367  0  0.230532  0.623243  0  4.105676  0
C  C96  1  0.41302493  0.19080163  0.89032675  1  -0.023741  0  -0.093944  -0.133958  0  3.985539  0
C  C97  1  0.39981710  0.26089607  0.89496513  1  -0.027232  0  -0.092745  -0.078453  0  4.045225  0
C  C98  1  0.32812101  0.24931591  0.82492970  1  -0.037504  0  -0.092153  -0.080558  0  4.040267  0
C  C99  1  0.26949656  0.16793392  0.75279368  1  0.002247  0  -0.093733  -0.131154  0  3.97065  0
C  C100  1  0.27933052  0.09332739  0.74656524  1  0.009924  0  0.004917  0.072794  0  3.913734  0
C  C101  1  0.35448665  0.10614714  0.81666833  1  -0.032824  0  0.002027  0.058054  0  3.947058  0
C  C102  1  0.36569629  0.03243317  0.81245345  1  0.01818  0  -0.00217  -0.048306  0  3.923252  0
C  C103  1  0.30795782  0.95035203  0.74032971  1  -0.018996  0  -0.085325  -0.101946  0  4.001706  0
C  C104  1  0.23623485  0.93800800  0.67048670  1  -0.065852  0  -0.079772  -0.087082  0  3.99785  0
C  C105  1  0.38080986  0.72946352  0.71639156  1  -0.029129  0  -0.063738  -0.069885  0  3.599118  0
C  C106  1  0.21946081  0.00658253  0.67404018  1  -0.011946  0  -0.009538  -0.074583  0  3.920013  0
C  C107  1  0.72101953  0.88629958  0.05583326  1  -0.003127  0  -0.010611  -0.079586  0  3.953243  0
C  C108  1  0.70989167  0.80270727  0.02749214  1  -0.062897  0  -0.064334  -0.098695  0  3.92885  0
C  C109  1  0.73299955  0.77357727  0.08864405  1  0.037122  0  -0.015657  -0.040157  0  4.004601  0
C  C110  1  0.77435328  0.83131329  0.17726146  1  -0.056027  0  -0.063023  -0.11036  0  3.870972  0
C  C111  1  0.78616338  0.91768837  0.20848783  1  -0.039899  0  0.00801  0.060846  0  3.952278  0
C  C112  1  0.74933468  0.94203155  0.14556124  1  0.042616  0  0.013834  0.049202  0  3.902807  0
C  C113  1  0.74022691  0.01882653  0.17406299  1  -0.01983  0  0.003212  -0.038403  0  3.890751  0
C  C114  1  0.78047291  0.07647953  0.26244257  1  -0.023842  0  -0.072884  -0.090983  0  3.964586  0
C  C115  1  0.82852219  0.05902672  0.32435271  1  0.033087  0  -0.069502  -0.070211  0  3.958149  0
C  C116  1  0.47077955  0.79833312  0.80239197  1  0.024828  0  -0.00255  -0.026477  0  3.639448  0
C  C117  1  0.83060562  0.98062153  0.29957084  1  -0.061244  0  -0.006898  -0.076993  0  3.907259  0
C  C118  1  0.49439862  0.72250785  0.79763750  1  0.008484  0  -0.064104  -0.064351  0  3.59377  0
C  C119  1  0.53988856  0.74353682  0.74429775  1  0.039092  0  0.003584  -0.034129  0  3.646811  0
C  C120  1  0.98805256  0.95037840  0.18449973  1  0.412935  0  -0.064645  0.092666  0  3.903356  0
C  C121  1  0.93925072  0.88062521  0.08946089  1  -0.068241  0  -0.246518  -0.397605  0  3.975179  0
C  C122  1  0.79799039  0.06259504  0.60200948  1  0.397538  0  -0.069484  0.08898  0  3.914098  0
C  C123  1  0.83592043  0.13273817  0.58050325  1  -0.040861  0  -0.243348  -0.38698  0  3.976081  0
C  C124  1  0.71920523  0.91987056  0.99304910  1  1.520086  0  0.233359  0.567669  0  4.129565  0
C  C125  1  0.71898157  0.68274948  0.05446942  1  1.486568  0  0.225175  0.562985  0  4.14535  0
C  C126  1  0.62489479  0.74943340  0.75288087  1  1.526086  0  0.226929  0.587453  0  4.131939  0
C  C127  1  0.38601223  0.76687642  0.58898873  1  1.500287  0  0.232142  0.580061  0  4.125482  0
O  O128  1  0.47622010  0.40890853  0.57639707  1  -1.129091  0  -0.315152  -0.522555  0  2.218247  0
O  O129  1  0.41024917  0.99105084  0.91868168  1  -1.165938  0  -0.306955  -0.565036  0  2.294403  0
O  O130  1  0.54175681  0.94568636  0.90988735  1  -1.173578  0  -0.308357  -0.566681  0  2.369894  0
O  O131  1  0.43927353  0.84672916  0.91878676  1  -1.121223  0  -0.323433  -0.530177  0  2.209469  0
O  O132  1  0.69464871  0.08462328  0.08674092  1  -1.122339  0  -0.312796  -0.521877  0  2.249879  0
O  O133  1  0.59422877  0.97957797  0.09151966  1  -1.152089  0  -0.302485  -0.556978  0  2.277887  0
O  O134  1  0.55880581  0.13237950  0.09785765  1  -1.181896  0  -0.3113  -0.5695  0  2.380613  0
O  O135  1  0.44921227  0.03277299  0.09749499  1  -1.1208  0  -0.319001  -0.532325  0  2.24161  0
O  O136  1  0.90889677  0.02298323  0.44865304  1  -1.169218  0  -0.303261  -0.562274  0  2.36823  0
O  O137  1  0.91040147  0.91184994  0.35020120  1  -1.134999  0  -0.310431  -0.526745  0  2.280842  0
O  O138  1  0.09107097  0.16149985  0.57793456  1  -1.131885  0  -0.324313  -0.543483  0  2.235065  0
O  O139  1  0.37273571  0.40935433  0.46892444  1  -1.176608  0  -0.310675  -0.573501  0  2.364282  0
O  O140  1  0.08253652  0.04755335  0.47285254  1  -1.177482  0  -0.305567  -0.560471  0  2.349879  0
O  O141  1  0.09757848  0.02990314  0.62732485  1  -1.177953  0  -0.309766  -0.56858  0  2.38129  0
O  O142  1  0.09949895  0.92143750  0.52722150  1  -1.125215  0  -0.323514  -0.538459  0  2.208721  0
O  O143  1  0.92806784  0.00002664  0.60762484  1  -1.128968  0  -0.304403  -0.519996  0  2.308077  0
O  O144  1  0.90871271  0.88376876  0.49549474  1  -1.164203  0  -0.314251  -0.571722  0  2.319027  0
O  O145  1  0.50145593  0.58027052  0.60902380  1  -1.170787  0  -0.305099  -0.566711  0  2.364221  0
O  O146  1  0.40393869  0.58820719  0.50368019  1  -1.122654  0  -0.312368  -0.519068  0  2.219152  0
O  O147  1  0.65692241  0.59721148  0.59102510  1  -1.124768  0  -0.320253  -0.541218  0  2.225468  0
O  O148  1  0.55503155  0.59027498  0.47668928  1  -1.191329  0  -0.312721  -0.581897  0  2.362498  0
O  O149  1  0.52301435  0.40725086  0.43973275  1  -1.16335  0  -0.306901  -0.558152  0  2.29427  0
O  O150  1  0.42014254  0.41262057  0.33577315  1  -1.123846  0  -0.31176  -0.526376  0  2.237969  0
O  O151  1  0.51650821  0.09293388  0.91645260  1  -1.133112  0  -0.316861  -0.529458  0  2.232857  0
O  O152  1  0.06140063  0.01960694  0.19497933  1  -1.084143  0  -0.183973  -0.208234  0  2.527571  0
O  O153  1  0.76484832  0.97790627  0.52913425  1  -1.068032  0  -0.206575  -0.236604  0  2.505413  0
O  O154  1  0.66706404  0.87979312  0.91511216  1  -1.1381  0  -0.258856  -0.459752  0  2.234805  0
O  O155  1  0.78947796  0.99998092  0.03187973  1  -1.135497  0  -0.328635  -0.475338  0  2.24113  0
O  O156  1  0.68764282  0.63113654  0.97724699  1  -1.128648  0  -0.299621  -0.486176  0  2.046519  0
O  O157  1  0.74553369  0.66157759  0.11862483  1  -1.126444  0  -0.34101  -0.487249  0  2.210083  0
O  O158  1  0.66420310  0.78391610  0.72180784  1  -1.138714  0  -0.288397  -0.487162  0  2.106673  0
O  O159  1  0.65428523  0.71060018  0.79765229  1  -1.117253  0  -0.33358  -0.479275  0  2.23681  0
O  O160  1  0.42288272  0.82851239  0.58032881  1  -1.132591  0  -0.285733  -0.485913  0  2.095622  0
O  O161  1  0.30078028  0.70456915  0.53209748  1  -1.109938  0  -0.340896  -0.488006  0  2.201811  0
