# generated using pymatgen
data_CoH12C20S2(N2O3)2
_symmetry_space_group_name_H-M   'P 1'
_cell_length_a   9.61860097
_cell_length_b   15.10386390
_cell_length_c   17.28795365
_cell_angle_alpha   99.82373249
_cell_angle_beta   89.99984232
_cell_angle_gamma   89.99995750
_symmetry_Int_Tables_number   1
_chemical_formula_structural   CoH12C20S2(N2O3)2
_chemical_formula_sum   'Co4 H48 C80 S8 N16 O24'
_cell_volume   2474.73379772
_cell_formula_units_Z   4
loop_
 _symmetry_equiv_pos_site_id
 _symmetry_equiv_pos_as_xyz
  1  'x, y, z'
loop_
 _atom_site_type_symbol
 _atom_site_label
 _atom_site_symmetry_multiplicity
 _atom_site_fract_x
 _atom_site_fract_y
 _atom_site_fract_z
 _atom_site_occupancy
 _atom_site_pbe_bader_charge
 _atom_site_pbe_bader_spin_density
 _atom_site_pbe_cm5_charge
 _atom_site_pbe_ddec_charge
 _atom_site_pbe_ddec_spin_density
 _atom_site_pbe_ddec_sum_bond_order
 _atom_site_pbe_magmom
Co  Co0  1  0.58350746  0.65438794  0.03745342  1  1.342246  2.663719  0.681207  0.956686  2.886887  2.387816  2.647
Co  Co1  1  0.08350823  0.84560711  0.96254669  1  1.342123  2.663726  0.681234  0.956763  2.886872  2.387702  2.647
Co  Co2  1  0.41648938  0.34561108  0.96254492  1  1.342213  2.663718  0.681229  0.956756  2.886879  2.387652  2.647
Co  Co3  1  0.91649069  0.15438923  0.03745416  1  1.342304  2.663714  0.681255  0.956807  2.886879  2.38764  2.647
H  H4  1  0.38452296  0.59310047  0.15890286  1  0.122417  0.00132  0.112047  0.076656  0.000293  1.060161  0.001
H  H5  1  0.88452312  0.90690107  0.84109717  1  0.122322  0.001319  0.112054  0.076672  0.000293  1.060153  0.001
H  H6  1  0.61547700  0.40690393  0.84109802  1  0.122179  0.00132  0.112041  0.076683  0.000293  1.060158  0.001
H  H7  1  0.11547685  0.09309795  0.15890292  1  0.122328  0.00132  0.112038  0.076633  0.000293  1.060159  0.001
H  H8  1  0.78270504  0.72876132  0.77716621  1  0.079674  0.000658  0.100884  0.111331  0.000254  1.026953  0.0
H  H9  1  0.28270747  0.77124164  0.22283302  1  0.079335  0.000658  0.10086  0.111276  0.000254  1.026921  0.0
H  H10  1  0.21729908  0.27124040  0.22283542  1  0.079313  0.000658  0.100869  0.111284  0.000254  1.026899  0.0
H  H11  1  0.71729457  0.22876074  0.77716640  1  0.079347  0.000658  0.100872  0.111316  0.000254  1.026889  0.0
H  H12  1  0.77338837  0.72458172  0.91790257  1  0.153368  0.001609  0.119143  0.092672  0.0003  1.054961  0.001
H  H13  1  0.27338837  0.77541721  0.08209609  1  0.153355  0.001609  0.119175  0.092708  0.0003  1.055041  0.001
H  H14  1  0.22661367  0.27541596  0.08209847  1  0.153394  0.001609  0.119141  0.092695  0.0003  1.054963  0.001
H  H15  1  0.72661159  0.22458450  0.91790323  1  0.153341  0.001609  0.119152  0.0927  0.0003  1.055001  0.001
H  H16  1  0.39377856  0.58189754  0.75230298  1  0.132444  0.00079  0.113625  0.129066  0.000392  0.986658  0.0
H  H17  1  0.89377956  0.91810466  0.24769713  1  0.132443  0.00079  0.113588  0.129006  0.000392  0.986681  0.0
H  H18  1  0.60622348  0.41810550  0.24769480  1  0.132428  0.00079  0.1136  0.129029  0.000392  0.986625  0.0
H  H19  1  0.10622352  0.08189841  0.75230644  1  0.132481  0.00079  0.113642  0.129047  0.000392  0.986646  0.0
H  H20  1  0.40836453  0.57543842  0.89405020  1  0.167857  0.001683  0.119984  0.10207  0.000476  1.053818  0.001
H  H21  1  0.90836311  0.92455974  0.10594929  1  0.167874  0.001683  0.120006  0.102073  0.000476  1.053807  0.001
H  H22  1  0.59163647  0.42456195  0.10594893  1  0.167795  0.001683  0.119972  0.10203  0.000476  1.053854  0.001
H  H23  1  0.09163685  0.07544063  0.89405214  1  0.168004  0.001683  0.120015  0.102068  0.000476  1.053798  0.001
H  H24  1  0.88819022  0.34370920  0.87380772  1  0.112087  9.3e-05  0.10477  0.130025  -9.6e-05  1.043046  0.0
H  H25  1  0.38818807  0.15628843  0.12618870  1  0.112071  9.3e-05  0.1048  0.130054  -9.6e-05  1.043018  0.0
H  H26  1  0.11180143  0.65628712  0.12618791  1  0.112104  9.3e-05  0.104795  0.129999  -9.6e-05  1.043144  0.0
H  H27  1  0.61180358  0.84371395  0.87381130  1  0.11212  9.3e-05  0.104807  0.129983  -9.6e-05  1.043134  0.0
H  H28  1  0.10492249  0.44772235  0.83817726  1  0.155096  -4.8e-05  0.115603  0.144517  -0.000111  0.990108  0.0
H  H29  1  0.60491914  0.05227483  0.16181953  1  0.154509  -4.8e-05  0.115665  0.14456  -0.000111  0.990031  0.0
H  H30  1  0.89507123  0.55227533  0.16182031  1  0.155032  -4.8e-05  0.115598  0.144492  -0.000111  0.990143  0.0
H  H31  1  0.39507354  0.94772486  0.83818008  1  0.155007  -4.8e-05  0.115611  0.144481  -0.000111  0.990151  0.0
H  H32  1  0.36817200  0.58692923  0.30006655  1  0.062189  0.000686  0.101999  0.112515  0.000306  1.009771  0.0
H  H33  1  0.86817181  0.91307299  0.69993475  1  0.0622  0.000686  0.102001  0.112492  0.000306  1.009781  0.0
H  H34  1  0.63183212  0.41307450  0.69993653  1  0.062153  0.000686  0.102  0.112477  0.000306  1.009801  0.0
H  H35  1  0.13183023  0.08692737  0.30006495  1  0.06219  0.000686  0.101998  0.112485  0.000306  1.009773  0.0
H  H36  1  0.75823204  0.73055506  0.18722716  1  0.142372  0.001141  0.11915  0.096869  0.000258  1.028088  0.001
H  H37  1  0.25822948  0.76944389  0.81277210  1  0.142376  0.00114  0.119162  0.09688  0.000258  1.028086  0.001
H  H38  1  0.24177000  0.26944934  0.81277371  1  0.142305  0.001141  0.119144  0.096845  0.000258  1.028114  0.001
H  H39  1  0.74176840  0.23055177  0.18722691  1  0.142264  0.001141  0.119125  0.096796  0.000258  1.0281  0.001
H  H40  1  0.75567830  0.73428683  0.33157982  1  0.120007  0.000559  0.10821  0.123764  0.000266  1.009093  0.0
H  H41  1  0.25567541  0.76571145  0.66842050  1  0.120032  0.000559  0.108187  0.123722  0.000266  1.009168  0.0
H  H42  1  0.24432686  0.26571489  0.66842239  1  0.120092  0.000559  0.10819  0.123747  0.000266  1.009251  0.0
H  H43  1  0.74432351  0.23428891  0.33157863  1  0.120019  0.000559  0.108181  0.1237  0.000266  1.009185  0.0
H  H44  1  0.85936672  0.70501831  0.01913282  1  0.653686  0.00116  0.295091  0.391728  0.000913  0.945555  0.002
H  H45  1  0.35936642  0.79497854  0.98086539  1  0.653768  0.00116  0.295113  0.391736  0.000913  0.945551  0.002
H  H46  1  0.14063220  0.29498408  0.98087007  1  0.653614  0.00116  0.295119  0.391758  0.000913  0.945521  0.002
H  H47  1  0.64063146  0.20501577  0.01913110  1  0.65367  0.00116  0.295098  0.391732  0.000913  0.945553  0.002
H  H48  1  0.76140010  0.77439615  0.07918470  1  0.641307  0.000355  0.287679  0.369529  0.000206  0.987712  0.001
H  H49  1  0.26140018  0.72559944  0.92081406  1  0.641262  0.000355  0.287684  0.369537  0.000206  0.987704  0.001
H  H50  1  0.23859778  0.22560154  0.92081634  1  0.641252  0.000355  0.28767  0.369477  0.000206  0.987782  0.001
H  H51  1  0.73859874  0.27439824  0.07918409  1  0.641287  0.000355  0.287681  0.36951  0.000206  0.987745  0.001
C  C52  1  0.68268702  0.45862463  0.98133995  1  1.597952  0.003478  0.213017  0.548311  0.002395  4.231649  0.004
C  C53  1  0.18268658  0.04137451  0.01865642  1  1.59783  0.003479  0.212974  0.548324  0.002395  4.231479  0.004
C  C54  1  0.31731086  0.54137707  0.01865705  1  1.598072  0.003478  0.212947  0.548153  0.002395  4.231904  0.004
C  C55  1  0.81731026  0.95862250  0.98134220  1  1.598064  0.003479  0.212961  0.548208  0.002395  4.231752  0.004
C  C56  1  0.81215917  0.47203242  0.93938329  1  0.357782  0.006507  0.064852  0.061873  0.003219  3.936923  0.005
C  C57  1  0.31215750  0.02796594  0.06061103  1  0.357721  0.006508  0.064863  0.061854  0.00322  3.936983  0.005
C  C58  1  0.18783767  0.52796794  0.06061236  1  0.357762  0.006508  0.064853  0.061822  0.00322  3.937054  0.005
C  C59  1  0.68783727  0.97203174  0.93938654  1  0.357703  0.006508  0.064865  0.06188  0.003219  3.936916  0.005
C  C60  1  0.58782857  0.65532978  0.75118385  1  -0.020318  -0.014525  -0.002928  0.06985  -0.015839  4.057961  -0.009
C  C61  1  0.08782975  0.84466998  0.24881637  1  -0.020388  -0.014527  -0.002913  0.069858  -0.01584  4.057828  -0.009
C  C62  1  0.41217659  0.34466991  0.24881576  1  -0.020347  -0.014523  -0.002988  0.069675  -0.015836  4.057969  -0.009
C  C63  1  0.91217541  0.15533308  0.75118488  1  -0.020316  -0.014525  -0.0029  0.069879  -0.015838  4.057743  -0.009
C  C64  1  0.98569795  0.55557904  0.90962670  1  0.345082  0.00568  0.065082  0.069561  0.003106  3.948598  0.004
C  C65  1  0.48569252  0.94441771  0.09037189  1  0.345067  0.005679  0.065119  0.069635  0.003106  3.948573  0.004
C  C66  1  0.01429681  0.44441729  0.09037125  1  0.345027  0.005678  0.065068  0.069606  0.003105  3.948573  0.004
C  C67  1  0.51429497  0.05558400  0.90962975  1  0.344994  0.005679  0.065025  0.069478  0.003105  3.948754  0.004
C  C68  1  0.06294415  0.64052005  0.91465100  1  1.61039  -0.000443  0.204862  0.535434  -0.0012  4.267771  -0.001
C  C69  1  0.56293770  0.85947501  0.08534683  1  1.610487  -0.000444  0.204726  0.535155  -0.0012  4.268275  -0.001
C  C70  1  0.93705373  0.35947627  0.08534580  1  1.610454  -0.000444  0.204796  0.535236  -0.001201  4.268225  -0.001
C  C71  1  0.43705394  0.14052402  0.91465556  1  1.610404  -0.000443  0.204784  0.535264  -0.0012  4.268364  -0.001
C  C72  1  0.46572072  0.62310723  0.19859234  1  0.491535  -0.00653  0.042934  0.09864  -0.006811  3.956045  -0.004
C  C73  1  0.96572215  0.87689290  0.80140793  1  0.491659  -0.00653  0.042887  0.098515  -0.00681  3.956149  -0.004
C  C74  1  0.53427716  0.37689717  0.80140853  1  0.491794  -0.006531  0.042896  0.098514  -0.006811  3.956145  -0.004
C  C75  1  0.03427573  0.12310478  0.19859196  1  0.491725  -0.006529  0.042913  0.098538  -0.00681  3.956064  -0.004
C  C76  1  0.69643362  0.69406371  0.80001509  1  -0.057545  0.003059  -0.091026  -0.175075  0.001063  3.941826  0.003
C  C77  1  0.19643093  0.80593461  0.19998417  1  -0.057191  0.003059  -0.091002  -0.174973  0.001064  3.941863  0.003
C  C78  1  0.30357050  0.30593733  0.19998587  1  -0.057121  0.003059  -0.091027  -0.175002  0.001064  3.941745  0.003
C  C79  1  0.80356799  0.19406441  0.80001533  1  -0.0572  0.003059  -0.09103  -0.175058  0.001063  3.941777  0.003
C  C80  1  0.69270107  0.69106759  0.87969592  1  0.490485  -0.007965  0.04158  0.095878  -0.00829  3.944034  -0.005
C  C81  1  0.19270085  0.80893140  0.12030344  1  0.490348  -0.007965  0.041503  0.095717  -0.008291  3.944269  -0.005
C  C82  1  0.30729993  0.30893277  0.12030494  1  0.490354  -0.007963  0.041516  0.095739  -0.008289  3.944053  -0.005
C  C83  1  0.80729807  0.19106762  0.87969606  1  0.490363  -0.007964  0.041533  0.095763  -0.00829  3.944167  -0.005
C  C84  1  0.48139931  0.61263582  0.78664822  1  -0.048417  0.002379  -0.077993  -0.14615  0.000661  3.900539  0.003
C  C85  1  0.98140051  0.88736362  0.21335134  1  -0.048403  0.00238  -0.077952  -0.146089  0.000661  3.90057  0.003
C  C86  1  0.51860169  0.38736521  0.21335042  1  -0.048428  0.002379  -0.077901  -0.145989  0.000661  3.900502  0.003
C  C87  1  0.01860153  0.11263810  0.78665087  1  -0.048401  0.002379  -0.078004  -0.146114  0.000661  3.900432  0.003
C  C88  1  0.48828473  0.61000797  0.86639939  1  0.481938  -0.008832  0.046686  0.103957  -0.009505  3.911172  -0.005
C  C89  1  0.98828425  0.88999013  0.13360055  1  0.481945  -0.008832  0.046674  0.103972  -0.009505  3.91113  -0.005
C  C90  1  0.51171627  0.38999307  0.13359925  1  0.481915  -0.008832  0.046711  0.103984  -0.009504  3.911116  -0.005
C  C91  1  0.01171571  0.11000957  0.86640195  1  0.481758  -0.008832  0.046666  0.103986  -0.009505  3.911214  -0.005
C  C92  1  0.90098201  0.41549063  0.89127305  1  0.051889  0.001098  -0.10528  -0.163562  0.000519  3.968647  0.001
C  C93  1  0.40098107  0.08450766  0.10872228  1  0.051976  0.001097  -0.105293  -0.163583  0.000519  3.968609  0.001
C  C94  1  0.09901067  0.58450704  0.10872220  1  0.051993  0.001097  -0.105327  -0.163518  0.000519  3.96873  0.001
C  C95  1  0.59901057  0.91549337  0.89127636  1  0.052059  0.001098  -0.105303  -0.163477  0.000519  3.968705  0.001
C  C96  1  0.01294644  0.46912593  0.87251534  1  -0.006935  0.000486  -0.100925  -0.161106  0.000109  3.964325  0.001
C  C97  1  0.51294225  0.03087065  0.12748150  1  -0.00628  0.000486  -0.100993  -0.161131  0.00011  3.964264  0.001
C  C98  1  0.98704937  0.53087039  0.12748088  1  -0.006937  0.000486  -0.100939  -0.1611  0.000109  3.964346  0.001
C  C99  1  0.48704836  0.96913039  0.87251945  1  -0.006913  0.000486  -0.100966  -0.161078  0.000109  3.96441  0.001
C  C100  1  0.56165221  0.66052898  0.32908790  1  0.044865  -0.01233  -0.000514  0.077443  -0.013362  4.060767  -0.007
C  C101  1  0.06164923  0.83946878  0.67091206  1  0.045018  -0.012329  -0.00055  0.077351  -0.013361  4.060632  -0.007
C  C102  1  0.43835295  0.33947004  0.67091218  1  0.044997  -0.01233  -0.000579  0.077255  -0.013362  4.060419  -0.007
C  C103  1  0.93835073  0.16053294  0.32908957  1  0.045065  -0.012329  -0.000558  0.077326  -0.013361  4.060677  -0.007
C  C104  1  0.58347471  0.65894384  0.66784385  1  0.451862  -0.009367  0.121018  0.122125  -0.009874  4.003191  -0.005
C  C105  1  0.08347756  0.84105660  0.33215821  1  0.451739  -0.009364  0.121  0.122111  -0.009872  4.003142  -0.005
C  C106  1  0.41653565  0.34105585  0.33215517  1  0.451855  -0.009364  0.121057  0.122281  -0.009871  4.00306  -0.005
C  C107  1  0.91653487  0.15894647  0.66784594  1  0.45183  -0.009364  0.120984  0.122079  -0.009872  4.003131  -0.005
C  C108  1  0.45659758  0.62066945  0.27834023  1  -0.072201  0.002112  -0.093531  -0.193827  0.000584  3.992089  0.002
C  C109  1  0.95659732  0.87933136  0.72166015  1  -0.072247  0.002112  -0.093502  -0.193708  0.000584  3.992116  0.002
C  C110  1  0.54340238  0.37933495  0.72166064  1  -0.072239  0.002113  -0.093457  -0.193652  0.000584  3.99192  0.002
C  C111  1  0.04340160  0.12066833  0.27834003  1  -0.072348  0.002112  -0.09349  -0.193676  0.000584  3.991989  0.002
C  C112  1  0.50749619  0.63954041  0.54700287  1  0.434684  -0.000156  0.091937  0.076638  -0.000643  4.136245  0.0
C  C113  1  0.00749947  0.86046142  0.45299719  1  0.434853  -0.000155  0.091892  0.076498  -0.000643  4.136276  0.0
C  C114  1  0.49250688  0.36046264  0.45299664  1  0.434709  -0.000156  0.091911  0.076669  -0.000643  4.136228  0.0
C  C115  1  0.99250673  0.13953895  0.54700367  1  0.434671  -0.000155  0.091963  0.076705  -0.000643  4.136331  0.0
C  C116  1  0.63396678  0.68182926  0.53422025  1  0.381867  -0.001153  0.090576  0.078192  -0.00166  4.140916  -0.001
C  C117  1  0.13396796  0.81817248  0.46578076  1  0.381832  -0.001153  0.090578  0.078184  -0.00166  4.14095  -0.001
C  C118  1  0.36603838  0.31817581  0.46577956  1  0.381811  -0.001153  0.090597  0.078064  -0.001659  4.141064  -0.001
C  C119  1  0.86603512  0.18182723  0.53422289  1  0.38179  -0.001153  0.09054  0.07803  -0.00166  4.141096  -0.001
C  C120  1  0.67303353  0.70012950  0.21457561  1  0.449258  -0.00714  0.046071  0.098972  -0.007734  3.926542  -0.004
C  C121  1  0.17303211  0.79986750  0.78542407  1  0.449375  -0.007139  0.046022  0.098869  -0.007732  3.926581  -0.004
C  C122  1  0.32696851  0.29987087  0.78542467  1  0.449684  -0.007139  0.046038  0.098944  -0.007733  3.926663  -0.004
C  C123  1  0.82696785  0.20013220  0.21457669  1  0.449888  -0.007139  0.046141  0.099052  -0.007732  3.926556  -0.004
C  C124  1  0.56061339  0.65999460  0.41295646  1  0.461335  -0.010244  0.121828  0.123771  -0.010932  3.98954  -0.006
C  C125  1  0.06060978  0.84000383  0.58704244  1  0.46132  -0.010243  0.121897  0.123856  -0.010931  3.989362  -0.006
C  C126  1  0.43939593  0.34000375  0.58704236  1  0.461369  -0.010242  0.121855  0.123834  -0.010929  3.989297  -0.006
C  C127  1  0.93939226  0.15999923  0.41295881  1  0.46132  -0.010243  0.121918  0.123829  -0.010931  3.989411  -0.006
C  C128  1  0.67198224  0.70149855  0.29500408  1  -0.056226  0.000156  -0.080234  -0.151637  -0.00079  3.903043  0.001
C  C129  1  0.17197914  0.79849845  0.70499618  1  -0.056513  0.000155  -0.080228  -0.151554  -0.00079  3.90298  0.001
C  C130  1  0.32802292  0.29850115  0.70499725  1  -0.05646  0.000156  -0.080211  -0.151579  -0.00079  3.903093  0.001
C  C131  1  0.82802082  0.20150259  0.29500420  1  -0.056491  0.000155  -0.080245  -0.15156  -0.00079  3.903024  0.001
S  S132  1  0.42081646  0.61293808  0.45887393  1  0.222229  -0.005502  0.101453  0.082609  -0.006008  2.687819  -0.003
S  S133  1  0.92081605  0.88706006  0.54112496  1  0.222106  -0.005502  0.101447  0.082611  -0.006007  2.68788  -0.003
S  S134  1  0.57918974  0.38706094  0.54112615  1  0.222114  -0.005501  0.101474  0.082626  -0.006007  2.687726  -0.003
S  S135  1  0.07918807  0.11294299  0.45887571  1  0.222226  -0.005501  0.101441  0.082576  -0.006007  2.687904  -0.003
S  S136  1  0.72239625  0.70701921  0.62190728  1  0.209926  -0.00625  0.091512  0.052501  -0.00688  2.723986  -0.004
S  S137  1  0.22239789  0.79298178  0.37809523  1  0.209925  -0.006249  0.091527  0.0525  -0.006879  2.72401  -0.004
S  S138  1  0.27761099  0.29298317  0.37809272  1  0.210073  -0.006248  0.091509  0.0525  -0.006878  2.723873  -0.004
S  S139  1  0.77761039  0.20701926  0.62190862  1  0.209995  -0.006249  0.091535  0.052559  -0.006879  2.723964  -0.004
N  N140  1  0.59093881  0.64920752  0.91357824  1  -1.208748  0.053198  -0.322505  -0.260153  0.028191  3.535718  0.049
N  N141  1  0.09093767  0.85079022  0.08642052  1  -1.208633  0.053196  -0.322447  -0.260043  0.028191  3.535585  0.049
N  N142  1  0.40906323  0.35079285  0.08642089  1  -1.20863  0.053197  -0.322466  -0.260087  0.02819  3.535595  0.049
N  N143  1  0.90906229  0.14920881  0.91357956  1  -1.208699  0.053199  -0.322491  -0.260141  0.028191  3.53578  0.049
N  N144  1  0.57179338  0.66189701  0.16563877  1  -1.185145  0.045246  -0.309754  -0.235287  0.023978  3.459547  0.043
N  N145  1  0.07179167  0.83810074  0.83436059  1  -1.18513  0.045244  -0.309691  -0.235163  0.023977  3.459559  0.043
N  N146  1  0.42820762  0.33810537  0.83436064  1  -1.185418  0.045247  -0.309695  -0.235185  0.023978  3.459635  0.043
N  N147  1  0.92820621  0.16189896  0.16564132  1  -1.185515  0.045247  -0.309758  -0.235243  0.023978  3.45958  0.043
N  N148  1  0.47939006  0.62703611  0.62076472  1  -1.190464  -0.00637  -0.316237  -0.302044  -0.006241  3.316806  -0.004
N  N149  1  0.97939462  0.87296468  0.37923620  1  -1.190246  -0.006369  -0.316232  -0.301964  -0.00624  3.316795  -0.004
N  N150  1  0.52061510  0.37296223  0.37923411  1  -1.190595  -0.006368  -0.316234  -0.302084  -0.006239  3.316925  -0.004
N  N151  1  0.02061469  0.12703973  0.62076640  1  -1.19055  -0.00637  -0.31624  -0.302042  -0.00624  3.316865  -0.004
N  N152  1  0.66320821  0.69338329  0.46050553  1  -1.176994  -0.005042  -0.316048  -0.293471  -0.004764  3.308295  -0.003
N  N153  1  0.16320696  0.80661641  0.53949398  1  -1.177006  -0.00504  -0.316073  -0.293461  -0.004763  3.308187  -0.003
N  N154  1  0.33679903  0.30661640  0.53949292  1  -1.176878  -0.005041  -0.316097  -0.293427  -0.004764  3.308063  -0.003
N  N155  1  0.83679612  0.19338464  0.46050987  1  -1.176871  -0.005041  -0.316087  -0.293395  -0.004764  3.308088  -0.003
O  O156  1  0.62822597  0.38038852  0.96581612  1  -1.153064  0.07482  -0.304692  -0.537875  0.039019  2.339928  0.062
O  O157  1  0.12822431  0.11960865  0.03418352  1  -1.153012  0.07482  -0.304643  -0.537782  0.039018  2.339859  0.062
O  O158  1  0.37177919  0.61961118  0.03418464  1  -1.153094  0.074827  -0.304601  -0.537686  0.039019  2.339955  0.062
O  O159  1  0.87177253  0.88038634  0.96581539  1  -1.153116  0.07482  -0.304633  -0.537787  0.039019  2.339878  0.062
O  O160  1  0.63517619  0.52405832  0.03043617  1  -1.144434  0.088312  -0.306059  -0.545995  0.045079  2.450393  0.074
O  O161  1  0.13517469  0.97593938  0.96956252  1  -1.144255  0.088306  -0.306076  -0.546106  0.045078  2.450274  0.074
O  O162  1  0.36481753  0.47594204  0.96956122  1  -1.144464  0.088306  -0.306065  -0.545986  0.045075  2.450512  0.074
O  O163  1  0.86481695  0.02405763  0.03043785  1  -1.144407  0.088302  -0.306084  -0.546018  0.045074  2.450483  0.074
O  O164  1  0.78206640  0.70922436  0.05750657  1  -1.26157  0.073066  -0.576345  -0.780203  0.037982  2.250162  0.06
O  O165  1  0.28206422  0.79077121  0.94249331  1  -1.26143  0.073064  -0.57635  -0.780189  0.037984  2.250218  0.06
O  O166  1  0.21793044  0.29077399  0.94249341  1  -1.261367  0.073065  -0.576351  -0.780167  0.037983  2.250043  0.06
O  O167  1  0.71793159  0.20922580  0.05750705  1  -1.26151  0.073073  -0.576354  -0.780207  0.037985  2.250099  0.06
O  O168  1  0.86408764  0.55753351  0.95062064  1  -1.053918  0.000215  -0.103226  -0.096193  -0.000889  2.714231  0.0
O  O169  1  0.36408346  0.94246467  0.04937487  1  -1.054098  0.000216  -0.103269  -0.096246  -0.000889  2.714218  0.0
O  O170  1  0.13591128  0.44246684  0.04937559  1  -1.053923  0.000215  -0.103225  -0.096217  -0.000889  2.714235  0.0
O  O171  1  0.63590818  0.05753435  0.95062521  1  -1.053915  0.000215  -0.103208  -0.096188  -0.000889  2.714207  0.0
O  O172  1  0.00648257  0.71165446  0.95425587  1  -1.164437  0.064679  -0.308517  -0.565606  0.033806  2.374247  0.055
O  O173  1  0.50647537  0.78833999  0.04574426  1  -1.164686  0.064676  -0.308465  -0.565468  0.033807  2.374553  0.055
O  O174  1  0.99352258  0.28834255  0.04574507  1  -1.164552  0.064675  -0.308447  -0.565478  0.033805  2.374552  0.055
O  O175  1  0.49352147  0.21165635  0.95425600  1  -1.16461  0.064673  -0.308426  -0.565442  0.033803  2.374502  0.055
O  O176  1  0.17945078  0.63667887  0.88073336  1  -1.167458  0.003632  -0.307012  -0.525086  0.001368  2.20997  0.003
O  O177  1  0.67944209  0.86331812  0.11926457  1  -1.167274  0.003631  -0.306944  -0.524978  0.001368  2.210003  0.003
O  O178  1  0.82054710  0.36331679  0.11926449  1  -1.167424  0.003631  -0.306968  -0.524968  0.001368  2.209935  0.003
O  O179  1  0.32054748  0.13668360  0.88073938  1  -1.167379  0.003632  -0.306971  -0.524994  0.001368  2.210039  0.003
