# generated using pymatgen
data_ErH21(C7O3)4
_symmetry_space_group_name_H-M   'P 1'
_cell_length_a   9.63708982
_cell_length_b   11.47891851
_cell_length_c   12.38766033
_cell_angle_alpha   75.25418098
_cell_angle_beta   73.99089556
_cell_angle_gamma   72.87613245
_symmetry_Int_Tables_number   1
_chemical_formula_structural   ErH21(C7O3)4
_chemical_formula_sum   'Er2 H42 C56 O24'
_cell_volume   1236.21566902
_cell_formula_units_Z   2
loop_
 _symmetry_equiv_pos_site_id
 _symmetry_equiv_pos_as_xyz
  1  'x, y, z'
loop_
 _atom_site_type_symbol
 _atom_site_label
 _atom_site_symmetry_multiplicity
 _atom_site_fract_x
 _atom_site_fract_y
 _atom_site_fract_z
 _atom_site_occupancy
 _atom_site_hle17_bader_spin_density
 _atom_site_hle17_ddec_charge
 _atom_site_hle17_ddec_spin_density
 _atom_site_hle17_ddec_sum_bond_order
 _atom_site_hle17_magmom
 _atom_site_hse06_10hf_bader_spin_density
 _atom_site_hse06_10hf_ddec_charge
 _atom_site_hse06_10hf_ddec_spin_density
 _atom_site_hse06_10hf_ddec_sum_bond_order
 _atom_site_hse06_10hf_magmom
 _atom_site_hse06_bader_spin_density
 _atom_site_hse06_ddec_charge
 _atom_site_hse06_ddec_spin_density
 _atom_site_hse06_ddec_sum_bond_order
 _atom_site_hse06_magmom
 _atom_site_pbe_bader_spin_density
 _atom_site_pbe_cm5_charge
 _atom_site_pbe_ddec_charge
 _atom_site_pbe_ddec_spin_density
 _atom_site_pbe_ddec_sum_bond_order
 _atom_site_pbe_magmom
Er  Er0  1  0.27651958  0.45446081  0.05587242  1  0  2.232584  0  1.621625  0  0  2.087455  0  2.099185  0  0  2.224638  0  1.895663  0  0  1.508592  2.050485  0  2.130701  0
Er  Er1  1  0.72348110  0.54554101  0.94413153  1  0  2.23258  0  1.62164  0  0  2.087445  0  2.09923  0  0  2.224696  0  1.895639  0  0  1.508541  2.050483  0  2.130719  0
H  H2  1  0.11847244  0.73455509  0.13288418  1  0  0.115683  0  0.951882  0  0  0.123012  0  1.01551  0  0  0.126648  0  1.012756  0  0  0.112832  0.120165  0  1.018175  0
H  H3  1  0.88152593  0.26545041  0.86711133  1  0  0.115715  0  0.951872  0  0  0.123048  0  1.01551  0  0  0.126687  0  1.012755  0  0  0.112844  0.120204  0  1.018161  0
H  H4  1  0.93574518  0.92587486  0.18758099  1  0  0.109406  0  0.958772  0  0  0.119538  0  1.019145  0  0  0.122187  0  1.019631  0  0  0.103566  0.117694  0  1.018867  0
H  H5  1  0.06426053  0.07413163  0.81241668  1  0  0.109362  0  0.958682  0  0  0.119465  0  1.019115  0  0  0.122114  0  1.019601  0  0  0.103574  0.117642  0  1.018849  0
H  H6  1  0.25918780  0.14037222  0.01165037  1  0  0.135429  0  0.95253  0  0  0.143338  0  1.013981  0  0  0.147839  0  1.010997  0  0  0.112548  0.140215  0  1.016167  0
H  H7  1  0.74081950  0.85962869  0.98834425  1  0  0.135502  0  0.952548  0  0  0.143356  0  1.014052  0  0  0.147858  0  1.011066  0  0  0.112538  0.140242  0  1.016217  0
H  H8  1  0.44221374  0.94740754  0.95505729  1  0  0.100475  0  0.956531  0  0  0.110074  0  1.019181  0  0  0.112559  0  1.017947  0  0  0.105505  0.108558  0  1.019517  0
H  H9  1  0.55778896  0.05259427  0.04493733  1  0  0.100478  0  0.956448  0  0  0.110082  0  1.019119  0  0  0.112567  0  1.017881  0  0  0.105512  0.108571  0  1.019431  0
H  H10  1  0.01340675  0.99121805  0.33258892  1  0  0.10814  0  0.968649  0  0  0.118157  0  1.031355  0  0  0.121332  0  1.030534  0  0  0.104066  0.115957  0  1.031866  0
H  H11  1  0.98659720  0.00878007  0.66741600  1  0  0.108145  0  0.968682  0  0  0.118175  0  1.031366  0  0  0.121358  0  1.030538  0  0  0.104072  0.115969  0  1.03191  0
H  H12  1  0.84096076  0.02250574  0.51828406  1  0  0.087112  0  0.960336  0  0  0.098212  0  1.020262  0  0  0.100752  0  1.01892  0  0  0.099315  0.09635  0  1.021308  0
H  H13  1  0.15903672  0.97749233  0.48172151  1  0  0.087133  0  0.960287  0  0  0.098207  0  1.02025  0  0  0.100746  0  1.018904  0  0  0.099321  0.096334  0  1.021314  0
H  H14  1  0.63328462  0.21296832  0.52959991  1  0  0.079919  0  1.002395  0  0  0.088361  0  1.069559  0  0  0.089602  0  1.072514  0  0  0.092103  0.087395  0  1.067742  0
H  H15  1  0.36671196  0.78703253  0.47040115  1  0  0.079865  0  1.002472  0  0  0.088336  0  1.06961  0  0  0.089581  0  1.072561  0  0  0.092091  0.087372  0  1.067783  0
H  H16  1  0.60522459  0.37302933  0.35340106  1  0  0.095153  0  0.945902  0  0  0.107884  0  1.003023  0  0  0.111111  0  1.000275  0  0  0.106194  0.105651  0  1.00468  0
H  H17  1  0.39477763  0.62696690  0.64659663  1  0  0.095157  0  0.945895  0  0  0.107876  0  1.003023  0  0  0.111108  0  1.000269  0  0  0.106168  0.105634  0  1.004646  0
H  H18  1  0.09441615  0.26319672  0.43877383  1  0  0.091884  0  0.950819  0  0  0.103644  0  1.01048  0  0  0.106922  0  1.007924  0  0  0.105192  0.101246  0  1.012378  0
H  H19  1  0.90558341  0.73680135  0.56122643  1  0  0.091909  0  0.950824  0  0  0.103676  0  1.010468  0  0  0.10695  0  1.007917  0  0  0.105244  0.101284  0  1.012369  0
H  H20  1  0.93906803  0.26077906  0.63793556  1  0  0.086703  0  0.965103  0  0  0.097664  0  1.027703  0  0  0.100355  0  1.027211  0  0  0.09774  0.095647  0  1.028451  0
H  H21  1  0.06092585  0.73921991  0.36206495  1  0  0.086686  0  0.9651  0  0  0.097653  0  1.027694  0  0  0.100344  0  1.027198  0  0  0.097744  0.095642  0  1.028441  0
H  H22  1  0.70796538  0.42727621  0.67407926  1  0  0.105055  0  0.947334  0  0  0.116308  0  1.00326  0  0  0.119477  0  1.000881  0  0  0.108074  0.114072  0  1.005079  0
H  H23  1  0.29202982  0.57272184  0.32591956  1  0  0.10506  0  0.947326  0  0  0.11631  0  1.003261  0  0  0.119478  0  1.000882  0  0  0.108068  0.114069  0  1.005084  0
H  H24  1  0.62589633  0.58814688  0.51332920  1  0  0.111525  0  0.958012  0  0  0.123791  0  1.015627  0  0  0.126689  0  1.015177  0  0  0.106917  0.122139  0  1.015104  0
H  H25  1  0.37409643  0.41185208  0.48666914  1  0  0.111539  0  0.957975  0  0  0.123783  0  1.015609  0  0  0.126684  0  1.015158  0  0  0.10691  0.122117  0  1.015084  0
H  H26  1  0.52841111  0.68303709  0.21694959  1  0  0.131935  0  0.938975  0  0  0.140386  0  0.998537  0  0  0.144159  0  0.99677  0  0  0.115905  0.137706  0  0.999993  0
H  H27  1  0.47158242  0.31696280  0.78304674  1  0  0.131991  0  0.939094  0  0  0.140438  0  0.998658  0  0  0.144215  0  0.996888  0  0  0.115946  0.137775  0  1.000091  0
H  H28  1  0.36013239  0.89642309  0.21865251  1  0  0.09804  0  0.979548  0  0  0.105418  0  1.044719  0  0  0.107067  0  1.04574  0  0  0.104515  0.104064  0  1.044364  0
H  H29  1  0.63986201  0.10357774  0.78134743  1  0  0.098087  0  0.979478  0  0  0.105459  0  1.044675  0  0  0.107111  0  1.045691  0  0  0.104498  0.104107  0  1.044328  0
H  H30  1  0.63911538  0.98398040  0.38915741  1  0  0.100572  0  0.962331  0  0  0.10825  0  1.027327  0  0  0.110628  0  1.026988  0  0  0.104415  0.106578  0  1.027544  0
H  H31  1  0.36088557  0.01601676  0.61084518  1  0  0.100586  0  0.962365  0  0  0.108273  0  1.027338  0  0  0.110649  0  1.027  0  0  0.104456  0.106619  0  1.027562  0
H  H32  1  0.80166154  0.76779984  0.39394601  1  0  0.110505  0  0.960646  0  0  0.121491  0  1.021482  0  0  0.124261  0  1.020962  0  0  0.106339  0.119356  0  1.022393  0
H  H33  1  0.19833500  0.23219728  0.60605193  1  0  0.110476  0  0.960627  0  0  0.121478  0  1.021445  0  0  0.12426  0  1.020911  0  0  0.106354  0.119357  0  1.022347  0
H  H34  1  0.39959078  0.31822952  0.25767235  1  0  0.434686  0  0.865172  0  0  0.405412  0  0.92642  0  0  0.416456  0  0.910571  0  0  0.296422  0.397624  0  0.937812  0
H  H35  1  0.60040991  0.68176485  0.74233096  1  0  0.434657  0  0.865244  0  0  0.405405  0  0.92645  0  0  0.416455  0  0.910591  0  0  0.296382  0.397617  0  0.937842  0
H  H36  1  0.48476896  0.42680208  0.19566656  1  0  0.435829  0  0.867933  0  0  0.40603  0  0.930081  0  0  0.417192  0  0.91407  0  0  0.297443  0.39837  0  0.941299  0
H  H37  1  0.51523578  0.57318953  0.80433571  1  0  0.43586  0  0.867882  0  0  0.406053  0  0.930047  0  0  0.417214  0  0.914034  0  0  0.297407  0.398402  0  0.941255  0
H  H38  1  0.05463886  0.34839431  0.01428683  1  0  0.459904  0  0.832232  0  0  0.426027  0  0.900272  0  0  0.437981  0  0.883031  0  0  0.308906  0.417735  0  0.912453  0
H  H39  1  0.94536611  0.65160380  0.98571383  1  0  0.459974  0  0.832132  0  0  0.426135  0  0.900122  0  0  0.438089  0  0.88288  0  0  0.308926  0.417845  0  0.912304  0
H  H40  1  0.15021149  0.38778559  0.89356818  1  0  0.44744  0  0.822485  0  0  0.417321  0  0.894295  0  0  0.427264  0  0.879995  0  0  0.316851  0.410444  0  0.904398  0
H  H41  1  0.84979319  0.61221345  0.10643151  1  0  0.447537  0  0.822391  0  0  0.417403  0  0.894199  0  0  0.427354  0  0.879888  0  0  0.31687  0.410521  0  0.904311  0
H  H42  1  0.21033394  0.18952478  0.26448758  1  0  0.4175  0  0.86928  0  0  0.384195  0  0.951564  0  0  0.397354  0  0.934899  0  0  0.311297  0.374937  0  0.96199  0
H  H43  1  0.78966641  0.81047795  0.73551219  1  0  0.417558  0  0.869247  0  0  0.38424  0  0.951547  0  0  0.3974  0  0.934849  0  0  0.311306  0.375002  0  0.961944  0
C  C44  1  0.40882900  0.71421059  0.02072477  1  0  0.71383  0  3.870295  0  0  0.668741  0  4.156902  0  0  0.705544  0  4.151817  0  0  0.226524  0.643876  0  4.164645  0
C  C45  1  0.59117109  0.28578563  0.97927501  1  0  0.713933  0  3.870342  0  0  0.66887  0  4.156911  0  0  0.705675  0  4.15182  0  0  0.226592  0.644002  0  4.164649  0
C  C46  1  0.29363091  0.82869607  0.04347580  1  0  -0.105218  0  3.770421  0  0  -0.084734  0  4.005672  0  0  -0.095439  0  4.027281  0  0  -0.028883  -0.077341  0  3.989494  0
C  C47  1  0.70637020  0.17130759  0.95652116  1  0  -0.105272  0  3.770517  0  0  -0.084787  0  4.00577  0  0  -0.095484  0  4.027371  0  0  -0.028899  -0.077419  0  3.989615  0
C  C48  1  0.14996224  0.82297698  0.10745244  1  0  -0.030063  0  3.707889  0  0  -0.055848  0  3.959705  0  0  -0.051582  0  3.976371  0  0  -0.075825  -0.058261  0  3.947794  0
C  C49  1  0.85003915  0.17702575  0.89254468  1  0  -0.030167  0  3.708043  0  0  -0.055948  0  3.959865  0  0  -0.051693  0  3.976539  0  0  -0.075875  -0.058364  0  3.947945  0
C  C50  1  0.04795891  0.92947390  0.13911637  1  0  -0.201694  0  3.766606  0  0  -0.218618  0  4.020143  0  0  -0.226249  0  4.040362  0  0  -0.101709  -0.213442  0  4.006279  0
C  C51  1  0.95204519  0.07053071  0.86088210  1  0  -0.201514  0  3.766415  0  0  -0.218413  0  4.020017  0  0  -0.226045  0  4.040243  0  0  -0.101599  -0.213224  0  4.006175  0
C  C52  1  0.09142615  0.04171247  0.10705255  1  0  0.299185  0  3.761168  0  0  0.284692  0  4.02431  0  0  0.298111  0  4.038281  0  0  0.095401  0.275559  0  4.014608  0
C  C53  1  0.90858044  0.95829123  0.89294882  1  0  0.299213  0  3.761255  0  0  0.284627  0  4.024496  0  0  0.298049  0  4.038471  0  0  0.095355  0.275491  0  4.014818  0
C  C54  1  0.23102667  0.05059406  0.03747127  1  0  -0.173298  0  3.707267  0  0  -0.19689  0  3.965623  0  0  -0.202793  0  3.982162  0  0  -0.096195  -0.192858  0  3.954099  0
C  C55  1  0.76897902  0.94940870  0.96252487  1  0  -0.173388  0  3.707583  0  0  -0.196873  0  3.965924  0  0  -0.202783  0  3.982467  0  0  -0.096145  -0.192844  0  3.954381  0
C  C56  1  0.33128537  0.94383253  0.00621087  1  0  -0.042697  0  3.746906  0  0  -0.064942  0  3.994681  0  0  -0.06199  0  4.014053  0  0  -0.079899  -0.066353  0  3.980435  0
C  C57  1  0.66872033  0.05617023  0.99378608  1  0  -0.042698  0  3.74697  0  0  -0.064973  0  3.994741  0  0  -0.062017  0  4.014106  0  0  -0.079932  -0.066403  0  3.980482  0
C  C58  1  0.90348108  0.16239546  0.23791952  1  0  0.302226  0  3.716849  0  0  0.281508  0  3.976986  0  0  0.296844  0  3.989953  0  0  0.104355  0.270764  0  3.967808  0
C  C59  1  0.09652364  0.83760358  0.76208258  1  0  0.302437  0  3.716481  0  0  0.281607  0  3.97674  0  0  0.296933  0  3.98971  0  0  0.104405  0.270879  0  3.967562  0
C  C60  1  0.92150167  0.07329545  0.33719367  1  0  -0.210681  0  3.765741  0  0  -0.232098  0  4.02235  0  0  -0.239914  0  4.042175  0  0  -0.108016  -0.226791  0  4.008467  0
C  C61  1  0.07850037  0.92670172  0.66280948  1  0  -0.210815  0  3.765794  0  0  -0.232223  0  4.022431  0  0  -0.24004  0  4.042257  0  0  -0.108062  -0.226911  0  4.008597  0
C  C62  1  0.82456303  0.09189508  0.44133803  1  0  -0.02862  0  3.763793  0  0  -0.039716  0  4.009533  0  0  -0.037313  0  4.028967  0  0  -0.083702  -0.040787  0  3.996037  0
C  C63  1  0.17543873  0.90810302  0.55866496  1  0  -0.028639  0  3.76373  0  0  -0.03971  0  4.009482  0  0  -0.037293  0  4.028908  0  0  -0.083709  -0.040776  0  3.996014  0
C  C64  1  0.70834310  0.19862333  0.44812866  1  0  -0.091661  0  3.786025  0  0  -0.108651  0  4.042384  0  0  -0.114255  0  4.065655  0  0  -0.100025  -0.104953  0  4.02644  0
C  C65  1  0.29165618  0.80137567  0.55187144  1  0  -0.09155  0  3.786063  0  0  -0.108577  0  4.042415  0  0  -0.114186  0  4.065684  0  0  -0.10003  -0.104904  0  4.026475  0
C  C66  1  0.69212210  0.28742439  0.35005313  1  0  -0.026098  0  3.738376  0  0  -0.052644  0  3.991499  0  0  -0.048322  0  4.008539  0  0  -0.077594  -0.055412  0  3.979491  0
C  C67  1  0.30787988  0.71257277  0.64994681  1  0  -0.026102  0  3.738345  0  0  -0.052656  0  3.991468  0  0  -0.04834  0  4.008502  0  0  -0.077613  -0.055463  0  3.97945  0
C  C68  1  0.78871039  0.27248477  0.24395770  1  0  -0.174611  0  3.714427  0  0  -0.160787  0  3.96024  0  0  -0.172278  0  3.979314  0  0  -0.027955  -0.152838  0  3.947247  0
C  C69  1  0.21129325  0.72751054  0.75604392  1  0  -0.174743  0  3.714235  0  0  -0.160805  0  3.959947  0  0  -0.172285  0  3.979006  0  0  -0.027986  -0.152883  0  3.94697  0
C  C70  1  0.76936971  0.37459646  0.14464320  1  0  0.674285  0  3.877021  0  0  0.621532  0  4.171043  0  0  0.656315  0  4.168725  0  0  0.203186  0.597198  0  4.177732  0
C  C71  1  0.23063880  0.62540075  0.85535930  1  0  0.674313  0  3.876999  0  0  0.621539  0  4.171027  0  0  0.656329  0  4.168686  0  0  0.203219  0.59721  0  4.177705  0
C  C72  1  0.05140426  0.43009157  0.25066370  1  0  0.680268  0  3.877263  0  0  0.629424  0  4.171204  0  0  0.663699  0  4.170404  0  0  0.206242  0.605138  0  4.17771  0
C  C73  1  0.94858602  0.56991202  0.74933247  1  0  0.680283  0  3.877292  0  0  0.629452  0  4.171202  0  0  0.663722  0  4.17041  0  0  0.206228  0.605191  0  4.17769  0
C  C74  1  0.94946219  0.42646710  0.36497570  1  0  -0.167643  0  3.73739  0  0  -0.151376  0  3.978107  0  0  -0.162613  0  3.999475  0  0  -0.024351  -0.143572  0  3.963156  0
C  C75  1  0.05053244  0.57353280  0.63502119  1  0  -0.16754  0  3.737292  0  0  -0.151257  0  3.977954  0  0  -0.162498  0  3.999332  0  0  -0.024294  -0.143534  0  3.963096  0
C  C76  1  0.99088405  0.33339871  0.45645713  1  0  -0.041929  0  3.74491  0  0  -0.065883  0  3.994968  0  0  -0.063371  0  4.015118  0  0  -0.078979  -0.067515  0  3.980865  0
C  C77  1  0.00911171  0.66660121  0.54354353  1  0  -0.042002  0  3.745096  0  0  -0.06597  0  3.995159  0  0  -0.063461  0  4.015315  0  0  -0.07904  -0.067561  0  3.981069  0
C  C78  1  0.90500629  0.33246839  0.56707127  1  0  -0.096528  0  3.77841  0  0  -0.114874  0  4.039156  0  0  -0.120123  0  4.061185  0  0  -0.099336  -0.111147  0  4.024245  0
C  C79  1  0.09498625  0.66753150  0.43293012  1  0  -0.096442  0  3.778439  0  0  -0.114797  0  4.039183  0  0  -0.120038  0  4.061206  0  0  -0.099276  -0.111059  0  4.024262  0
C  C80  1  0.77446715  0.42499009  0.58757127  1  0  -0.010744  0  3.737574  0  0  -0.027448  0  3.991717  0  0  -0.024409  0  4.009775  0  0  -0.077403  -0.0293  0  3.978784  0
C  C81  1  0.22552593  0.57500795  0.41242965  1  0  -0.010823  0  3.737573  0  0  -0.027508  0  3.991707  0  0  -0.024465  0  4.009756  0  0  -0.077446  -0.029363  0  3.978779  0
C  C82  1  0.72879348  0.51687449  0.49774633  1  0  -0.201084  0  3.751006  0  0  -0.222099  0  4.00741  0  0  -0.229469  0  4.02752  0  0  -0.104428  -0.216506  0  3.991903  0
C  C83  1  0.27119798  0.48312167  0.50225459  1  0  -0.201109  0  3.751118  0  0  -0.222123  0  4.007526  0  0  -0.229489  0  4.02763  0  0  -0.104474  -0.216532  0  3.992018  0
C  C84  1  0.81557030  0.51764803  0.38688855  1  0  0.280947  0  3.744317  0  0  0.260573  0  4.008574  0  0  0.273895  0  4.023175  0  0  0.097679  0.251426  0  3.99819  0
C  C85  1  0.18442656  0.48235190  0.61311267  1  0  0.280941  0  3.744334  0  0  0.260606  0  4.008563  0  0  0.273924  0  4.023168  0  0  0.097663  0.251451  0  3.998206  0
C  C86  1  0.67275817  0.71508692  0.30517698  1  0  0.289054  0  3.769696  0  0  0.276852  0  4.030883  0  0  0.289441  0  4.044883  0  0  0.094048  0.268199  0  4.021159  0
C  C87  1  0.32724301  0.28490931  0.69482335  1  0  0.289141  0  3.769246  0  0  0.276927  0  4.030485  0  0  0.289513  0  4.044486  0  0  0.094021  0.26825  0  4.020786  0
C  C88  1  0.54931853  0.74969786  0.25556195  1  0  -0.169896  0  3.703608  0  0  -0.192479  0  3.960863  0  0  -0.198349  0  3.97822  0  0  -0.091107  -0.188615  0  3.949148  0
C  C89  1  0.45067961  0.25030857  0.74443581  1  0  -0.169995  0  3.703461  0  0  -0.192572  0  3.960722  0  0  -0.198446  0  3.978069  0  0  -0.091162  -0.188703  0  3.948991  0
C  C90  1  0.45726355  0.86851648  0.25616268  1  0  -0.040046  0  3.725566  0  0  -0.061681  0  3.971583  0  0  -0.058837  0  3.991256  0  0  -0.077046  -0.063346  0  3.958573  0
C  C91  1  0.54273377  0.13148902  0.74383468  1  0  -0.039963  0  3.725305  0  0  -0.061653  0  3.971286  0  0  -0.058781  0  3.990963  0  0  -0.076959  -0.063307  0  3.958277  0
C  C92  1  0.48968314  0.95339435  0.30387615  1  0  -0.103693  0  3.78181  0  0  -0.082355  0  4.016654  0  0  -0.093246  0  4.040586  0  0  -0.022995  -0.075484  0  4.000909  0
C  C93  1  0.51031723  0.04660466  0.69612451  1  0  -0.103896  0  3.782154  0  0  -0.082423  0  4.016843  0  0  -0.093382  0  4.040851  0  0  -0.023066  -0.075535  0  4.00109  0
C  C94  1  0.61454763  0.91710831  0.35295196  1  0  -0.031948  0  3.724047  0  0  -0.056223  0  3.970999  0  0  -0.053178  0  3.990426  0  0  -0.075404  -0.05803  0  3.957808  0
C  C95  1  0.38545733  0.08288608  0.64704797  1  0  -0.031812  0  3.723926  0  0  -0.056146  0  3.970855  0  0  -0.053085  0  3.9903  0  0  -0.075346  -0.05795  0  3.957669  0
C  C96  1  0.70545176  0.79768796  0.35501806  1  0  -0.181164  0  3.734533  0  0  -0.199608  0  3.984346  0  0  -0.205947  0  4.003238  0  0  -0.094249  -0.195516  0  3.972123  0
C  C97  1  0.29454727  0.20230826  0.64498277  1  0  -0.181192  0  3.734187  0  0  -0.199622  0  3.983998  0  0  -0.205962  0  4.002879  0  0  -0.094241  -0.195519  0  3.971778  0
C  C98  1  0.39554556  0.08170566  0.30197292  1  0  0.658467  0  3.811248  0  0  0.607164  0  4.110733  0  0  0.641026  0  4.10094  0  0  0.236579  0.58399  0  4.11708  0
C  C99  1  0.60445863  0.91830269  0.69803190  1  0  0.658379  0  3.811074  0  0  0.607081  0  4.110478  0  0  0.640963  0  4.100687  0  0  0.236494  0.583902  0  4.11682  0
O  O100  1  0.38652763  0.40526416  0.21446430  1  0  -0.929094  0  1.899177  0  0  -0.879544  0  2.092109  0  0  -0.911426  0  2.056422  0  0  -0.650773  -0.864687  0  2.112862  0
O  O101  1  0.61347596  0.59473115  0.78553410  1  0  -0.929046  0  1.899218  0  0  -0.879506  0  2.092132  0  0  -0.91139  0  2.056442  0  0  -0.650673  -0.864629  0  2.112868  0
O  O102  1  0.15719805  0.35771772  0.97373063  1  0  -0.906678  0  1.848448  0  0  -0.860855  0  2.06377  0  0  -0.891971  0  2.025733  0  0  -0.633153  -0.847513  0  2.085921  0
O  O103  1  0.84280609  0.64228318  0.02626954  1  0  -0.906837  0  1.848261  0  0  -0.861074  0  2.063572  0  0  -0.892205  0  2.025517  0  0  -0.633202  -0.847756  0  2.08574  0
O  O104  1  0.37264240  0.61018351  0.04949549  1  0  -0.793844  0  2.136186  0  0  -0.738839  0  2.407796  0  0  -0.782749  0  2.396351  0  0  -0.426438  -0.720673  0  2.415688  0
O  O105  1  0.62735344  0.38981641  0.95050919  1  0  -0.793932  0  2.136269  0  0  -0.738932  0  2.407875  0  0  -0.78285  0  2.396408  0  0  -0.426499  -0.720763  0  2.415715  0
O  O106  1  0.54289737  0.72196531  0.97670605  1  0  -0.721417  0  1.99452  0  0  -0.672608  0  2.248212  0  0  -0.709794  0  2.233769  0  0  -0.399928  -0.655401  0  2.255818  0
O  O107  1  0.45710183  0.27803740  0.02328994  1  0  -0.72141  0  1.994561  0  0  -0.672597  0  2.248208  0  0  -0.709784  0  2.233779  0  0  -0.399934  -0.65539  0  2.255807  0
O  O108  1  0.13972010  0.33017196  0.21933275  1  0  -0.701738  0  2.034251  0  0  -0.638012  0  2.272413  0  0  -0.673768  0  2.263266  0  0  -0.357165  -0.619084  0  2.278251  0
O  O109  1  0.86028153  0.66983356  0.78066364  1  0  -0.70176  0  2.034411  0  0  -0.638007  0  2.27253  0  0  -0.673767  0  2.263377  0  0  -0.35721  -0.61912  0  2.278366  0
O  O110  1  0.05722029  0.53366539  0.18280784  1  0  -0.691163  0  1.99241  0  0  -0.644578  0  2.239689  0  0  -0.678194  0  2.228108  0  0  -0.378212  -0.6284  0  2.247244  0
O  O111  1  0.94277533  0.46634291  0.81720134  1  0  -0.6912  0  1.992434  0  0  -0.644647  0  2.239725  0  0  -0.678262  0  2.228137  0  0  -0.378246  -0.628487  0  2.247283  0
O  O112  1  0.26491987  0.09797306  0.27578889  1  0  -0.557983  0  2.10841  0  0  -0.507483  0  2.339689  0  0  -0.529339  0  2.323236  0  0  -0.32686  -0.492038  0  2.349277  0
O  O113  1  0.73507905  0.90203059  0.72420694  1  0  -0.557975  0  2.108691  0  0  -0.507469  0  2.339962  0  0  -0.529322  0  2.323472  0  0  -0.326777  -0.492015  0  2.349523  0
O  O114  1  0.43539579  0.16520747  0.32327403  1  0  -0.567475  0  1.9591  0  0  -0.520538  0  2.174256  0  0  -0.541552  0  2.165741  0  0  -0.288943  -0.505812  0  2.179607  0
O  O115  1  0.56459870  0.83478594  0.67673010  1  0  -0.567505  0  1.958313  0  0  -0.520608  0  2.173448  0  0  -0.541633  0  2.164929  0  0  -0.288938  -0.505861  0  2.17878  0
O  O116  1  0.64989361  0.46297292  0.14923499  1  0  -0.716495  0  2.02253  0  0  -0.659993  0  2.262629  0  0  -0.694538  0  2.252333  0  0  -0.361141  -0.641961  0  2.269191  0
O  O117  1  0.35010868  0.53701959  0.85076680  1  0  -0.716585  0  2.022582  0  0  -0.660061  0  2.262652  0  0  -0.694594  0  2.252345  0  0  -0.361189  -0.642079  0  2.269238  0
O  O118  1  0.86940695  0.37850969  0.05232233  1  0  -0.708853  0  2.129967  0  0  -0.653932  0  2.378935  0  0  -0.688266  0  2.368692  0  0  -0.36897  -0.636508  0  2.385408  0
O  O119  1  0.13059968  0.62149030  0.94768153  1  0  -0.708831  0  2.129868  0  0  -0.65395  0  2.378857  0  0  -0.688284  0  2.368617  0  0  -0.369071  -0.636578  0  2.385364  0
O  O120  1  0.76711899  0.59953044  0.29420359  1  0  -0.296215  0  2.397559  0  0  -0.221323  0  2.621404  0  0  -0.240259  0  2.622841  0  0  -0.141505  -0.207222  0  2.619505  0
O  O121  1  0.23287273  0.40046480  0.70579669  1  0  -0.296256  0  2.397385  0  0  -0.221441  0  2.621275  0  0  -0.240381  0  2.622715  0  0  -0.141454  -0.207308  0  2.619359  0
O  O122  1  0.99845389  0.15201309  0.13395809  1  0  -0.273472  0  2.426602  0  0  -0.195758  0  2.646143  0  0  -0.21582  0  2.649559  0  0  -0.1305  -0.181094  0  2.642994  0
O  O123  1  0.00155396  0.84799712  0.86603901  1  0  -0.273494  0  2.426588  0  0  -0.195717  0  2.646193  0  0  -0.215774  0  2.649597  0  0  -0.130469  -0.18102  0  2.643028  0
