# generated using pymatgen
data_ZnBH12C13(N4O)2
_symmetry_space_group_name_H-M   'P 1'
_cell_length_a   8.58458609
_cell_length_b   10.62993576
_cell_length_c   9.83439949
_cell_angle_alpha   99.59914691
_cell_angle_beta   105.85786452
_cell_angle_gamma   96.97556092
_symmetry_Int_Tables_number   1
_chemical_formula_structural   ZnBH12C13(N4O)2
_chemical_formula_sum   'Zn2 B2 H24 C26 N16 O4'
_cell_volume   837.88382769
_cell_formula_units_Z   2
loop_
 _symmetry_equiv_pos_site_id
 _symmetry_equiv_pos_as_xyz
  1  'x, y, z'
loop_
 _atom_site_type_symbol
 _atom_site_label
 _atom_site_symmetry_multiplicity
 _atom_site_fract_x
 _atom_site_fract_y
 _atom_site_fract_z
 _atom_site_occupancy
 _atom_site_hle17_bader_spin_density
 _atom_site_hle17_ddec_charge
 _atom_site_hle17_ddec_spin_density
 _atom_site_hle17_ddec_sum_bond_order
 _atom_site_hle17_magmom
 _atom_site_hse06_10hf_bader_spin_density
 _atom_site_hse06_10hf_ddec_charge
 _atom_site_hse06_10hf_ddec_spin_density
 _atom_site_hse06_10hf_ddec_sum_bond_order
 _atom_site_hse06_10hf_magmom
 _atom_site_hse06_bader_spin_density
 _atom_site_hse06_ddec_charge
 _atom_site_hse06_ddec_spin_density
 _atom_site_hse06_ddec_sum_bond_order
 _atom_site_hse06_magmom
 _atom_site_pbe_bader_spin_density
 _atom_site_pbe_cm5_charge
 _atom_site_pbe_ddec_charge
 _atom_site_pbe_ddec_spin_density
 _atom_site_pbe_ddec_sum_bond_order
 _atom_site_pbe_magmom
Zn  Zn0  1  0.77771180  0.32346332  0.26876468  1  0  0.919082  0  1.969134  0  0  0.736989  0  2.409505  0  0  0.779259  0  2.368486  0  0  0.676569  0.707639  0  2.437304  0
Zn  Zn1  1  0.22227921  0.67652250  0.73121084  1  0  0.919159  0  1.968854  0  0  0.737035  0  2.409201  0  0  0.779309  0  2.368184  0  0  0.676589  0.707674  0  2.436992  0
B  B2  1  0.14281601  0.18853524  0.88664117  1  0  0.716891  0  3.006982  0  0  0.547857  0  3.322283  0  0  0.57117  0  3.320014  0  0  0.110625  0.531408  0  3.325019  0
B  B3  1  0.85718345  0.81146889  0.11336322  1  0  0.716967  0  3.006813  0  0  0.547955  0  3.322122  0  0  0.57127  0  3.319851  0  0  0.110659  0.531511  0  3.324853  0
H  H4  1  0.45661249  0.35377288  0.03490038  1  0  0.085469  0  0.962173  0  0  0.091637  0  1.031668  0  0  0.093777  0  1.029505  0  0  0.133408  0.090039  0  1.033224  0
H  H5  1  0.54338327  0.64624103  0.96510577  1  0  0.085532  0  0.962004  0  0  0.091744  0  1.031445  0  0  0.093889  0  1.029274  0  0  0.133411  0.090133  0  1.033032  0
H  H6  1  0.18919233  0.01668513  0.09418576  1  0  0.107517  0  0.972485  0  0  0.112376  0  1.041781  0  0  0.115064  0  1.041089  0  0  0.11731  0.110425  0  1.042403  0
H  H7  1  0.81080872  0.98331996  0.90581515  1  0  0.107499  0  0.972525  0  0  0.112368  0  1.041811  0  0  0.115058  0  1.041119  0  0  0.117327  0.110413  0  1.042443  0
H  H8  1  0.11906347  0.45872975  0.90428029  1  0  0.095136  0  0.93717  0  0  0.104488  0  0.999001  0  0  0.106802  0  0.996825  0  0  0.137325  0.10292  0  1.000293  0
H  H9  1  0.88094947  0.54127517  0.09572882  1  0  0.09515  0  0.937195  0  0  0.104492  0  0.999021  0  0  0.106814  0  0.996844  0  0  0.137317  0.102925  0  1.000314  0
H  H10  1  0.05880779  0.22798951  0.15406533  1  0  0.094459  0  0.95741  0  0  0.101783  0  1.023874  0  0  0.10434  0  1.020997  0  0  0.134332  0.100023  0  1.025771  0
H  H11  1  0.94120035  0.77200479  0.84593453  1  0  0.094504  0  0.957429  0  0  0.101854  0  1.023864  0  0  0.104411  0  1.020988  0  0  0.134348  0.100091  0  1.025766  0
H  H12  1  0.33184903  0.98543392  0.86966244  1  0  0.08005  0  0.964054  0  0  0.0869  0  1.033478  0  0  0.089039  0  1.031661  0  0  0.129154  0.085376  0  1.034721  0
H  H13  1  0.66814990  0.01457018  0.13035605  1  0  0.080031  0  0.96409  0  0  0.086896  0  1.033496  0  0  0.089038  0  1.031674  0  0  0.129128  0.085374  0  1.034738  0
H  H14  1  0.63124023  0.31664385  0.88566275  1  0  0.081796  0  0.998478  0  0  0.086445  0  1.071464  0  0  0.088202  0  1.07188  0  0  0.10343  0.085134  0  1.071329  0
H  H15  1  0.36876803  0.68337183  0.11434804  1  0  0.081804  0  0.998558  0  0  0.086462  0  1.071512  0  0  0.088215  0  1.071932  0  0  0.103422  0.085139  0  1.071387  0
H  H16  1  0.49107819  0.08679718  0.30755864  1  0  0.099524  0  0.9442  0  0  0.111328  0  0.997904  0  0  0.113959  0  0.996824  0  0  0.117206  0.109185  0  0.999148  0
H  H17  1  0.50892648  0.91320690  0.69243694  1  0  0.099506  0  0.944168  0  0  0.111314  0  0.997858  0  0  0.113943  0  0.996779  0  0  0.117226  0.109166  0  0.9991  0
H  H18  1  0.83820761  0.25935604  0.72233112  1  0  0.119953  0  0.944838  0  0  0.130855  0  1.001079  0  0  0.134291  0  0.998825  0  0  0.124379  0.128293  0  1.003054  0
H  H19  1  0.16180866  0.74065759  0.27768041  1  0  0.119862  0  0.945034  0  0  0.13083  0  1.001198  0  0  0.134266  0  0.998946  0  0  0.124376  0.128266  0  1.003173  0
H  H20  1  0.43107596  0.43327899  0.64083246  1  0  0.118765  0  0.922791  0  0  0.131163  0  0.973296  0  0  0.134452  0  0.971367  0  0  0.126449  0.12881  0  0.974767  0
H  H21  1  0.56893869  0.56671326  0.35917588  1  0  0.118733  0  0.922817  0  0  0.131127  0  0.973329  0  0  0.134416  0  0.971402  0  0  0.126457  0.128774  0  0.9748  0
H  H22  1  0.34052470  0.18801639  0.68971616  1  0  0.10423  0  0.950732  0  0  0.117416  0  1.004237  0  0  0.120266  0  1.002923  0  0  0.121573  0.115404  0  1.005279  0
H  H23  1  0.65945649  0.81197148  0.31027443  1  0  0.104216  0  0.950884  0  0  0.117415  0  1.004371  0  0  0.120235  0  1.003094  0  0  0.121541  0.115387  0  1.005433  0
H  H24  1  0.90579828  0.79573904  0.53585240  1  0  0.100258  0  0.97002  0  0  0.106689  0  1.03497  0  0  0.108608  0  1.035246  0  0  0.11123  0.105411  0  1.034619  0
H  H25  1  0.09421615  0.20426492  0.46414270  1  0  0.100296  0  0.969962  0  0  0.106692  0  1.034943  0  0  0.10861  0  1.035218  0  0  0.111233  0.105417  0  1.034595  0
H  H26  1  0.85673836  0.03987005  0.64854136  1  0  0.101247  0  0.96037  0  0  0.114128  0  1.016832  0  0  0.11678  0  1.015583  0  0  0.119298  0.112012  0  1.018186  0
H  H27  1  0.14326353  0.96012528  0.35146924  1  0  0.101239  0  0.960298  0  0  0.114103  0  1.016791  0  0  0.116762  0  1.015533  0  0  0.119308  0.111988  0  1.01814  0
C  C28  1  0.42564668  0.27183674  0.08064093  1  0  0.214169  0  3.659961  0  0  0.154604  0  3.924481  0  0  0.169103  0  3.93623  0  0  0.149458  0.14516  0  3.916293  0
C  C29  1  0.57435380  0.72817031  0.91935610  1  0  0.213981  0  3.660027  0  0  0.154414  0  3.924534  0  0  0.168914  0  3.936287  0  0  0.149304  0.144963  0  3.916347  0
C  C30  1  0.28865381  0.09697669  0.11412437  1  0  -0.035641  0  3.714533  0  0  -0.073913  0  3.979564  0  0  -0.072383  0  3.999447  0  0  -0.00168  -0.074812  0  3.966104  0
C  C31  1  0.71134550  0.90303038  0.88587134  1  0  -0.035493  0  3.714625  0  0  -0.073771  0  3.979651  0  0  -0.07223  0  3.999508  0  0  -0.001661  -0.074673  0  3.966195  0
C  C32  1  0.19409029  0.42003603  0.84079222  1  0  0.214948  0  3.659869  0  0  0.153655  0  3.928841  0  0  0.168087  0  3.940331  0  0  0.147264  0.144359  0  3.920583  0
C  C33  1  0.80591839  0.57996603  0.15921322  1  0  0.2147  0  3.65989  0  0  0.153448  0  3.928869  0  0  0.167871  0  3.940366  0  0  0.147165  0.144153  0  3.92061  0
C  C34  1  0.93522288  0.49385722  0.54287747  1  0  0.520105  0  3.929752  0  0  0.478383  0  4.224278  0  0  0.507295  0  4.218907  0  0  0.185991  0.458774  0  4.227384  0
C  C35  1  0.06476937  0.50613633  0.45711704  1  0  0.520081  0  3.929685  0  0  0.478431  0  4.224103  0  0  0.507346  0  4.218732  0  0  0.186017  0.458817  0  4.227212  0
C  C36  1  0.96761655  0.24015396  0.05864797  1  0  0.215353  0  3.646564  0  0  0.15606  0  3.912305  0  0  0.171332  0  3.922017  0  0  0.143077  0.146254  0  3.905208  0
C  C37  1  0.03238467  0.75984237  0.94135449  1  0  0.21529  0  3.646582  0  0  0.155954  0  3.912335  0  0  0.171228  0  3.922053  0  0  0.143011  0.14615  0  3.905236  0
C  C38  1  0.21104006  0.96706366  0.79108475  1  0  0.183138  0  3.710938  0  0  0.122895  0  3.98409  0  0  0.136482  0  3.996387  0  0  0.133024  0.11389  0  3.975627  0
C  C39  1  0.78896323  0.03293262  0.20892741  1  0  0.183167  0  3.711106  0  0  0.122896  0  3.984231  0  0  0.136481  0  3.996526  0  0  0.133052  0.113891  0  3.975764  0
C  C40  1  0.74986603  0.28657587  0.91784453  1  0  -0.014852  0  3.781613  0  0  -0.043886  0  4.047347  0  0  -0.042787  0  4.06905  0  0  -0.012741  -0.044556  0  4.032459  0
C  C41  1  0.25014062  0.71342330  0.08216292  1  0  -0.014874  0  3.781625  0  0  -0.043903  0  4.047352  0  0  -0.042804  0  4.069057  0  0  -0.012783  -0.044563  0  4.032474  0
C  C42  1  0.43872898  0.13213601  0.21877999  1  0  -0.010706  0  3.764393  0  0  -0.039935  0  4.025314  0  0  -0.038741  0  4.045217  0  0  -0.006149  -0.040719  0  4.011783  0
C  C43  1  0.56127367  0.86787004  0.78121745  1  0  -0.010562  0  3.764123  0  0  -0.039775  0  4.025044  0  0  -0.03858  0  4.044951  0  0  -0.006112  -0.040551  0  4.011505  0
C  C44  1  0.85038027  0.25573180  0.83432862  1  0  -0.040225  0  3.700172  0  0  -0.077377  0  3.956537  0  0  -0.076228  0  3.975259  0  0  6.6e-05  -0.078  0  3.943651  0
C  C45  1  0.14962675  0.74427417  0.16568216  1  0  -0.040161  0  3.700427  0  0  -0.077373  0  3.956775  0  0  -0.076218  0  3.975495  0  0  1.7e-05  -0.077998  0  3.94389  0
C  C46  1  0.35478706  0.40270441  0.70507890  1  0  0.000698  0  3.732704  0  0  -0.029063  0  3.992909  0  0  -0.027596  0  4.01248  0  0  0.000911  -0.030055  0  3.979766  0
C  C47  1  0.64521139  0.59729002  0.29491944  1  0  0.000799  0  3.732637  0  0  -0.028956  0  3.992864  0  0  -0.027488  0  4.012423  0  0  0.000922  -0.029952  0  3.97972  0
C  C48  1  0.30955333  0.28078845  0.72695344  1  0  -0.043719  0  3.727902  0  0  -0.079446  0  3.986793  0  0  -0.077931  0  4.005468  0  0  -0.001539  -0.080471  0  3.974211  0
C  C49  1  0.69043711  0.71920803  0.27304417  1  0  -0.043755  0  3.727911  0  0  -0.079484  0  3.98679  0  0  -0.077942  0  4.005474  0  0  -0.001508  -0.080494  0  3.974211  0
C  C50  1  0.98857335  0.87242767  0.62072245  1  0  0.002571  0  3.746349  0  0  -0.027406  0  4.013724  0  0  -0.02575  0  4.033747  0  0  -0.005402  -0.028315  0  3.999986  0
C  C51  1  0.01143630  0.12757341  0.37928308  1  0  0.002552  0  3.746229  0  0  -0.027416  0  4.013554  0  0  -0.025757  0  4.033575  0  0  -0.005398  -0.028326  0  3.999823  0
C  C52  1  0.96234505  0.99260507  0.67690310  1  0  -0.030901  0  3.710521  0  0  -0.07216  0  3.974186  0  0  -0.070923  0  3.993675  0  0  -0.002929  -0.072738  0  3.960774  0
C  C53  1  0.03765517  0.00739225  0.32310029  1  0  -0.030908  0  3.710402  0  0  -0.072151  0  3.974068  0  0  -0.070921  0  3.993554  0  0  -0.002992  -0.072729  0  3.960653  0
N  N54  1  0.20595848  0.29239771  0.81296397  1  0  -0.334014  0  3.515711  0  0  -0.233775  0  3.752061  0  0  -0.252154  0  3.773524  0  0  -0.23704  -0.221293  0  3.737366  0
N  N55  1  0.79404128  0.70760253  0.18703879  1  0  -0.333828  0  3.515444  0  0  -0.233624  0  3.751787  0  0  -0.252005  0  3.77325  0  0  -0.236968  -0.22114  0  3.737081  0
N  N56  1  0.28104776  0.18669973  0.02583041  1  0  -0.328664  0  3.49409  0  0  -0.227055  0  3.725899  0  0  -0.24561  0  3.747217  0  0  -0.231654  -0.21465  0  3.7114  0
N  N57  1  0.71895557  0.81330922  0.97416873  1  0  -0.328737  0  3.49401  0  0  -0.227169  0  3.725889  0  0  -0.245723  0  3.747204  0  0  -0.231521  -0.214763  0  3.711392  0
N  N58  1  0.52404302  0.24160623  0.19607542  1  0  -0.359355  0  3.243958  0  0  -0.285268  0  3.524953  0  0  -0.303176  0  3.538653  0  0  -0.34958  -0.273188  0  3.515339  0
N  N59  1  0.47595536  0.75840183  0.80391921  1  0  -0.359479  0  3.244001  0  0  -0.285439  0  3.525071  0  0  -0.303353  0  3.538779  0  0  -0.349654  -0.273354  0  3.51545  0
N  N60  1  0.10462657  0.05251730  0.78683182  1  0  -0.327638  0  3.495736  0  0  -0.226681  0  3.732293  0  0  -0.244506  0  3.753259  0  0  -0.231426  -0.214602  0  3.717947  0
N  N61  1  0.89537401  0.94748195  0.21317506  1  0  -0.327685  0  3.495814  0  0  -0.226742  0  3.732373  0  0  -0.244565  0  3.753336  0  0  -0.231417  -0.21466  0  3.718029  0
N  N62  1  0.98934874  0.22521201  0.92516676  1  0  -0.336867  0  3.501442  0  0  -0.235338  0  3.738038  0  0  -0.25341  0  3.758425  0  0  -0.236525  -0.22305  0  3.723839  0
N  N63  1  0.01066295  0.77479292  0.07484304  1  0  -0.336817  0  3.501266  0  0  -0.235274  0  3.737838  0  0  -0.253353  0  3.758228  0  0  -0.236481  -0.222991  0  3.723648  0
N  N64  1  0.14525972  0.85748567  0.69328127  1  0  -0.378412  0  3.247932  0  0  -0.307061  0  3.528025  0  0  -0.325087  0  3.542889  0  0  -0.354014  -0.29516  0  3.518341  0
N  N65  1  0.85474276  0.14251160  0.30672678  1  0  -0.378479  0  3.247937  0  0  -0.307075  0  3.527998  0  0  -0.325099  0  3.542859  0  0  -0.354034  -0.295177  0  3.518322  0
N  N66  1  0.82455051  0.27638170  0.05816601  1  0  -0.377218  0  3.241646  0  0  -0.306966  0  3.520345  0  0  -0.325729  0  3.537208  0  0  -0.348349  -0.294182  0  3.508404  0
N  N67  1  0.17545094  0.72361169  0.94184312  1  0  -0.37727  0  3.2418  0  0  -0.307019  0  3.520524  0  0  -0.325775  0  3.537366  0  0  -0.348274  -0.294234  0  3.508572  0
N  N68  1  0.28151372  0.48920844  0.77735369  1  0  -0.383123  0  3.24369  0  0  -0.310602  0  3.52021  0  0  -0.329605  0  3.537935  0  0  -0.348786  -0.297715  0  3.508048  0
N  N69  1  0.71849031  0.51078884  0.22264561  1  0  -0.383082  0  3.243588  0  0  -0.310595  0  3.520104  0  0  -0.329596  0  3.537838  0  0  -0.348811  -0.297712  0  3.507948  0
O  O70  1  0.81108460  0.40324929  0.48866591  1  0  -0.584889  0  2.032032  0  0  -0.531735  0  2.277509  0  0  -0.554778  0  2.265129  0  0  -0.332238  -0.515832  0  2.285578  0
O  O71  1  0.18887715  0.59674081  0.51130365  1  0  -0.584781  0  2.032771  0  0  -0.531607  0  2.278204  0  0  -0.554643  0  2.265821  0  0  -0.332207  -0.515707  0  2.286276  0
O  O72  1  0.96411409  0.57486526  0.66024682  1  0  -0.589139  0  2.067841  0  0  -0.537979  0  2.314785  0  0  -0.561922  0  2.306349  0  0  -0.321999  -0.52115  0  2.319471  0
O  O73  1  0.03585966  0.42512180  0.33970809  1  0  -0.589154  0  2.067017  0  0  -0.538064  0  2.313959  0  0  -0.562017  0  2.305527  0  0  -0.322034  -0.521235  0  2.31866  0
