# generated using pymatgen
data_MnH14C16N10O
_symmetry_space_group_name_H-M   'P 1'
_cell_length_a   7.56642816
_cell_length_b   10.98502306
_cell_length_c   11.50721569
_cell_angle_alpha   116.60952226
_cell_angle_beta   94.41603889
_cell_angle_gamma   92.03938362
_symmetry_Int_Tables_number   1
_chemical_formula_structural   MnH14C16N10O
_chemical_formula_sum   'Mn2 H28 C32 N20 O2'
_cell_volume   849.96526483
_cell_formula_units_Z   2
loop_
 _symmetry_equiv_pos_site_id
 _symmetry_equiv_pos_as_xyz
  1  'x, y, z'
loop_
 _atom_site_type_symbol
 _atom_site_label
 _atom_site_symmetry_multiplicity
 _atom_site_fract_x
 _atom_site_fract_y
 _atom_site_fract_z
 _atom_site_occupancy
 _atom_site_hle17_ddec_charge
 _atom_site_hle17_ddec_spin_density
 _atom_site_hle17_ddec_sum_bond_order
 _atom_site_hle17_magmom
 _atom_site_hse06_10hf_ddec_charge
 _atom_site_hse06_10hf_ddec_spin_density
 _atom_site_hse06_10hf_ddec_sum_bond_order
 _atom_site_hse06_10hf_magmom
 _atom_site_hse06_ddec_charge
 _atom_site_hse06_ddec_spin_density
 _atom_site_hse06_ddec_sum_bond_order
 _atom_site_hse06_magmom
 _atom_site_pbe_cm5_charge
 _atom_site_pbe_ddec_charge
 _atom_site_pbe_ddec_spin_density
 _atom_site_pbe_ddec_sum_bond_order
 _atom_site_pbe_magmom
Mn  Mn0  1  0.76772664  0.51102975  0.71966174  1  1.041769  4.757779  2.056925  4.633  0.883594  4.66784  2.589277  4.476  0.938198  4.725703  2.521212  4.554  0.636743  0.839725  4.607956  2.640916  4.397
Mn  Mn1  1  0.23227993  0.48897881  0.28034189  1  1.041821  4.757773  2.056964  4.633  0.883687  4.667846  2.589363  4.476  0.938289  4.725702  2.521297  4.554  0.636731  0.839809  4.607957  2.640989  4.397
H  H2  1  0.91290604  0.71061669  0.01099243  1  0.058216  -0.000343  0.960302  0.0  0.061835  -2.4e-05  1.031804  0.0  0.063705  -0.000161  1.029678  0.0  0.121335  0.060298  0.000129  1.033609  0.0
H  H3  1  0.08709795  0.28937757  0.98900679  1  0.058246  -0.000344  0.960346  0.0  0.061935  -2.5e-05  1.031776  0.0  0.063809  -0.000161  1.029649  0.0  0.121361  0.060397  0.000129  1.033598  0.0
H  H4  1  0.86247963  0.17643266  0.24167957  1  0.107106  -5.4e-05  0.95615  0.0  0.116046  -2e-05  1.02143  0.0  0.118914  -6.3e-05  1.02078  0.0  0.105786  0.113912  2.6e-05  1.022207  0.0
H  H5  1  0.13751924  0.82357891  0.75832753  1  0.106975  -5.5e-05  0.956097  0.0  0.115969  -2e-05  1.021318  0.0  0.118838  -6.3e-05  1.020665  0.0  0.10577  0.11384  2.6e-05  1.022104  0.0
H  H6  1  0.71874721  0.34657314  0.18731178  1  0.090342  -0.000255  0.956052  0.0  0.098436  -0.000117  1.021836  0.0  0.100572  -0.000212  1.021083  0.0  0.104059  0.096682  -3.3e-05  1.022769  0.0
H  H7  1  0.28123926  0.65343326  0.81269595  1  0.090282  -0.000236  0.956079  0.0  0.09838  -0.000116  1.02188  0.0  0.100514  -0.000212  1.02113  0.0  0.104077  0.096639  -3.3e-05  1.022799  0.0
H  H8  1  0.56699084  0.27824111  0.96502597  1  0.095111  -5.8e-05  0.954356  0.0  0.105819  2.2e-05  1.015443  0.0  0.10874  -3.7e-05  1.014616  0.0  0.101291  0.103184  0.000164  1.01709  0.0
H  H9  1  0.43300292  0.72175708  0.03496828  1  0.095152  -6.2e-05  0.954459  0.0  0.10584  2.1e-05  1.015541  0.0  0.108758  -3.7e-05  1.014724  0.0  0.101327  0.103202  0.000164  1.017181  0.0
H  H10  1  0.54628461  0.03337902  0.79603179  1  0.098402  -4e-05  0.989031  0.0  0.098374  1.7e-05  1.068353  0.0  0.102611  7e-06  1.065293  0.0  0.098484  0.095368  3.6e-05  1.070434  0.0
H  H11  1  0.45371801  0.96661413  0.20395820  1  0.098386  -3.2e-05  0.989132  0.0  0.098378  1.7e-05  1.068445  0.0  0.102624  7e-06  1.06535  0.0  0.098507  0.095368  3.6e-05  1.070506  0.0
H  H12  1  0.62408837  0.79071418  0.73583633  1  0.076876  0.000114  0.941826  0.0  0.08525  0.000554  1.010245  0.0  0.087096  0.000359  1.008267  0.0  0.120522  0.08404  0.000759  1.01146  0.001
H  H13  1  0.37592490  0.20929548  0.26417161  1  0.076887  0.000106  0.941862  0.0  0.085282  0.000553  1.010233  0.0  0.087128  0.000359  1.008258  0.0  0.120546  0.084062  0.000759  1.011438  0.001
H  H14  1  0.63578362  0.27771134  0.42269099  1  0.054423  -0.000191  0.948425  0.0  0.062747  0.000153  1.016309  0.0  0.063718  3.8e-05  1.014967  0.0  0.125027  0.061897  0.000272  1.017385  0.0
H  H15  1  0.36421446  0.72229103  0.57731045  1  0.054404  -0.000182  0.948408  0.0  0.062731  0.000153  1.016294  0.0  0.063702  3.8e-05  1.014947  0.0  0.125053  0.061892  0.000272  1.017351  0.0
H  H16  1  0.61799989  0.80904889  0.27794361  1  0.115817  7.1e-05  0.943673  0.0  0.125922  0.000139  1.00533  0.0  0.129365  9.3e-05  1.003613  0.0  0.109038  0.123345  0.000193  1.0068  0.0
H  H17  1  0.38198698  0.19094618  0.72204808  1  0.11579  6.5e-05  0.943525  0.0  0.125857  0.000139  1.005251  0.0  0.129297  9.3e-05  1.003536  0.0  0.109028  0.123292  0.000193  1.006729  0.0
H  H18  1  0.72508580  0.66358733  0.37910584  1  0.091794  -0.000248  0.952187  0.0  0.102065  -0.000102  1.013162  0.0  0.103907  -0.000181  1.013078  0.0  0.103576  0.100388  -4.2e-05  1.013828  0.0
H  H19  1  0.27489602  0.33641078  0.62088860  1  0.09167  -0.00022  0.952238  0.0  0.101968  -0.000102  1.013191  0.0  0.103797  -0.000181  1.013124  0.0  0.103551  0.100312  -4.2e-05  1.01384  0.0
H  H20  1  0.88760412  0.76573459  0.59987891  1  0.088974  -0.00019  0.991866  0.0  0.095795  -3.2e-05  1.061367  0.0  0.098303  -0.000184  1.061122  0.0  0.097343  0.093788  0.000169  1.06183  0.0
H  H21  1  0.11238374  0.23425753  0.40012203  1  0.088903  -0.000196  0.992024  0.0  0.095771  -3.2e-05  1.061452  0.0  0.098283  -0.000184  1.061206  0.0  0.097317  0.09376  0.000169  1.061915  0.0
H  H22  1  0.94167619  0.01953777  0.72952520  1  0.100526  -4.8e-05  0.987159  0.0  0.099941  2.4e-05  1.06648  0.0  0.104476  9e-06  1.063112  0.0  0.098722  0.09663  4.2e-05  1.068872  0.0
H  H23  1  0.05831986  0.98045637  0.27046834  1  0.100599  -3.8e-05  0.987136  0.0  0.099986  2.4e-05  1.066486  0.0  0.104521  9e-06  1.063118  0.0  0.09873  0.096669  4.2e-05  1.068865  0.0
H  H24  1  0.88235263  0.25364616  0.74546140  1  0.086334  -4.1e-05  0.928536  0.0  0.097284  0.00032  0.987639  0.0  0.099426  0.000156  0.985246  0.0  0.12601  0.095553  0.000504  0.989569  0.0
H  H25  1  0.11764873  0.74634803  0.25453244  1  0.086384  -4.5e-05  0.928425  0.0  0.097334  0.00032  0.987537  0.0  0.099478  0.000156  0.985144  0.0  0.125997  0.095595  0.000504  0.98945  0.0
H  H26  1  0.66327630  0.49553510  0.93704716  1  0.395438  0.000504  0.920663  0.001  0.361995  0.001443  0.991701  0.002  0.371925  0.00104  0.977488  0.002  0.287399  0.354826  0.001861  1.001976  0.002
H  H27  1  0.33673491  0.50445107  0.06295079  1  0.395494  0.000502  0.920574  0.001  0.362098  0.001442  0.991556  0.002  0.372029  0.001039  0.977344  0.002  0.287423  0.354929  0.00186  1.001829  0.002
H  H28  1  0.48090275  0.45420890  0.84696127  1  0.407479  0.000927  0.901913  0.002  0.376091  0.001874  0.968347  0.003  0.386396  0.001446  0.953465  0.002  0.290731  0.368772  0.002299  0.978848  0.003
H  H29  1  0.51910731  0.54577932  0.15303834  1  0.407467  0.000925  0.901952  0.002  0.376059  0.001874  0.968407  0.003  0.386371  0.001446  0.953521  0.002  0.290701  0.368744  0.002299  0.978903  0.003
C  C30  1  0.85135864  0.78710346  0.98896459  1  0.280908  0.000889  3.735596  0.001  0.233325  0.001984  4.013972  0.002  0.24701  0.001611  4.027309  0.002  0.172309  0.22439  0.00236  4.004594  0.002
C  C31  1  0.14864476  0.21289893  0.01103454  1  0.280696  0.000869  3.735652  0.001  0.233089  0.001983  4.014074  0.002  0.246769  0.00161  4.027411  0.002  0.172213  0.224153  0.002358  4.004722  0.002
C  C32  1  0.78731619  0.00842972  0.05047379  1  0.22438  0.000646  3.785739  0.001  0.220997  0.001172  4.027291  0.001  0.229961  0.001018  4.046898  0.001  0.117378  0.215366  0.00136  4.013604  0.001
C  C33  1  0.21267592  0.99157968  0.94952421  1  0.224251  0.000602  3.785987  0.001  0.220867  0.001172  4.027454  0.001  0.22983  0.001018  4.047063  0.001  0.117434  0.215237  0.001359  4.013771  0.001
C  C34  1  0.79459755  0.14661844  0.14491165  1  -0.141835  -0.001206  3.690536  -0.001  -0.162917  -0.000798  3.945769  0.0  -0.169473  -0.001016  3.966728  -0.001  -0.084512  -0.158403  -0.000728  3.931386  0.0
C  C35  1  0.20540755  0.85338917  0.85510194  1  -0.141791  -0.001063  3.690829  -0.001  -0.162954  -0.000799  3.9461  0.0  -0.169511  -0.001016  3.967068  -0.001  -0.084582  -0.158448  -0.000727  3.931739  0.0
C  C36  1  0.71566971  0.24070207  0.11319149  1  -0.028192  0.00057  3.735405  0.001  -0.046899  0.000753  3.992912  0.001  -0.046008  0.000627  4.015255  0.001  -0.075938  -0.047078  0.001472  3.977706  0.001
C  C37  1  0.28431988  0.75930941  0.88681420  1  -0.027984  0.000457  3.735399  0.001  -0.0467  0.000753  3.992897  0.001  -0.045814  0.000626  4.015248  0.001  -0.075871  -0.046879  0.00147  3.97771  0.001
C  C38  1  0.62828384  0.20146193  0.98680089  1  -0.069693  -0.001071  3.72998  -0.001  -0.083923  -0.000611  3.979723  0.0  -0.08988  -0.000836  4.004174  0.0  -0.088366  -0.080314  -0.000508  3.963967  0.0
C  C39  1  0.37171536  0.79853843  0.01320238  1  -0.069767  -0.000966  3.729904  0.0  -0.083977  -0.000611  3.979668  0.0  -0.089934  -0.000837  4.004118  0.0  -0.088413  -0.080372  -0.000507  3.963902  0.0
C  C40  1  0.61807759  0.06713035  0.89276690  1  -0.081285  0.001147  3.719718  0.001  -0.101302  0.001287  3.967191  0.001  -0.10137  0.001198  3.988669  0.001  -0.080751  -0.100858  0.001608  3.95274  0.001
C  C41  1  0.38192311  0.93287092  0.10722467  1  -0.081271  0.00107  3.720179  0.001  -0.101378  0.001286  3.9676  0.001  -0.101438  0.001199  3.989082  0.001  -0.080866  -0.100923  0.001607  3.953113  0.001
C  C42  1  0.69761463  0.96881912  0.92341178  1  -0.04287  -0.000138  3.791642  0.0  -0.017954  0.000108  4.009919  0.0  -0.026404  -0.000227  4.036141  0.0  -0.004132  -0.013074  0.000395  3.992933  0.0
C  C43  1  0.30238725  0.03118122  0.07658728  1  -0.043053  -0.000116  3.791797  0.0  -0.017958  0.000108  4.009832  0.0  -0.026405  -0.000228  4.036052  0.0  -0.004153  -0.013081  0.000396  3.992832  0.0
C  C44  1  0.69226144  0.82896570  0.83417482  1  0.161451  0.002041  3.649367  0.002  0.121513  0.004588  3.897992  0.004  0.134138  0.003638  3.912158  0.003  0.085348  0.113135  0.005504  3.888307  0.004
C  C45  1  0.30774742  0.17103881  0.16582897  1  0.161488  0.002078  3.64931  0.002  0.121518  0.004585  3.897909  0.004  0.134138  0.003635  3.912076  0.003  0.085348  0.11315  0.0055  3.888199  0.004
C  C46  1  0.68069565  0.21251123  0.46625883  1  0.274966  0.001512  3.745139  0.002  0.228049  0.00259  4.023267  0.003  0.241502  0.002239  4.03783  0.002  0.172721  0.219049  0.002888  4.013453  0.003
C  C47  1  0.31930552  0.78749626  0.53374494  1  0.275038  0.001498  3.74533  0.002  0.228129  0.002592  4.023456  0.003  0.241584  0.002238  4.038013  0.002  0.172753  0.219134  0.002889  4.013662  0.003
C  C48  1  0.71174556  0.99828005  0.44825178  1  0.223559  0.000778  3.782923  0.001  0.220908  0.001355  4.023935  0.001  0.229739  0.001186  4.04373  0.001  0.118178  0.214999  0.001573  4.010631  0.001
C  C49  1  0.28826028  0.00172036  0.55175099  1  0.223472  0.000767  3.782991  0.001  0.220827  0.001358  4.023948  0.001  0.229658  0.001185  4.043739  0.001  0.118273  0.214919  0.001576  4.010655  0.001
C  C50  1  0.68552261  0.85455844  0.37668584  1  -0.142819  -0.001467  3.682189  -0.001  -0.164117  -0.000887  3.936042  -0.001  -0.170647  -0.001147  3.956696  -0.001  -0.08386  -0.159858  -0.00076  3.922431  0.0
C  C51  1  0.31445813  0.14544159  0.62329805  1  -0.142818  -0.001329  3.682897  -0.001  -0.164079  -0.000887  3.936679  -0.001  -0.170604  -0.001146  3.957328  -0.001  -0.083929  -0.159829  -0.00076  3.923103  0.0
C  C52  1  0.74749557  0.77443133  0.43306322  1  -0.023588  0.001129  3.722832  0.001  -0.041502  0.001402  3.977061  0.001  -0.040613  0.001213  3.999654  0.001  -0.076768  -0.042064  0.001753  3.962266  0.001
C  C53  1  0.25249764  0.22556076  0.56693017  1  -0.02345  0.001006  3.723317  0.001  -0.041396  0.001404  3.977539  0.001  -0.040497  0.001213  4.000137  0.001  -0.076693  -0.041969  0.001754  3.962747  0.001
C  C54  1  0.83954622  0.83333534  0.56015351  1  -0.078325  -0.001322  3.74331  -0.001  -0.092554  -0.000589  3.996902  0.0  -0.098639  -0.000945  4.021457  0.0  -0.091804  -0.088584  -0.000228  3.980395  0.0
C  C55  1  0.16044420  0.16665463  0.43983275  1  -0.078243  -0.00119  3.743568  -0.001  -0.092512  -0.00059  3.997124  0.0  -0.098602  -0.000947  4.02168  0.0  -0.091802  -0.088546  -0.000229  3.980618  0.0
C  C56  1  0.86796426  0.97315728  0.63217107  1  -0.080826  0.001385  3.718576  0.001  -0.10067  0.001466  3.966672  0.001  -0.100953  0.001391  3.987852  0.001  -0.080633  -0.099941  0.001853  3.95224  0.001
C  C57  1  0.13204498  0.02683595  0.36782192  1  -0.080891  0.001291  3.718984  0.001  -0.100769  0.001466  3.967139  0.001  -0.101057  0.001393  3.988332  0.001  -0.080645  -0.100028  0.001854  3.952675  0.001
C  C58  1  0.80221632  0.05739500  0.57749298  1  -0.041763  -0.000486  3.792242  0.0  -0.017418  -0.000171  4.012252  0.0  -0.02563  -0.000502  4.038178  0.0  -0.004019  -0.01239  0.000167  3.995136  0.0
C  C59  1  0.19778790  0.94260121  0.42249751  1  -0.041667  -0.000469  3.792217  0.0  -0.017257  -0.000172  4.012103  0.0  -0.025467  -0.000503  4.038031  0.0  -0.003977  -0.012257  0.000166  3.995017  0.0
C  C60  1  0.82015962  0.20113370  0.64493380  1  0.165164  0.001788  3.639605  0.002  0.125901  0.00417  3.88775  0.004  0.138801  0.003256  3.900986  0.003  0.085367  0.117406  0.005306  3.878688  0.004
C  C61  1  0.17984622  0.79886670  0.35506810  1  0.16502  0.001807  3.639665  0.002  0.125734  0.004172  3.887816  0.004  0.13863  0.003261  3.901056  0.003  0.085309  0.117252  0.00531  3.878709  0.004
N  N62  1  0.76778077  0.73862359  0.86489639  1  -0.376096  0.02624  3.201625  0.016  -0.302557  0.031564  3.476092  0.017  -0.325627  0.028292  3.490338  0.015  -0.313065  -0.286038  0.034475  3.466097  0.02
N  N63  1  0.23222987  0.26137069  0.13509885  1  -0.375912  0.026218  3.201538  0.016  -0.302443  0.031562  3.476057  0.017  -0.325508  0.028289  3.490308  0.015  -0.313023  -0.28593  0.034473  3.466056  0.02
N  N64  1  0.86417034  0.91402243  0.08088777  1  -0.366296  2.4e-05  3.034063  0.0  -0.327366  0.00029  3.301132  0.0  -0.341863  -0.000209  3.314471  0.0  -0.306001  -0.31732  0.000745  3.291711  0.001
N  N65  1  0.13582633  0.08597889  0.91911143  1  -0.366083  6.2e-05  3.034096  0.0  -0.327202  0.000289  3.301221  0.0  -0.341697  -0.000207  3.314562  0.0  -0.305986  -0.317159  0.000745  3.29182  0.001
N  N66  1  0.76175603  0.27892102  0.59126196  1  -0.380038  0.02571  3.220163  0.015  -0.310157  0.03052  3.498637  0.016  -0.334031  0.027517  3.514773  0.014  -0.315536  -0.29329  0.033406  3.487722  0.018
N  N67  1  0.23824558  0.72107628  0.40873754  1  -0.379962  0.025709  3.220051  0.015  -0.3101  0.030522  3.498557  0.016  -0.333969  0.027515  3.514688  0.014  -0.315522  -0.293236  0.033406  3.487625  0.018
N  N68  1  0.65177200  0.07976312  0.39449797  1  -0.365428  -0.000258  3.04138  0.0  -0.326767  -7.1e-05  3.311485  0.0  -0.341159  -0.000535  3.325235  0.0  -0.304083  -0.317121  0.000375  3.302187  0.001
N  N69  1  0.34822138  0.92023103  0.60549890  1  -0.365439  -0.000259  3.0418  0.0  -0.326789  -7.3e-05  3.311914  0.0  -0.341181  -0.00053  3.325666  0.0  -0.304182  -0.317151  0.000374  3.302638  0.001
N  N70  1  0.93186174  0.55727409  0.59761095  1  -0.505349  0.046016  2.668525  0.028  -0.493042  0.057514  2.965623  0.031  -0.511843  0.047474  2.968416  0.023  -0.250825  -0.478291  0.068237  2.963632  0.039
N  N71  1  0.06813608  0.44272519  0.40238658  1  -0.505398  0.046062  2.668104  0.028  -0.493129  0.057527  2.965238  0.031  -0.511937  0.04748  2.968034  0.023  -0.250811  -0.478365  0.068249  2.963233  0.039
N  N72  1  0.99999492  0.50000156  0.50000366  1  0.422168  0.015172  4.225059  0.019  0.465702  0.027818  4.489336  0.032  0.483684  0.022257  4.519573  0.027  0.1022  0.453135  0.033457  4.467406  0.037
N  N73  1  0.98390471  0.49780056  0.84496283  1  -0.494102  0.009097  2.71861  -0.005  -0.471524  0.016504  3.025415  -0.003  -0.491436  0.008216  3.029943  -0.009  -0.246048  -0.456163  0.0237  3.022346  0.003
N  N74  1  0.01610758  0.50219787  0.15504033  1  -0.49431  0.009021  2.71828  -0.005  -0.471762  0.016499  3.025119  -0.003  -0.491694  0.008205  3.029673  -0.009  -0.246193  -0.456401  0.0237  3.022045  0.003
N  N75  1  0.12643996  0.46898754  0.86789127  1  0.411025  0.004936  4.262983  0.007  0.438832  0.011134  4.549529  0.014  0.455299  0.008516  4.580121  0.011  0.09344  0.42744  0.013854  4.528454  0.016
N  N76  1  0.87355721  0.53101997  0.13211663  1  0.411019  0.004945  4.263041  0.007  0.438854  0.011146  4.549531  0.014  0.455318  0.008524  4.580125  0.011  0.093413  0.427462  0.013865  4.528455  0.016
N  N77  1  0.26839360  0.43980592  0.89354480  1  -0.521668  0.033936  2.590312  0.034  -0.497722  0.037679  2.838594  0.035  -0.512993  0.035053  2.845377  0.033  -0.235458  -0.486837  0.041606  2.834738  0.038
N  N78  1  0.73161936  0.56020075  0.10646881  1  -0.521468  0.033995  2.590673  0.034  -0.497494  0.037685  2.838879  0.035  -0.512754  0.035064  2.845668  0.033  -0.23532  -0.486629  0.041612  2.835024  0.038
N  N79  1  0.52362550  0.52345655  0.61144947  1  -0.496885  0.041597  2.616261  0.025  -0.485426  0.053283  2.915203  0.028  -0.502277  0.043752  2.917886  0.02  -0.249926  -0.472048  0.063521  2.913093  0.036
N  N80  1  0.47637107  0.47654375  0.38855015  1  -0.496993  0.041644  2.615175  0.025  -0.48556  0.053282  2.914156  0.028  -0.502438  0.043746  2.916838  0.02  -0.249951  -0.472151  0.063521  2.912024  0.036
N  N81  1  0.50000121  0.50000439  0.50001566  1  0.3952  0.017954  4.244097  0.022  0.429065  0.03123  4.532331  0.035  0.446141  0.025272  4.563107  0.029  0.087984  0.417084  0.037131  4.509808  0.041
O  O82  1  0.61195113  0.45726856  0.84399289  1  -0.821633  0.031888  1.965864  0.022  -0.764207  0.042132  2.177271  0.029  -0.787765  0.037438  2.144416  0.025  -0.574099  -0.745549  0.046419  2.200543  0.033
O  O83  1  0.38806040  0.54273595  0.15600931  1  -0.821682  0.031893  1.965857  0.022  -0.764301  0.042133  2.177264  0.029  -0.787871  0.037441  2.144381  0.025  -0.574112  -0.745653  0.046422  2.200538  0.033
