# generated using pymatgen
data_CuH18C18SBr2N6O
_symmetry_space_group_name_H-M   'P 1'
_cell_length_a   8.45775179
_cell_length_b   15.10012844
_cell_length_c   21.02506195
_cell_angle_alpha   90.00045586
_cell_angle_beta   90.00448086
_cell_angle_gamma   89.99887976
_symmetry_Int_Tables_number   1
_chemical_formula_structural   CuH18C18SBr2N6O
_chemical_formula_sum   'Cu4 H72 C72 S4 Br8 N24 O4'
_cell_volume   2685.17663567
_cell_formula_units_Z   4
loop_
 _symmetry_equiv_pos_site_id
 _symmetry_equiv_pos_as_xyz
  1  'x, y, z'
loop_
 _atom_site_type_symbol
 _atom_site_label
 _atom_site_symmetry_multiplicity
 _atom_site_fract_x
 _atom_site_fract_y
 _atom_site_fract_z
 _atom_site_occupancy
 _atom_site_pbe_bader_charge
 _atom_site_pbe_bader_spin_density
 _atom_site_pbe_cm5_charge
 _atom_site_pbe_ddec_charge
 _atom_site_pbe_ddec_spin_density
 _atom_site_pbe_ddec_sum_bond_order
 _atom_site_pbe_magmom
Cu  Cu0  1  0.19528313  0.00321292  0.89896213  1  0.855195  -0.458859  0.582785  0.599397  -0.60815  2.349451  -0.462
Cu  Cu1  1  0.80468961  0.99679662  0.39899621  1  0.854896  -0.458856  0.582708  0.599197  -0.608186  2.349158  -0.462
Cu  Cu2  1  0.69524556  0.49677453  0.89896294  1  0.854587  -0.458823  0.582803  0.599507  -0.60814  2.349326  -0.462
Cu  Cu3  1  0.30470944  0.50322044  0.39897829  1  0.854783  -0.458865  0.582699  0.599271  -0.608203  2.349331  -0.462
H  H4  1  0.92679822  0.83273419  0.34348982  1  0.09722  -0.002417  0.117074  0.08397  -0.001125  1.030155  -0.002
H  H5  1  0.07317029  0.16724423  0.84345292  1  0.096138  -0.002416  0.117056  0.08408  -0.001123  1.02985  -0.002
H  H6  1  0.42681871  0.66728767  0.34347991  1  0.096525  -0.002416  0.117116  0.084048  -0.001124  1.030206  -0.002
H  H7  1  0.57314743  0.33273248  0.84344998  1  0.095835  -0.002416  0.117079  0.084203  -0.001124  1.02981  -0.002
H  H8  1  0.88689063  0.66950540  0.35864553  1  0.0882  -0.001316  0.09607  0.114325  -0.000771  1.035502  -0.001
H  H9  1  0.11307302  0.33049506  0.85860295  1  0.088335  -0.001316  0.096007  0.114264  -0.000774  1.035502  -0.001
H  H10  1  0.38688107  0.83051305  0.35863840  1  0.088641  -0.001316  0.096088  0.114337  -0.000771  1.035493  -0.001
H  H11  1  0.61308494  0.16948807  0.85861531  1  0.088789  -0.001316  0.096066  0.114467  -0.000773  1.035684  -0.001
H  H12  1  0.70149751  0.61821121  0.44519631  1  0.138704  -0.000269  0.098926  0.112969  4.4e-05  1.01919  0.0
H  H13  1  0.29841471  0.38179424  0.94516985  1  0.138691  -0.000269  0.099089  0.113228  4.4e-05  1.019505  0.0
H  H14  1  0.20148948  0.88180408  0.44519183  1  0.138356  -0.000268  0.098983  0.113021  4.5e-05  1.019202  0.0
H  H15  1  0.79845820  0.11820601  0.94517432  1  0.13851  -0.000269  0.099037  0.113104  4.4e-05  1.019592  0.0
H  H16  1  0.63198001  0.97773394  0.49543212  1  0.071355  0.000509  0.094727  0.092926  0.000642  1.053124  0.0
H  H17  1  0.36793052  0.02227077  0.99540889  1  0.071087  0.00051  0.094736  0.092937  0.000642  1.052888  0.0
H  H18  1  0.13202747  0.52228061  0.49540906  1  0.071377  0.000508  0.094802  0.092993  0.000642  1.053017  0.0
H  H19  1  0.86793981  0.47772278  0.99539628  1  0.071348  0.000509  0.094729  0.092959  0.000642  1.052919  0.0
H  H20  1  0.44972594  0.93150459  0.58214895  1  0.102444  -0.000312  0.111249  0.118269  -0.000302  0.994519  0.0
H  H21  1  0.55023451  0.06847805  0.08212422  1  0.102914  -0.000313  0.111246  0.118278  -0.000303  0.994485  0.0
H  H22  1  0.94973827  0.56848939  0.58212414  1  0.103175  -0.000313  0.111208  0.118328  -0.000302  0.994314  0.0
H  H23  1  0.05021626  0.43151246  0.08211526  1  0.103173  -0.000312  0.111268  0.118357  -0.000302  0.994617  0.0
H  H24  1  0.52593512  0.65691952  0.53263831  1  0.113217  -0.000646  0.094012  0.099487  -0.000287  1.074959  0.0
H  H25  1  0.47405319  0.34308904  0.03263111  1  0.113211  -0.000646  0.093978  0.099453  -0.000287  1.074737  0.0
H  H26  1  0.02594162  0.84308391  0.53264028  1  0.113043  -0.000645  0.093978  0.099422  -0.000287  1.074998  0.0
H  H27  1  0.97407388  0.15689683  0.03262819  1  0.113352  -0.000646  0.093935  0.099367  -0.000288  1.074539  0.0
H  H28  1  0.96350084  0.74353788  0.75988836  1  0.10019  -5.5e-05  0.103237  0.12097  1e-06  1.021644  0.0
H  H29  1  0.03647721  0.25644288  0.25992383  1  0.100102  -5.5e-05  0.103199  0.120884  1e-06  1.021878  0.0
H  H30  1  0.46352256  0.75646136  0.75987846  1  0.100063  -5.5e-05  0.103258  0.121054  1e-06  1.021448  0.0
H  H31  1  0.53648268  0.24356509  0.25992613  1  0.099941  -5.5e-05  0.103214  0.12092  1e-06  1.021781  0.0
H  H32  1  0.94333146  0.64730001  0.80863395  1  0.116717  -3.3e-05  0.091318  0.128748  0.00021  1.034692  0.0
H  H33  1  0.05668713  0.35267536  0.30864811  1  0.116388  -3.3e-05  0.091419  0.128816  0.00021  1.034609  0.0
H  H34  1  0.44337424  0.85269073  0.80863265  1  0.117084  -3.2e-05  0.091314  0.128742  0.00021  1.034869  0.0
H  H35  1  0.55669164  0.14733034  0.30865275  1  0.116498  -3.3e-05  0.091373  0.128685  0.00021  1.034808  0.0
H  H36  1  0.21318048  0.61665850  0.88124278  1  0.103774  -0.000134  0.106089  0.111923  6.3e-05  0.998261  0.0
H  H37  1  0.78677880  0.38335944  0.38122601  1  0.103558  -0.000134  0.106055  0.111811  6.3e-05  0.998158  0.0
H  H38  1  0.71321830  0.88332337  0.88123727  1  0.104277  -0.000134  0.106218  0.112146  6.3e-05  0.997938  0.0
H  H39  1  0.28677053  0.11665748  0.38123200  1  0.103893  -0.000133  0.106091  0.112  6.4e-05  0.997863  0.0
H  H40  1  0.36081410  0.69608213  0.96690368  1  0.141355  -0.001289  0.101756  0.118101  -0.000749  1.0124  -0.001
H  H41  1  0.63919286  0.30395669  0.46689779  1  0.14115  -0.00129  0.101753  0.118175  -0.000749  1.012323  -0.001
H  H42  1  0.86081129  0.80388543  0.96691010  1  0.141656  -0.001288  0.101847  0.118174  -0.000749  1.012364  -0.001
H  H43  1  0.13918622  0.19608054  0.46689754  1  0.141657  -0.00129  0.101799  0.118085  -0.000749  1.012496  -0.001
H  H44  1  0.34675557  0.86234239  0.97111700  1  0.078189  -0.00183  0.11744  0.087712  -0.000773  0.986111  -0.001
H  H45  1  0.65329255  0.13771236  0.47115673  1  0.077851  -0.001835  0.117452  0.087662  -0.000775  0.986373  -0.001
H  H46  1  0.84670607  0.63762402  0.97111730  1  0.07836  -0.001832  0.117331  0.087632  -0.000773  0.986265  -0.001
H  H47  1  0.15332076  0.36232213  0.47115548  1  0.078351  -0.001835  0.11748  0.087747  -0.000775  0.986474  -0.001
H  H48  1  0.06319028  0.87181293  0.81033468  1  0.158085  -0.002052  0.117226  0.096836  -0.000982  1.035137  -0.001
H  H49  1  0.93677549  0.12819160  0.31035807  1  0.158744  -0.002056  0.117253  0.096783  -0.000984  1.035162  -0.001
H  H50  1  0.56318017  0.62817949  0.81032304  1  0.158392  -0.00205  0.117235  0.096719  -0.000981  1.035223  -0.001
H  H51  1  0.43679505  0.37181047  0.31035735  1  0.158949  -0.002055  0.117217  0.096816  -0.000984  1.035192  -0.001
H  H52  1  0.79931654  0.04147140  0.80552127  1  0.074761  -0.000955  0.091109  0.100738  -0.000807  1.011643  0.0
H  H53  1  0.20076165  0.95852513  0.30554821  1  0.073429  -0.000951  0.091135  0.100789  -0.000803  1.011512  0.0
H  H54  1  0.29926175  0.45842058  0.80539449  1  0.074546  -0.000956  0.091304  0.100916  -0.000809  1.011692  0.0
H  H55  1  0.70076086  0.54149780  0.30554181  1  0.073796  -0.000951  0.091086  0.100646  -0.000804  1.011918  0.0
H  H56  1  0.87294803  0.02836606  0.72657357  1  0.086703  -0.000139  0.086747  0.087119  -6.7e-05  1.033534  0.0
H  H57  1  0.12705206  0.97164941  0.22661385  1  0.087372  -0.000138  0.086987  0.08726  -6.7e-05  1.03324  0.0
H  H58  1  0.37304407  0.47159780  0.72647683  1  0.085045  -0.000138  0.086815  0.087255  -6.7e-05  1.033367  0.0
H  H59  1  0.62705769  0.52837661  0.22660500  1  0.087242  -0.000138  0.086913  0.087281  -6.7e-05  1.033154  0.0
H  H60  1  0.90376275  0.13081429  0.76874488  1  0.010411  -0.000138  0.086022  0.077047  -7e-05  1.000215  0.0
H  H61  1  0.09621730  0.86920233  0.26878379  1  0.010554  -0.000138  0.086121  0.077121  -7e-05  1.000215  0.0
H  H62  1  0.40388409  0.36912592  0.76862714  1  0.009692  -0.000138  0.086104  0.077086  -7e-05  0.99995  0.0
H  H63  1  0.59620709  0.63081852  0.26877835  1  0.010198  -0.000138  0.086084  0.077102  -7e-05  1.000085  0.0
H  H64  1  0.37604041  0.58224770  0.59072014  1  0.435005  -1.8e-05  0.283664  0.260492  1.3e-05  1.004044  0.0
H  H65  1  0.62395153  0.41774365  0.09069686  1  0.434726  -1.8e-05  0.283522  0.260312  1.3e-05  1.004399  0.0
H  H66  1  0.87602013  0.91775371  0.59071624  1  0.434787  -1.8e-05  0.28361  0.260467  1.3e-05  1.004157  0.0
H  H67  1  0.12398009  0.08226149  0.09070124  1  0.434942  -1.8e-05  0.283534  0.260308  1.4e-05  1.004339  0.0
H  H68  1  0.51739413  0.61189939  0.64278281  1  0.460528  -7.8e-05  0.302938  0.280801  -0.000198  0.987637  0.0
H  H69  1  0.48260481  0.38810847  0.14275041  1  0.459646  -7.8e-05  0.303023  0.280876  -0.000197  0.987444  0.0
H  H70  1  0.01739059  0.88809746  0.64277028  1  0.459656  -7.8e-05  0.302982  0.280846  -0.000198  0.987533  0.0
H  H71  1  0.98261899  0.11189583  0.14274676  1  0.459792  -7.8e-05  0.303036  0.280839  -0.000197  0.987534  0.0
H  H72  1  0.12930523  0.03062352  0.77289321  1  0.613985  0.000161  0.30066  0.339632  0.0003  0.925663  0.0
H  H73  1  0.87071831  0.96939712  0.27297360  1  0.614445  0.000161  0.30058  0.339861  0.000301  0.926124  0.0
H  H74  1  0.62930657  0.46938494  0.77288436  1  0.614134  0.000161  0.300585  0.339576  0.0003  0.925795  0.0
H  H75  1  0.37071934  0.53062577  0.27296201  1  0.614134  0.00016  0.300568  0.339938  0.000301  0.925802  0.0
C  C76  1  0.85005322  0.80783499  0.38097353  1  0.536109  0.002449  0.053322  0.106655  0.001812  3.933645  0.002
C  C77  1  0.14992610  0.19217699  0.88094259  1  0.53621  0.002452  0.05337  0.106421  0.001814  3.932898  0.002
C  C78  1  0.35007155  0.69218407  0.38095995  1  0.536243  0.00245  0.053374  0.106761  0.001813  3.93355  0.002
C  C79  1  0.64991486  0.30780539  0.88094048  1  0.536461  0.002451  0.053346  0.106489  0.001813  3.932917  0.002
C  C80  1  0.82518764  0.71644720  0.38932870  1  -0.000589  -0.006043  -0.087771  -0.12973  -0.004183  3.974748  -0.005
C  C81  1  0.17480538  0.28357548  0.88929653  1  -0.00083  -0.006046  -0.08788  -0.129941  -0.004184  3.974494  -0.005
C  C82  1  0.32518938  0.78356956  0.38932036  1  -0.001066  -0.006043  -0.087931  -0.13007  -0.004183  3.974978  -0.005
C  C83  1  0.67480600  0.21641338  0.88929725  1  -0.001394  -0.006046  -0.087949  -0.130329  -0.004183  3.975149  -0.005
C  C84  1  0.72583621  0.68836342  0.43717068  1  -0.09234  0.004208  -0.060665  -0.057626  0.003534  3.899395  0.003
C  C85  1  0.27413686  0.31166577  0.93714368  1  -0.098181  0.004207  -0.060914  -0.057756  0.003533  3.900381  0.003
C  C86  1  0.22583449  0.81165286  0.43715965  1  -0.093143  0.004209  -0.060738  -0.057541  0.003535  3.899533  0.003
C  C87  1  0.77415040  0.18833263  0.93713997  1  -0.09835  0.004206  -0.060878  -0.057454  0.003532  3.90054  0.003
C  C88  1  0.65198766  0.75192970  0.47688581  1  -0.011857  -0.005702  -0.004027  0.043047  -0.003991  3.994316  -0.005
C  C89  1  0.34798490  0.24809930  0.97684330  1  -0.006588  -0.005699  -0.003723  0.043544  -0.003987  3.994708  -0.005
C  C90  1  0.15198607  0.74808974  0.47687539  1  -0.011163  -0.005703  -0.003854  0.04324  -0.003991  3.994132  -0.005
C  C91  1  0.84799004  0.25190018  0.97683945  1  -0.006367  -0.005702  -0.003619  0.043478  -0.003989  3.994528  -0.005
C  C92  1  0.68324467  0.84352738  0.46557378  1  0.437889  -0.000962  0.105416  0.186307  -0.001081  3.985843  0.0
C  C93  1  0.31674307  0.15650016  0.96554564  1  0.438778  -0.000961  0.105112  0.185664  -0.001084  3.985888  0.0
C  C94  1  0.18325613  0.65649163  0.46555430  1  0.438354  -0.00096  0.105184  0.185947  -0.001081  3.986428  0.0
C  C95  1  0.81673162  0.34350213  0.96554229  1  0.438773  -0.00096  0.10516  0.185752  -0.001082  3.98606  0.0
C  C96  1  0.60831769  0.90782079  0.50425775  1  -0.031226  -0.001497  -0.094325  -0.168182  -0.0007  4.002092  -0.001
C  C97  1  0.39167013  0.09219670  0.00423800  1  -0.031169  -0.001494  -0.094365  -0.168336  -0.000698  4.001663  -0.001
C  C98  1  0.10833403  0.59219541  0.50423460  1  -0.030904  -0.001497  -0.09438  -0.168297  -0.0007  4.001951  -0.001
C  C99  1  0.89166916  0.40780155  0.00423309  1  -0.030744  -0.001495  -0.094253  -0.168299  -0.000699  4.001621  -0.001
C  C100  1  0.50790683  0.88251647  0.55218963  1  0.031864  0.00122  -0.07311  -0.074377  0.00089  3.92438  0.001
C  C101  1  0.49210480  0.11747906  0.05217076  1  0.034583  0.001219  -0.072868  -0.073923  0.000889  3.924586  0.001
C  C102  1  0.00790445  0.61749265  0.55216803  1  0.031305  0.001221  -0.072961  -0.074262  0.00089  3.923817  0.001
C  C103  1  0.99210482  0.38252011  0.05216667  1  0.033811  0.001219  -0.073007  -0.074052  0.000889  3.924616  0.001
C  C104  1  0.47607527  0.79118900  0.56417323  1  -0.031601  -0.00054  -0.003795  0.034106  -0.000336  4.028062  0.0
C  C105  1  0.52396271  0.20878748  0.06415807  1  -0.033218  -0.00054  -0.00406  0.033515  -0.000336  4.028001  0.0
C  C106  1  0.97606200  0.70881776  0.56415727  1  -0.031514  -0.00054  -0.003848  0.03386  -0.000336  4.028632  0.0
C  C107  1  0.02397006  0.29121434  0.06415549  1  -0.033218  -0.00054  -0.004009  0.033611  -0.000336  4.028136  0.0
C  C108  1  0.54810561  0.72737904  0.52658221  1  0.003108  -0.000265  -0.085105  -0.149081  -0.000161  3.910303  0.0
C  C109  1  0.45188606  0.27260759  0.02655360  1  0.002265  -0.000263  -0.085005  -0.148964  -0.00016  3.908963  0.0
C  C110  1  0.04809951  0.77262940  0.52657429  1  0.00242  -0.000263  -0.085071  -0.148937  -0.00016  3.910343  0.0
C  C111  1  0.95191344  0.22739167  0.02655438  1  0.002178  -0.000264  -0.084994  -0.148896  -0.000161  3.908634  0.0
C  C112  1  0.36492654  0.77195688  0.61500913  1  0.906632  1.2e-05  0.21028  0.168552  3e-05  4.038931  0.0
C  C113  1  0.63510043  0.22803277  0.11499417  1  0.905965  1.2e-05  0.210219  0.168752  3e-05  4.039443  0.0
C  C114  1  0.86492079  0.72803631  0.61499613  1  0.90635  1.2e-05  0.210127  0.168531  3e-05  4.038981  0.0
C  C115  1  0.13509908  0.27196924  0.11499481  1  0.905896  1.2e-05  0.210209  0.168673  2.9e-05  4.039496  0.0
C  C116  1  0.21992946  0.70784729  0.68846842  1  0.844374  -0.001141  0.211173  0.150751  -0.000663  4.122658  -0.001
C  C117  1  0.78006441  0.29215249  0.18846382  1  0.843836  -0.001142  0.211298  0.150795  -0.000664  4.122519  -0.001
C  C118  1  0.71994839  0.79215014  0.68846194  1  0.843857  -0.001141  0.211241  0.150839  -0.000663  4.12305  -0.001
C  C119  1  0.28006913  0.20785561  0.18846744  1  0.844502  -0.001142  0.211196  0.15074  -0.000664  4.122551  -0.001
C  C120  1  0.02781307  0.69457805  0.78818017  1  -0.129081  -0.000623  -0.14693  -0.227494  -0.000342  3.890391  0.0
C  C121  1  0.97220210  0.30540171  0.28819880  1  -0.129276  -0.000624  -0.147023  -0.227374  -0.000342  3.889358  0.0
C  C122  1  0.52784330  0.80541378  0.78817662  1  -0.129552  -0.000623  -0.146817  -0.227572  -0.000342  3.890912  0.0
C  C123  1  0.47220378  0.19460241  0.28819997  1  -0.12868  -0.000623  -0.146996  -0.227292  -0.000342  3.889523  0.0
C  C124  1  0.12447486  0.73783977  0.83918451  1  0.004731  -0.005219  -0.004312  0.089203  -0.003616  3.969042  -0.004
C  C125  1  0.87550924  0.26214986  0.33919369  1  0.005483  -0.005222  -0.004276  0.089438  -0.003619  3.968601  -0.004
C  C126  1  0.62449615  0.76214048  0.83917216  1  0.005481  -0.005215  -0.004459  0.089187  -0.003614  3.969019  -0.004
C  C127  1  0.37551632  0.23786307  0.33919462  1  0.006086  -0.005222  -0.004232  0.089452  -0.003619  3.968315  -0.004
C  C128  1  0.21029563  0.68882679  0.88391499  1  -0.063713  0.003657  -0.066019  -0.083195  0.003096  3.912989  0.002
C  C129  1  0.78966899  0.31117462  0.38391312  1  -0.063236  0.00366  -0.065838  -0.083059  0.003098  3.912562  0.002
C  C130  1  0.71031972  0.81114984  0.88391099  1  -0.063748  0.00366  -0.066108  -0.083466  0.003098  3.912919  0.002
C  C131  1  0.28966381  0.18884363  0.38391760  1  -0.064288  0.003661  -0.065866  -0.083348  0.003099  3.912407  0.002
C  C132  1  0.29211032  0.73299982  0.93189893  1  0.05253  -0.005251  -0.083254  -0.112441  -0.003816  3.97488  -0.004
C  C133  1  0.70786274  0.26700812  0.43190417  1  0.052224  -0.005254  -0.083362  -0.112772  -0.003819  3.975389  -0.004
C  C134  1  0.79211487  0.76697859  0.93189897  1  0.051365  -0.005254  -0.083324  -0.112444  -0.003817  3.974832  -0.004
C  C135  1  0.20786410  0.23301810  0.43190412  1  0.051038  -0.005257  -0.083369  -0.112402  -0.003819  3.975673  -0.004
C  C136  1  0.28603978  0.82500835  0.93408743  1  0.398594  0.000891  0.040361  0.07457  0.000646  3.950873  0.001
C  C137  1  0.71396807  0.17501419  0.43411280  1  0.39927  0.00089  0.040427  0.074621  0.000646  3.95207  0.001
C  C138  1  0.78601483  0.67496683  0.93408175  1  0.399038  0.000895  0.040645  0.07475  0.000649  3.950753  0.001
C  C139  1  0.21398356  0.32501332  0.43411229  1  0.399287  0.000893  0.040364  0.07433  0.000646  3.952251  0.001
C  C140  1  0.12624949  0.83008603  0.84416360  1  0.45586  0.001388  0.047268  0.038861  0.000882  3.872664  0.001
C  C141  1  0.87373572  0.16991426  0.34419126  1  0.455226  0.00139  0.047042  0.038261  0.000881  3.873424  0.001
C  C142  1  0.62624011  0.66990420  0.84415171  1  0.455734  0.001385  0.047331  0.039093  0.00088  3.872172  0.001
C  C143  1  0.37375220  0.33009676  0.34419079  1  0.454679  0.001388  0.047079  0.03835  0.000882  3.873128  0.001
C  C144  1  0.89687161  0.05810040  0.77333721  1  0.357297  -0.000595  -0.154065  -0.114035  -0.00063  3.92663  0.0
C  C145  1  0.10315677  0.94191561  0.27337289  1  0.357253  -0.000591  -0.154444  -0.114271  -0.000626  3.926658  0.0
C  C146  1  0.39690733  0.44184523  0.77323650  1  0.358877  -0.000595  -0.154598  -0.114809  -0.000629  3.926811  0.0
C  C147  1  0.60315414  0.55810654  0.27336801  1  0.357384  -0.000591  -0.154223  -0.114103  -0.000627  3.926679  0.0
S  S148  1  0.14278111  0.62436653  0.73523945  1  0.193042  -0.004187  0.049462  0.048415  -0.003517  2.767106  -0.002
S  S149  1  0.85725759  0.37563116  0.23523686  1  0.193221  -0.00419  0.049287  0.048203  -0.00352  2.766125  -0.002
S  S150  1  0.64279795  0.87562888  0.73523390  1  0.192946  -0.004186  0.049391  0.048368  -0.003516  2.767457  -0.002
S  S151  1  0.35725967  0.12437874  0.23524194  1  0.193163  -0.004191  0.049333  0.048254  -0.003521  2.766376  -0.002
Br  Br152  1  0.41794309  0.02500525  0.82160983  1  -0.554375  -0.174424  -0.285415  -0.494778  -0.132035  1.144834  -0.129
Br  Br153  1  0.58223921  0.97501067  0.32153185  1  -0.554312  -0.174359  -0.285442  -0.494836  -0.132006  1.14497  -0.129
Br  Br154  1  0.91788391  0.47498975  0.82160434  1  -0.554384  -0.174456  -0.285363  -0.494724  -0.132068  1.144897  -0.129
Br  Br155  1  0.08222390  0.52499968  0.32153782  1  -0.554453  -0.174344  -0.285395  -0.494843  -0.131995  1.145053  -0.129
Br  Br156  1  0.00200377  0.98412655  0.98690630  1  -0.564226  -0.177998  -0.29684  -0.491268  -0.134545  1.07566  -0.128
Br  Br157  1  0.99783745  0.01588734  0.48698731  1  -0.564114  -0.177956  -0.296783  -0.491224  -0.134514  1.075818  -0.128
Br  Br158  1  0.50199807  0.51587912  0.98691641  1  -0.564001  -0.177999  -0.296809  -0.491269  -0.134644  1.075638  -0.128
Br  Br159  1  0.49788572  0.48415264  0.48695675  1  -0.564151  -0.177963  -0.296781  -0.491222  -0.134416  1.075995  -0.128
N  N160  1  0.78235728  0.86900852  0.41744070  1  -1.215654  -0.08238  -0.356858  -0.251056  -0.056078  3.654542  -0.072
N  N161  1  0.21761488  0.13098799  0.91741028  1  -1.215198  -0.082345  -0.356736  -0.250589  -0.056052  3.654178  -0.072
N  N162  1  0.28238038  0.63100566  0.41742346  1  -1.214915  -0.082381  -0.356717  -0.250766  -0.056078  3.654469  -0.072
N  N163  1  0.71759296  0.36899946  0.91741087  1  -1.214952  -0.082345  -0.356868  -0.250937  -0.056052  3.654542  -0.072
N  N164  1  0.27681050  0.83363376  0.64295431  1  -0.699474  -0.000764  -0.233711  -0.257949  -0.000444  3.244588  0.0
N  N165  1  0.72321094  0.16636946  0.14294324  1  -0.699241  -0.000765  -0.233657  -0.257921  -0.000445  3.245061  0.0
N  N166  1  0.77681900  0.66635994  0.64293859  1  -0.699531  -0.000764  -0.233722  -0.257899  -0.000444  3.244466  0.0
N  N167  1  0.22319417  0.33363269  0.14294469  1  -0.699551  -0.000765  -0.233716  -0.257907  -0.000445  3.245379  0.0
N  N168  1  0.18532291  0.79383216  0.68914215  1  -0.716497  -0.000388  -0.242203  -0.267696  -0.000174  3.277896  0.0
N  N169  1  0.81467348  0.20616565  0.18913990  1  -0.716444  -0.000389  -0.242234  -0.267726  -0.000175  3.277788  0.0
N  N170  1  0.68534758  0.70616296  0.68913283  1  -0.716227  -0.000388  -0.242168  -0.267837  -0.000174  3.277778  0.0
N  N171  1  0.31466182  0.29384346  0.18914066  1  -0.716559  -0.00039  -0.242199  -0.267784  -0.000175  3.277986  0.0
N  N172  1  0.33099906  0.69060624  0.64259507  1  -0.835942  -0.00019  -0.151246  0.076913  -4.6e-05  3.762154  0.0
N  N173  1  0.66900339  0.30938970  0.14258048  1  -0.835279  -0.00019  -0.151355  0.076847  -4.6e-05  3.762205  0.0
N  N174  1  0.83099722  0.80939091  0.64258725  1  -0.83532  -0.00019  -0.151212  0.077054  -4.6e-05  3.762106  0.0
N  N175  1  0.16900759  0.19061430  0.14258449  1  -0.835677  -0.00019  -0.151286  0.076874  -4.6e-05  3.7621  0.0
N  N176  1  0.39776114  0.60648209  0.63543189  1  -0.755908  -0.000573  -0.497866  -0.50487  -0.000457  3.177377  0.0
N  N177  1  0.60223378  0.39351575  0.13540743  1  -0.754882  -0.000572  -0.497751  -0.504786  -0.000455  3.177416  0.0
N  N178  1  0.89775245  0.89351367  0.63542596  1  -0.754794  -0.000574  -0.497882  -0.504925  -0.000457  3.177462  0.0
N  N179  1  0.10224838  0.10648682  0.13541051  1  -0.755033  -0.000572  -0.497741  -0.50465  -0.000455  3.177452  0.0
N  N180  1  0.20477596  0.87256834  0.89075011  1  -1.217321  -0.076021  -0.359409  -0.209916  -0.051861  3.696516  -0.067
N  N181  1  0.79522094  0.12746958  0.39078355  1  -1.217991  -0.076072  -0.359036  -0.208876  -0.051898  3.69633  -0.067
N  N182  1  0.70475524  0.62741174  0.89074655  1  -1.217856  -0.076023  -0.359653  -0.210193  -0.051861  3.696442  -0.067
N  N183  1  0.29524048  0.37254870  0.39078235  1  -1.217615  -0.076076  -0.359117  -0.209122  -0.051899  3.696575  -0.067
O  O184  1  0.03844518  0.02185466  0.80100510  1  -1.14792  0.000762  -0.413287  -0.455074  0.000795  2.42505  0.0
O  O185  1  0.96163317  0.97818221  0.30106226  1  -1.147927  0.000761  -0.413464  -0.455545  0.000796  2.425404  0.0
O  O186  1  0.53838233  0.47811328  0.80097014  1  -1.147116  0.000762  -0.413183  -0.454752  0.000796  2.424469  0.0
O  O187  1  0.46163454  0.52183485  0.30104824  1  -1.147555  0.000762  -0.413442  -0.455626  0.000796  2.424992  0.0
