# generated using pymatgen
data_CuH11C11(NO2)2
_symmetry_space_group_name_H-M   'P 1'
_cell_length_a   7.27273284
_cell_length_b   8.16499574
_cell_length_c   10.69423040
_cell_angle_alpha   83.06624767
_cell_angle_beta   105.37566530
_cell_angle_gamma   89.61642402
_symmetry_Int_Tables_number   1
_chemical_formula_structural   CuH11C11(NO2)2
_chemical_formula_sum   'Cu2 H22 C22 N4 O8'
_cell_volume   607.33826059
_cell_formula_units_Z   2
loop_
 _symmetry_equiv_pos_site_id
 _symmetry_equiv_pos_as_xyz
  1  'x, y, z'
loop_
 _atom_site_type_symbol
 _atom_site_label
 _atom_site_symmetry_multiplicity
 _atom_site_fract_x
 _atom_site_fract_y
 _atom_site_fract_z
 _atom_site_occupancy
 _atom_site_hle17_bader_spin_density
 _atom_site_hle17_ddec_charge
 _atom_site_hle17_ddec_spin_density
 _atom_site_hle17_ddec_sum_bond_order
 _atom_site_hle17_magmom
 _atom_site_hse06_10hf_bader_spin_density
 _atom_site_hse06_10hf_ddec_charge
 _atom_site_hse06_10hf_ddec_spin_density
 _atom_site_hse06_10hf_ddec_sum_bond_order
 _atom_site_hse06_10hf_magmom
 _atom_site_hse06_bader_spin_density
 _atom_site_hse06_ddec_charge
 _atom_site_hse06_ddec_spin_density
 _atom_site_hse06_ddec_sum_bond_order
 _atom_site_hse06_magmom
 _atom_site_pbe_bader_spin_density
 _atom_site_pbe_cm5_charge
 _atom_site_pbe_ddec_charge
 _atom_site_pbe_ddec_spin_density
 _atom_site_pbe_ddec_sum_bond_order
 _atom_site_pbe_magmom
Cu  Cu0  1  0.36738369  0.44145724  0.40795504  1  0  0.801581  0  1.898584  0  0  0.737603  0  2.339162  0  0  0.78132  0  2.271051  0  0  0.655214  0.710501  0  2.384916  0
Cu  Cu1  1  0.63260707  0.55853516  0.59202760  1  0  0.802231  0  1.89827  0  0  0.737857  0  2.338899  0  0  0.781651  0  2.270695  0  0  0.655238  0.710862  0  2.384571  0
H  H2  1  0.95044226  0.24983726  0.97986363  1  0  0.093723  0  0.921307  0  0  0.105698  0  0.9776  0  0  0.108612  0  0.975865  0  0  0.123432  0.103572  0  0.979005  0
H  H3  1  0.04956091  0.75017626  0.02015260  1  0  0.093673  0  0.921603  0  0  0.105762  0  0.977734  0  0  0.108672  0  0.976001  0  0  0.123507  0.103628  0  0.979149  0
H  H4  1  0.69036161  0.20520981  0.30142057  1  0  0.115457  0  0.981929  0  0  0.125222  0  1.042946  0  0  0.128618  0  1.041394  0  0  0.113469  0.122766  0  1.044138  0
H  H5  1  0.30961478  0.79484917  0.69858138  1  0  0.115516  0  0.982  0  0  0.125342  0  1.042937  0  0  0.128698  0  1.041446  0  0  0.113583  0.122884  0  1.044131  0
H  H6  1  0.98333094  0.33796414  0.42354249  1  0  0.105697  0  0.945791  0  0  0.113743  0  1.005584  0  0  0.11701  0  1.003503  0  0  0.125035  0.111224  0  1.007398  0
H  H7  1  0.01668170  0.66204040  0.57647002  1  0  0.105742  0  0.945674  0  0  0.11379  0  1.005448  0  0  0.117056  0  1.003369  0  0  0.125032  0.11126  0  1.007277  0
H  H8  1  0.43254040  0.18056810  0.15527343  1  0  0.110503  0  0.955972  0  0  0.115172  0  1.025865  0  0  0.118992  0  1.022737  0  0  0.108928  0.112357  0  1.028272  0
H  H9  1  0.56744572  0.81944402  0.84471903  1  0  0.110451  0  0.955914  0  0  0.115129  0  1.025794  0  0  0.118952  0  1.022664  0  0  0.1089  0.112317  0  1.028196  0
H  H10  1  0.81013720  0.00516441  0.94427322  1  0  0.084542  0  0.966759  0  0  0.093617  0  1.032478  0  0  0.095935  0  1.032118  0  0  0.101202  0.091938  0  1.032842  0
H  H11  1  0.18986842  0.99486412  0.05573180  1  0  0.084495  0  0.966856  0  0  0.093613  0  1.032527  0  0  0.095931  0  1.032167  0  0  0.1012  0.091932  0  1.032896  0
H  H12  1  0.77652675  0.99290297  0.49019517  1  0  0.143588  0  0.936112  0  0  0.161677  0  0.994699  0  0  0.164197  0  0.994103  0  0  0.100318  0.159836  0  0.995204  0
H  H13  1  0.22344962  0.00709252  0.50980533  1  0  0.143585  0  0.93614  0  0  0.16169  0  0.994705  0  0  0.164215  0  0.994102  0  0  0.100357  0.159846  0  0.995216  0
H  H14  1  0.94163976  0.06583055  0.62805935  1  0  0.130487  0  0.951741  0  0  0.147776  0  1.01344  0  0  0.14964  0  1.01402  0  0  0.093819  0.146472  0  1.013024  0
H  H15  1  0.05833659  0.93419051  0.37193201  1  0  0.130585  0  0.951701  0  0  0.147855  0  1.013433  0  0  0.14972  0  1.014008  0  0  0.093857  0.146551  0  1.013013  0
H  H16  1  0.72332352  0.97457580  0.64171519  1  0  0.153517  0  0.932792  0  0  0.17066  0  0.992283  0  0  0.173203  0  0.992089  0  0  0.104552  0.168865  0  0.992415  0
H  H17  1  0.27666893  0.02542264  0.35829280  1  0  0.153581  0  0.932818  0  0  0.170733  0  0.992306  0  0  0.17327  0  0.992121  0  0  0.104594  0.168935  0  0.992439  0
H  H18  1  0.28410944  0.38099454  0.86806699  1  0  0.142285  0  0.933722  0  0  0.159051  0  0.99057  0  0  0.161135  0  0.990772  0  0  0.097586  0.157603  0  0.990397  0
H  H19  1  0.71590564  0.61898565  0.13192461  1  0  0.142246  0  0.933695  0  0  0.158934  0  0.990666  0  0  0.161015  0  0.990874  0  0  0.097549  0.157498  0  0.99046  0
H  H20  1  0.08684132  0.32492910  0.73923716  1  0  0.148842  0  0.959062  0  0  0.162282  0  1.024914  0  0  0.165486  0  1.023229  0  0  0.095425  0.159965  0  1.026125  0
H  H21  1  0.91318650  0.67507578  0.26072349  1  0  0.148834  0  0.959173  0  0  0.162286  0  1.025008  0  0  0.16551  0  1.023299  0  0  0.095425  0.159941  0  1.026248  0
H  H22  1  0.29134671  0.18960978  0.80582837  1  0  0.130925  0  0.969859  0  0  0.147771  0  1.032736  0  0  0.148896  0  1.035188  0  0  0.093496  0.146983  0  1.031013  0
H  H23  1  0.70864133  0.81035672  0.19416485  1  0  0.130837  0  0.970069  0  0  0.147793  0  1.032819  0  0  0.148907  0  1.035283  0  0  0.093568  0.14701  0  1.031092  0
C  C24  1  0.94973368  0.25870614  0.08080155  1  0  0.030728  0  3.68442  0  0  -0.000228  0  3.947997  0  0  0.000573  0  3.9642  0  0  0.053649  -0.000878  0  3.937194  0
C  C25  1  0.05027081  0.74129837  0.91921632  1  0  0.030609  0  3.684827  0  0  -0.000463  0  3.948549  0  0  0.000336  0  3.964756  0  0  0.053487  -0.001126  0  3.937767  0
C  C26  1  0.79570232  0.20290122  0.12949074  1  0  0.056899  0  3.75917  0  0  0.070858  0  3.986897  0  0  0.072621  0  4.008833  0  0  0.017385  0.069465  0  3.972285  0
C  C27  1  0.20429495  0.79711206  0.87052166  1  0  0.057127  0  3.758902  0  0  0.071043  0  3.986674  0  0  0.072804  0  4.008602  0  0  0.017371  0.069646  0  3.972064  0
C  C28  1  0.80404736  0.23754285  0.25525725  1  0  -0.109915  0  3.675045  0  0  -0.129668  0  3.912614  0  0  -0.133691  0  3.932178  0  0  -0.063102  -0.12702  0  3.899637  0
C  C29  1  0.19595155  0.76248149  0.74475505  1  0  -0.110029  0  3.675354  0  0  -0.129864  0  3.91297  0  0  -0.133865  0  3.932579  0  0  -0.063097  -0.127217  0  3.899994  0
C  C30  1  0.96514202  0.31125730  0.32362904  1  0  0.09379  0  3.672318  0  0  0.073049  0  3.9233  0  0  0.075848  0  3.941111  0  0  0.053389  0.071136  0  3.911824  0
C  C31  1  0.03486501  0.68875379  0.67638196  1  0  0.093731  0  3.672622  0  0  0.072974  0  3.923617  0  0  0.075773  0  3.941425  0  0  0.053349  0.071058  0  3.912143  0
C  C32  1  0.64173273  0.10581907  0.05872541  1  0  0.046928  0  3.781291  0  0  0.063045  0  4.007843  0  0  0.062408  0  4.031529  0  0  -0.001299  0.063425  0  3.991906  0
C  C33  1  0.35826537  0.89419671  0.94127678  1  0  0.046893  0  3.781336  0  0  0.063118  0  4.007768  0  0  0.062481  0  4.031456  0  0  -0.001259  0.0635  0  3.991829  0
C  C34  1  0.46537066  0.09892344  0.08988161  1  0  -0.095568  0  3.709385  0  0  -0.114543  0  3.956249  0  0  -0.116702  0  3.976069  0  0  -0.077466  -0.11304  0  3.942966  0
C  C35  1  0.53463016  0.90109147  0.91011907  1  0  -0.095417  0  3.709352  0  0  -0.114416  0  3.956176  0  0  -0.116573  0  3.975992  0  0  -0.077389  -0.112914  0  3.942887  0
C  C36  1  0.67288248  0.00593794  0.96733043  1  0  -0.095394  0  3.735664  0  0  -0.11302  0  3.980851  0  0  -0.115704  0  4.002663  0  0  -0.079175  -0.111206  0  3.966153  0
C  C37  1  0.32712289  0.99407294  0.03267648  1  0  -0.095369  0  3.735761  0  0  -0.113063  0  3.98092  0  0  -0.11575  0  4.002732  0  0  -0.079195  -0.111253  0  3.966228  0
C  C38  1  0.68570725  0.22049311  0.54556585  1  0  0.727445  0  3.813704  0  0  0.695962  0  4.105255  0  0  0.730872  0  4.098439  0  0  0.213249  0.672386  0  4.109143  0
C  C39  1  0.31424953  0.77949175  0.45441856  1  0  0.728096  0  3.813292  0  0  0.696593  0  4.104876  0  0  0.731532  0  4.098014  0  0  0.213485  0.673013  0  4.108774  0
C  C40  1  0.79121642  0.05392802  0.57787701  1  0  -0.441094  0  3.630755  0  0  -0.518616  0  3.865216  0  0  -0.527104  0  3.869826  0  0  -0.241813  -0.512599  0  3.861753  0
C  C41  1  0.20876137  0.94607416  0.42212122  1  0  -0.441367  0  3.630774  0  0  -0.518927  0  3.865294  0  0  -0.527422  0  3.869881  0  0  -0.241979  -0.512898  0  3.861842  0
C  C42  1  0.33888061  0.39352603  0.67828706  1  0  0.728889  0  3.821396  0  0  0.694831  0  4.118986  0  0  0.729891  0  4.112006  0  0  0.209909  0.671187  0  4.122958  0
C  C43  1  0.66115403  0.60643484  0.32170761  1  0  0.728764  0  3.821993  0  0  0.694622  0  4.11967  0  0  0.729681  0  4.112697  0  0  0.209834  0.670975  0  4.123638  0
C  C44  1  0.24228216  0.31982616  0.77979702  1  0  -0.448992  0  3.636714  0  0  -0.522634  0  3.868912  0  0  -0.531485  0  3.87398  0  0  -0.248486  -0.516334  0  3.865038  0
C  C45  1  0.75773990  0.68015029  0.22019456  1  0  -0.448702  0  3.636864  0  0  -0.522389  0  3.86899  0  0  -0.531245  0  3.874049  0  0  -0.248444  -0.516061  0  3.865139  0
N  N46  1  0.11354536  0.34838837  0.27452208  1  0  -0.169726  0  3.169713  0  0  -0.128476  0  3.46609  0  0  -0.13673  0  3.475318  0  0  -0.204007  -0.123661  0  3.46071  0
N  N47  1  0.88646850  0.65160763  0.72549017  1  0  -0.169736  0  3.169611  0  0  -0.128379  0  3.465841  0  0  -0.136628  0  3.475073  0  0  -0.203959  -0.123548  0  3.460446  0
N  N48  1  0.10384142  0.32612380  0.15106860  1  0  -0.15404  0  3.00126  0  0  -0.134118  0  3.283258  0  0  -0.136986  0  3.2964  0  0  -0.190277  -0.131956  0  3.274617  0
N  N49  1  0.89617009  0.67387819  0.84894930  1  0  -0.154086  0  3.001392  0  0  -0.134189  0  3.283371  0  0  -0.137057  0  3.296521  0  0  -0.190318  -0.132033  0  3.274741  0
O  O50  1  0.53296134  0.23368060  0.45216126  1  0  -0.583955  0  2.068632  0  0  -0.54343  0  2.338317  0  0  -0.571285  0  2.325149  0  0  -0.311865  -0.524858  0  2.347026  0
O  O51  1  0.46697144  0.76627409  0.54785678  1  0  -0.584633  0  2.068519  0  0  -0.543984  0  2.338105  0  0  -0.571807  0  2.324899  0  0  -0.312073  -0.525348  0  2.346808  0
O  O52  1  0.75712618  0.33205322  0.61520697  1  0  -0.583378  0  2.062444  0  0  -0.544094  0  2.327465  0  0  -0.571611  0  2.314107  0  0  -0.312365  -0.525658  0  2.336199  0
O  O53  1  0.24286868  0.66796330  0.38474234  1  0  -0.583473  0  2.062672  0  0  -0.544157  0  2.327647  0  0  -0.57173  0  2.314303  0  0  -0.312392  -0.525777  0  2.3364  0
O  O54  1  0.26354066  0.36572023  0.56111790  1  0  -0.598803  0  2.077788  0  0  -0.558604  0  2.34933  0  0  -0.586543  0  2.335942  0  0  -0.31677  -0.539947  0  2.358109  0
O  O55  1  0.73647384  0.63428717  0.43887791  1  0  -0.598975  0  2.077639  0  0  -0.558715  0  2.349152  0  0  -0.586629  0  2.335769  0  0  -0.316776  -0.539997  0  2.357904  0
O  O56  1  0.48809300  0.47326302  0.71868429  1  0  -0.565101  0  2.038496  0  0  -0.530623  0  2.305959  0  0  -0.557477  0  2.291916  0  0  -0.313435  -0.512605  0  2.315043  0
O  O57  1  0.51198140  0.52666459  0.28132452  1  0  -0.56507  0  2.03936  0  0  -0.53055  0  2.306844  0  0  -0.557437  0  2.292793  0  0  -0.313454  -0.512599  0  2.315956  0
