# generated using pymatgen
data_Hg2H9C7NCl4O
_symmetry_space_group_name_H-M   'P 1'
_cell_length_a   7.46639998
_cell_length_b   9.56929067
_cell_length_c   9.65145055
_cell_angle_alpha   76.93572563
_cell_angle_beta   78.80743764
_cell_angle_gamma   87.29890421
_symmetry_Int_Tables_number   1
_chemical_formula_structural   Hg2H9C7NCl4O
_chemical_formula_sum   'Hg4 H18 C14 N2 Cl8 O2'
_cell_volume   658.95014667
_cell_formula_units_Z   2
loop_
 _symmetry_equiv_pos_site_id
 _symmetry_equiv_pos_as_xyz
  1  'x, y, z'
loop_
 _atom_site_type_symbol
 _atom_site_label
 _atom_site_symmetry_multiplicity
 _atom_site_fract_x
 _atom_site_fract_y
 _atom_site_fract_z
 _atom_site_occupancy
 _atom_site_hle17_bader_spin_density
 _atom_site_hle17_ddec_charge
 _atom_site_hle17_ddec_spin_density
 _atom_site_hle17_ddec_sum_bond_order
 _atom_site_hle17_magmom
 _atom_site_hse06_10hf_bader_spin_density
 _atom_site_hse06_10hf_ddec_charge
 _atom_site_hse06_10hf_ddec_spin_density
 _atom_site_hse06_10hf_ddec_sum_bond_order
 _atom_site_hse06_10hf_magmom
 _atom_site_hse06_bader_spin_density
 _atom_site_hse06_ddec_charge
 _atom_site_hse06_ddec_spin_density
 _atom_site_hse06_ddec_sum_bond_order
 _atom_site_hse06_magmom
 _atom_site_pbe_bader_spin_density
 _atom_site_pbe_cm5_charge
 _atom_site_pbe_ddec_charge
 _atom_site_pbe_ddec_spin_density
 _atom_site_pbe_ddec_sum_bond_order
 _atom_site_pbe_magmom
Hg  Hg0  1  0.75494731  0.90064276  0.57828479  1  0  0.815944  0  2.017973  0  0  0.671031  0  2.493225  0  0  0.720998  0  2.457545  0  0  0.548629  0.636075  0  2.517325  0
Hg  Hg1  1  0.24503983  0.09936420  0.42171395  1  0  0.815986  0  2.018048  0  0  0.67107  0  2.493318  0  0  0.721038  0  2.457634  0  0  0.548677  0.636114  0  2.517412  0
Hg  Hg2  1  0.27177889  0.98142048  0.94567499  1  0  0.776774  0  2.141908  0  0  0.644368  0  2.652083  0  0  0.69179  0  2.615587  0  0  0.453045  0.611677  0  2.676766  0
Hg  Hg3  1  0.72821640  0.01857569  0.05432399  1  0  0.776727  0  2.141899  0  0  0.644327  0  2.652044  0  0  0.691751  0  2.615547  0  0  0.453025  0.611637  0  2.676723  0
H  H4  1  0.98919866  0.75127518  0.82629290  1  0  0.352068  0  0.921148  0  0  0.328358  0  1.000917  0  0  0.337461  0  0.990568  0  0  0.269045  0.321781  0  1.008471  0
H  H5  1  0.01080895  0.24872952  0.17370330  1  0  0.352045  0  0.921203  0  0  0.328307  0  1.000987  0  0  0.337409  0  0.990639  0  0  0.269014  0.32173  0  1.008538  0
H  H6  1  0.78644918  0.78566714  0.30688393  1  0  0.071387  0  0.987948  0  0  0.077543  0  1.06405  0  0  0.078916  0  1.061915  0  0  0.092726  0.076062  0  1.066251  0
H  H7  1  0.21352428  0.21433233  0.69311237  1  0  0.071351  0  0.988275  0  0  0.077615  0  1.064249  0  0  0.078989  0  1.062116  0  0  0.092733  0.076134  0  1.066452  0
H  H8  1  0.80133009  0.55168725  0.23217306  1  0  0.108069  0  0.947298  0  0  0.119405  0  1.005809  0  0  0.122256  0  1.005066  0  0  0.106141  0.118176  0  1.005174  0
H  H9  1  0.19866794  0.44831325  0.76783072  1  0  0.107981  0  0.947282  0  0  0.119304  0  1.005799  0  0  0.12216  0  1.005057  0  0  0.106101  0.118077  0  1.005161  0
H  H10  1  0.75046568  0.32383669  0.42713367  1  0  0.106496  0  0.944769  0  0  0.114051  0  1.011079  0  0  0.116874  0  1.007999  0  0  0.10071  0.111808  0  1.01325  0
H  H11  1  0.24955145  0.67616051  0.57287009  1  0  0.106541  0  0.944726  0  0  0.114143  0  1.010956  0  0  0.116969  0  1.007873  0  0  0.100763  0.111886  0  1.013173  0
H  H12  1  0.67284618  0.34392864  0.68556393  1  0  0.117003  0  0.971766  0  0  0.123872  0  1.038863  0  0  0.126976  0  1.037936  0  0  0.094145  0.121422  0  1.039992  0
H  H13  1  0.32717507  0.65607393  0.31444108  1  0  0.117014  0  0.971864  0  0  0.123872  0  1.038976  0  0  0.126975  0  1.038052  0  0  0.094169  0.121415  0  1.040084  0
H  H14  1  0.56431794  0.49715261  0.85417927  1  0  0.107652  0  0.924127  0  0  0.127195  0  0.977421  0  0  0.128357  0  0.977625  0  0  0.100261  0.126294  0  0.977414  0
H  H15  1  0.43568965  0.50284782  0.14582103  1  0  0.107601  0  0.924125  0  0  0.127155  0  0.977421  0  0  0.128324  0  0.977614  0  0  0.100252  0.126254  0  0.977418  0
H  H16  1  0.56913527  0.68730083  0.79727791  1  0  0.091161  0  0.966542  0  0  0.103709  0  1.037797  0  0  0.104729  0  1.037048  0  0  0.083163  0.102902  0  1.038401  0
H  H17  1  0.43087096  0.31270072  0.20272648  1  0  0.091152  0  0.966487  0  0  0.103674  0  1.03778  0  0  0.104689  0  1.037033  0  0  0.083158  0.102866  0  1.038382  0
H  H18  1  0.78336683  0.60540881  0.96159579  1  0  0.042633  0  0.955897  0  0  0.056132  0  1.025991  0  0  0.056815  0  1.024962  0  0  0.083782  0.056098  0  1.025888  0
H  H19  1  0.21664486  0.39459373  0.03840237  1  0  0.04268  0  0.955996  0  0  0.056205  0  1.026061  0  0  0.056891  0  1.025032  0  0  0.083798  0.056172  0  1.025959  0
H  H20  1  0.89266739  0.48617487  0.85259866  1  0  0.040235  0  0.958624  0  0  0.052323  0  1.030685  0  0  0.053014  0  1.030117  0  0  0.080205  0.051874  0  1.031012  0
H  H21  1  0.10733884  0.51382556  0.14739977  1  0  0.040303  0  0.958514  0  0  0.052358  0  1.030652  0  0  0.053048  0  1.030085  0  0  0.080214  0.051908  0  1.030983  0
C  C22  1  0.76135091  0.68479195  0.38635750  1  0  0.128761  0  3.699751  0  0  0.091832  0  3.949146  0  0  0.100531  0  3.969962  0  0  0.038448  0.086221  0  3.935461  0
C  C23  1  0.23862387  0.31520006  0.61364759  1  0  0.128724  0  3.699671  0  0  0.091719  0  3.948997  0  0  0.100412  0  3.969819  0  0  0.038457  0.08611  0  3.935312  0
C  C24  1  0.77030867  0.55393505  0.34653164  1  0  -0.111563  0  3.717539  0  0  -0.125543  0  3.972405  0  0  -0.133678  0  3.993864  0  0  -0.082617  -0.120838  0  3.957616  0
C  C25  1  0.22968118  0.44606759  0.65346665  1  0  -0.111379  0  3.71752  0  0  -0.125348  0  3.97238  0  0  -0.133489  0  3.99385  0  0  -0.082576  -0.120641  0  3.957587  0
C  C26  1  0.74055095  0.42857287  0.45466184  1  0  0.032241  0  3.676833  0  0  0.011252  0  3.92596  0  0  0.017592  0  3.94214  0  0  -0.059095  0.007525  0  3.915422  0
C  C27  1  0.25945251  0.57142227  0.54534548  1  0  0.032093  0  3.677106  0  0  0.011091  0  3.926219  0  0  0.017429  0  3.942403  0  0  -0.059195  0.00736  0  3.915673  0
C  C28  1  0.69867653  0.43963449  0.59869482  1  0  -0.159979  0  3.68007  0  0  -0.175595  0  3.923176  0  0  -0.185082  0  3.945699  0  0  -0.082947  -0.169827  0  3.908578  0
C  C29  1  0.30132699  0.56037351  0.40130847  1  0  -0.159843  0  3.679979  0  0  -0.175475  0  3.923117  0  0  -0.184959  0  3.945641  0  0  -0.082886  -0.169683  0  3.908537  0
C  C30  1  0.68870683  0.57394858  0.63394454  1  0  0.276907  0  3.672257  0  0  0.277903  0  3.907287  0  0  0.287976  0  3.929097  0  0  0.125208  0.271458  0  3.89229  0
C  C31  1  0.31129257  0.42605185  0.36605180  1  0  0.276686  0  3.672589  0  0  0.277668  0  3.907653  0  0  0.287742  0  3.929464  0  0  0.125111  0.271225  0  3.892651  0
C  C32  1  0.64810142  0.58864162  0.78813510  1  0  -0.237175  0  3.704464  0  0  -0.280124  0  3.95063  0  0  -0.283344  0  3.961439  0  0  -0.168313  -0.277692  0  3.94292  0
C  C33  1  0.35190207  0.41135994  0.21186865  1  0  -0.237045  0  3.704496  0  0  -0.279964  0  3.950714  0  0  -0.283183  0  3.961526  0  0  -0.168283  -0.277538  0  3.943008  0
C  C34  1  0.82179651  0.59008407  0.85003722  1  0  0.150969  0  3.63837  0  0  0.09278  0  3.913361  0  0  0.10011  0  3.919569  0  0  -0.086116  0.087568  0  3.908791  0
C  C35  1  0.17821382  0.40991631  0.14995853  1  0  0.150829  0  3.638301  0  0  0.092586  0  3.913371  0  0  0.099914  0  3.919581  0  0  -0.086178  0.087375  0  3.90881  0
N  N36  1  0.72206685  0.69380631  0.52647458  1  0  -0.304248  0  3.296334  0  0  -0.206005  0  3.535597  0  0  -0.232297  0  3.560762  0  0  -0.301242  -0.188923  0  3.518841  0
N  N37  1  0.27791891  0.30619737  0.47351786  1  0  -0.304185  0  3.296271  0  0  -0.205965  0  3.53559  0  0  -0.232248  0  3.560741  0  0  -0.301236  -0.188885  0  3.518835  0
Cl  Cl38  1  0.86470663  0.08776091  0.66041472  1  0  -0.440779  0  1.107977  0  0  -0.384623  0  1.417974  0  0  -0.405369  0  1.399863  0  0  -0.242359  -0.369565  0  1.429505  0
Cl  Cl39  1  0.13529139  0.91223852  0.33958828  1  0  -0.440771  0  1.107944  0  0  -0.384624  0  1.417942  0  0  -0.405373  0  1.399836  0  0  -0.242374  -0.369566  0  1.429464  0
Cl  Cl40  1  0.36122989  0.92987335  0.67977961  1  0  -0.535676  0  1.045502  0  0  -0.4793  0  1.350762  0  0  -0.502258  0  1.328512  0  0  -0.295749  -0.46174  0  1.365195  0
Cl  Cl41  1  0.63876678  0.07012710  0.32021714  1  0  -0.535703  0  1.045534  0  0  -0.47932  0  1.350764  0  0  -0.50228  0  1.328513  0  0  -0.295767  -0.461767  0  1.365195  0
Cl  Cl42  1  0.44941828  0.19160200  0.93456316  1  0  -0.429288  0  1.13431  0  0  -0.365206  0  1.438604  0  0  -0.386797  0  1.421076  0  0  -0.225035  -0.350752  0  1.450749  0
Cl  Cl43  1  0.55057701  0.80839418  0.06543582  1  0  -0.429244  0  1.134253  0  0  -0.365143  0  1.438521  0  0  -0.386736  0  1.420996  0  0  -0.224996  -0.350693  0  1.450662  0
Cl  Cl44  1  0.03930517  0.79713323  0.03246906  1  0  -0.447283  0  1.148262  0  0  -0.380818  0  1.445564  0  0  -0.401787  0  1.426555  0  0  -0.221083  -0.366696  0  1.458775  0
Cl  Cl45  1  0.96068877  0.20286834  0.96753198  1  0  -0.447276  0  1.148206  0  0  -0.380815  0  1.445506  0  0  -0.401792  0  1.426512  0  0  -0.221102  -0.366695  0  1.458715  0
O  O46  1  0.93904208  0.70364542  0.76187030  1  0  -0.552312  0  2.113337  0  0  -0.494557  0  2.347435  0  0  -0.513798  0  2.338409  0  0  -0.410947  -0.480916  0  2.35384  0
O  O47  1  0.06096960  0.29635389  0.23812653  1  0  -0.552263  0  2.113374  0  0  -0.494423  0  2.347469  0  0  -0.513663  0  2.338446  0  0  -0.410887  -0.480788  0  2.353873  0
