# generated using pymatgen
data_Dy2H17C18N3O13
_symmetry_space_group_name_H-M   'P 1'
_cell_length_a   16.52925930
_cell_length_b   16.52935299
_cell_length_c   17.68065720
_cell_angle_alpha   62.12532636
_cell_angle_beta   62.13171610
_cell_angle_gamma   60.00540458
_symmetry_Int_Tables_number   1
_chemical_formula_structural   Dy2H17C18N3O13
_chemical_formula_sum   'Dy8 H68 C72 N12 O52'
_cell_volume   3521.75364094
_cell_formula_units_Z   4
loop_
 _symmetry_equiv_pos_site_id
 _symmetry_equiv_pos_as_xyz
  1  'x, y, z'
loop_
 _atom_site_type_symbol
 _atom_site_label
 _atom_site_symmetry_multiplicity
 _atom_site_fract_x
 _atom_site_fract_y
 _atom_site_fract_z
 _atom_site_occupancy
 _atom_site_pbe_bader_charge
 _atom_site_pbe_bader_spin_density
 _atom_site_pbe_cm5_charge
 _atom_site_pbe_ddec_charge
 _atom_site_pbe_ddec_spin_density
 _atom_site_pbe_ddec_sum_bond_order
 _atom_site_pbe_magmom
Dy  Dy0  1  0.19069215  0.19062200  0.42808594  1  2.137883  0  1.458449  2.226927  0  2.203626  0
Dy  Dy1  1  0.80930866  0.80937727  0.57191430  1  2.137943  0  1.458449  2.22689  0  2.203669  0
Dy  Dy2  1  0.39939289  0.22093851  0.21044108  1  2.106758  0  1.423526  2.08861  0  2.246437  0
Dy  Dy3  1  0.22091080  0.16936982  0.21041308  1  2.110024  0  1.423454  2.088976  0  2.246723  0
Dy  Dy4  1  0.16935231  0.39941458  0.21045139  1  2.110731  0  1.423214  2.088671  0  2.247315  0
Dy  Dy5  1  0.60060792  0.77906145  0.78955886  1  2.106795  0  1.423522  2.088598  0  2.24646  0
Dy  Dy6  1  0.77908928  0.83062971  0.78958737  1  2.110019  0  1.423468  2.089  0  2.246718  0
Dy  Dy7  1  0.83064776  0.60058496  0.78954906  1  2.110695  0  1.423244  2.088706  0  2.247298  0
H  H8  1  0.58228699  0.79280652  0.01083677  1  0.180253  0  0.138438  0.137249  0  1.013116  0
H  H9  1  0.79264231  0.61408235  0.01096619  1  0.212462  0  0.138394  0.136901  0  1.013694  0
H  H10  1  0.61424320  0.58235679  0.01077017  1  0.20265  0  0.138343  0.13684  0  1.013607  0
H  H11  1  0.41771309  0.20719369  0.98916281  1  0.180249  0  0.138437  0.137275  0  1.013077  0
H  H12  1  0.20735851  0.38591555  0.98903465  1  0.212446  0  0.138376  0.136868  0  1.013716  0
H  H13  1  0.38575614  0.41764369  0.98922850  1  0.202621  0  0.138331  0.136827  0  1.01366  0
H  H14  1  0.44935701  0.08736852  0.68916270  1  0.144784  0  0.129373  0.120984  0  0.997088  0
H  H15  1  0.08737576  0.77404365  0.68916423  1  0.148254  0  0.129182  0.121082  0  0.997322  0
H  H16  1  0.77419359  0.44938335  0.68920314  1  0.154618  0  0.129246  0.121253  0  0.997603  0
H  H17  1  0.55064454  0.91262912  0.31083794  1  0.14494  0  0.129393  0.120987  0  0.997039  0
H  H18  1  0.91262285  0.22595915  0.31083656  1  0.14822  0  0.129196  0.121111  0  0.997298  0
H  H19  1  0.22580502  0.55061602  0.31079745  1  0.154635  0  0.129241  0.121251  0  0.997575  0
H  H20  1  0.61444091  0.12899439  0.36565608  1  0.116128  0  0.119502  0.12704  0  0.977621  0
H  H21  1  0.12887590  0.89089714  0.36565770  1  0.122037  0  0.119319  0.127081  0  0.977647  0
H  H22  1  0.89078283  0.61430260  0.36559823  1  0.099346  0  0.119249  0.126693  0  0.978596  0
H  H23  1  0.38556064  0.87100530  0.63434309  1  0.11608  0  0.119501  0.127029  0  0.977656  0
H  H24  1  0.87112418  0.10910171  0.63434362  1  0.122142  0  0.119344  0.127129  0  0.977739  0
H  H25  1  0.10921725  0.38569761  0.63440193  1  0.099344  0  0.119238  0.126658  0  0.978675  0
H  H26  1  0.69850286  0.09595062  0.47135716  1  0.136178  0  0.135166  0.119799  0  1.004157  0
H  H27  1  0.09580090  0.73420187  0.47139704  1  0.154037  0  0.134995  0.119282  0  1.004898  0
H  H28  1  0.73416653  0.69840204  0.47130458  1  0.164451  0  0.135114  0.119838  0  1.003139  0
H  H29  1  0.30149795  0.90405002  0.52864305  1  0.136202  0  0.13516  0.119802  0  1.004201  0
H  H30  1  0.90419844  0.26579793  0.52860474  1  0.15402  0  0.135016  0.119319  0  1.004839  0
H  H31  1  0.26583134  0.30159829  0.52869536  1  0.164454  0  0.135096  0.119778  0  1.003224  0
H  H32  1  0.44410838  0.90525754  0.10419216  1  0.121752  0  0.123615  0.138245  0  0.967598  0
H  H33  1  0.90518657  0.54640300  0.10424379  1  0.110236  0  0.123583  0.13857  0  0.967589  0
H  H34  1  0.54651423  0.44422073  0.10403093  1  0.133372  0  0.123604  0.138753  0  0.966571  0
H  H35  1  0.55589170  0.09474268  0.89580799  1  0.121744  0  0.123609  0.138223  0  0.967611  0
H  H36  1  0.09481425  0.45359695  0.89575616  1  0.110227  0  0.123587  0.138559  0  0.967627  0
H  H37  1  0.45348585  0.55577949  0.89596696  1  0.133235  0  0.123594  0.138742  0  0.966581  0
H  H38  1  0.66109679  0.97792159  0.10283427  1  0.076396  0  0.115917  0.124187  0  0.993706  0
H  H39  1  0.97792339  0.25818853  0.10267946  1  0.123888  0  0.115765  0.123777  0  0.993427  0
H  H40  1  0.25828789  0.66132128  0.10271600  1  0.06468  0  0.115825  0.123634  0  0.993031  0
H  H41  1  0.33890329  0.02207931  0.89716389  1  0.0764  0  0.115912  0.124186  0  0.993681  0
H  H42  1  0.02207889  0.74181021  0.89732038  1  0.123968  0  0.115771  0.123801  0  0.993442  0
H  H43  1  0.74171145  0.33867920  0.89728323  1  0.064684  0  0.115822  0.123631  0  0.993052  0
H  H44  1  0.79017984  0.86517939  0.00826387  1  0.171115  0  0.137425  0.131815  0  0.96494  0
H  H45  1  0.86510539  0.33650356  0.00814384  1  0.146799  0  0.137081  0.131314  0  0.964861  0
H  H46  1  0.33663446  0.79037902  0.00816490  1  0.140778  0  0.137505  0.132629  0  0.963443  0
H  H47  1  0.20982024  0.13482014  0.99173602  1  0.171123  0  0.137437  0.131823  0  0.964915  0
H  H48  1  0.13489615  0.66349682  0.99185504  1  0.146778  0  0.137096  0.131358  0  0.964823  0
H  H49  1  0.66336488  0.20962214  0.99183402  1  0.140805  0  0.1375  0.132617  0  0.96348  0
H  H50  1  0.35535392  0.11678411  0.59197695  1  0.142894  0  0.121803  0.135782  0  0.980125  0
H  H51  1  0.11678965  0.93579266  0.59194320  1  0.131458  0  0.12184  0.135219  0  0.982531  0
H  H52  1  0.93584298  0.35532391  0.59199446  1  0.142008  0  0.121597  0.135144  0  0.981262  0
H  H53  1  0.64464689  0.88321516  0.40802330  1  0.14285  0  0.1218  0.135778  0  0.980085  0
H  H54  1  0.88321116  0.06420867  0.40805615  1  0.131529  0  0.121826  0.135245  0  0.982509  0
H  H55  1  0.06415563  0.64467683  0.40800554  1  0.142002  0  0.121583  0.135126  0  0.981261  0
H  H56  1  0.12159882  0.12162231  0.63431666  1  0.582254  0  0.259535  0.384291  0  0.924129  0
H  H57  1  0.87839906  0.87838143  0.36568404  1  0.582274  0  0.259491  0.384215  0  0.924247  0
H  H58  1  0.57958572  0.14418817  0.23608466  1  0.619412  0  0.296008  0.38906  0  0.938525  0
H  H59  1  0.14418834  0.04020467  0.23608228  1  0.644125  0  0.295655  0.38855  0  0.939076  0
H  H60  1  0.04019595  0.57949403  0.23601671  1  0.630504  0  0.295639  0.388276  0  0.939391  0
H  H61  1  0.42041509  0.85581179  0.76391415  1  0.619391  0  0.296064  0.389089  0  0.93846  0
H  H62  1  0.85581174  0.95979486  0.76391760  1  0.644122  0  0.295642  0.388524  0  0.939109  0
H  H63  1  0.95980487  0.42050592  0.76398324  1  0.630467  0  0.295674  0.388331  0  0.939318  0
H  H64  1  0.59242551  0.10259646  0.16672158  1  0.609167  0  0.294033  0.373858  0  0.961991  0
H  H65  1  0.10255501  0.13833715  0.16674210  1  0.616452  0  0.293887  0.373945  0  0.962071  0
H  H66  1  0.13832510  0.59236534  0.16667618  1  0.608715  0  0.294014  0.373974  0  0.961904  0
H  H67  1  0.40757457  0.89740307  0.83327830  1  0.609171  0  0.294042  0.373868  0  0.961981  0
H  H68  1  0.89744654  0.86166254  0.83325707  1  0.617002  0  0.293916  0.373994  0  0.962014  0
H  H69  1  0.86167572  0.40763461  0.83332377  1  0.608738  0  0.29403  0.374016  0  0.961848  0
H  H70  1  0.28829186  0.33655754  0.32574520  1  0.618716  0  0.286513  0.380895  0  0.976659  0
H  H71  1  0.33652249  0.04957110  0.32570414  1  0.635688  0  0.286495  0.380356  0  0.977463  0
H  H72  1  0.04958887  0.28828984  0.32571158  1  0.600047  0  0.286181  0.380143  0  0.977754  0
H  H73  1  0.71170896  0.66344173  0.67425505  1  0.618732  0  0.286513  0.38088  0  0.976684  0
H  H74  1  0.66347759  0.95042844  0.67429631  1  0.635707  0  0.286485  0.380315  0  0.977529  0
H  H75  1  0.95041048  0.71171065  0.67428877  1  0.600048  0  0.286202  0.380178  0  0.977708  0
C  C76  1  0.54209608  0.95035902  0.11060286  1  0.029775  0  -0.005285  -0.02153  0  3.955509  0
C  C77  1  0.95035255  0.39694006  0.11055612  1  0.029034  0  -0.005987  -0.022204  0  3.956331  0
C  C78  1  0.39703566  0.54228229  0.11043840  1  0.041845  0  -0.005986  -0.021392  0  3.953563  0
C  C79  1  0.45790473  0.04964093  0.88939596  1  0.029744  0  -0.005311  -0.021607  0  3.955526  0
C  C80  1  0.04964826  0.60305989  0.88944439  1  0.028999  0  -0.005989  -0.022172  0  3.956412  0
C  C81  1  0.60296369  0.45771819  0.88956026  1  0.041844  0  -0.005978  -0.021405  0  3.953591  0
C  C82  1  0.46305892  0.02712875  0.15485507  1  1.594353  0  0.231043  0.629299  0  4.182939  0
C  C83  1  0.02712173  0.35498573  0.15482186  1  1.621409  0  0.231926  0.63137  0  4.182262  0
C  C84  1  0.35499442  0.46326614  0.15473001  1  1.600267  0  0.232511  0.631609  0  4.18116  0
C  C85  1  0.53694042  0.97287174  0.84514472  1  1.594355  0  0.231035  0.629359  0  4.182877  0
C  C86  1  0.97287981  0.64501396  0.84517844  1  1.621459  0  0.231946  0.631349  0  4.182186  0
C  C87  1  0.64500419  0.53673529  0.84526855  1  1.600272  0  0.232571  0.631643  0  4.181098  0
C  C88  1  0.59388447  0.83435796  0.03563071  1  0.365375  0  0.045801  -0.040432  0  3.813508  0
C  C89  1  0.83421742  0.53614897  0.03570602  1  0.292738  0  0.045833  -0.039363  0  3.814373  0
C  C90  1  0.53628380  0.59398879  0.03556516  1  0.306531  0  0.046018  -0.038693  0  3.812739  0
C  C91  1  0.40611561  0.16564225  0.96436944  1  0.365356  0  0.045785  -0.04051  0  3.813529  0
C  C92  1  0.16578412  0.46384935  0.96429545  1  0.293228  0  0.04583  -0.039339  0  3.814338  0
C  C93  1  0.46371407  0.40601222  0.96443391  1  0.306625  0  0.045993  -0.038742  0  3.812752  0
C  C94  1  0.47927763  0.09921424  0.61709632  1  0.352534  0  0.03394  -0.049749  0  3.850884  0
C  C95  1  0.09916811  0.80435322  0.61709377  1  0.309026  0  0.034225  -0.050272  0  3.852292  0
C  C96  1  0.80439599  0.47924742  0.61711375  1  0.282574  0  0.034196  -0.05035  0  3.848918  0
C  C97  1  0.52072319  0.90078503  0.38290562  1  0.352249  0  0.033965  -0.049696  0  3.850953  0
C  C98  1  0.90083051  0.19564890  0.38290732  1  0.309261  0  0.034194  -0.050335  0  3.852308  0
C  C99  1  0.19560189  0.52075291  0.38288675  1  0.282266  0  0.034171  -0.050409  0  3.848919  0
C  C100  1  0.47738737  0.12696529  0.47114230  1  0.06056  0  -0.009821  -0.030009  0  3.960937  0
C  C101  1  0.12694822  0.92448898  0.47111170  1  0.045155  0  -0.010188  -0.031156  0  3.962064  0
C  C102  1  0.92441670  0.47726456  0.47111964  1  0.001548  0  -0.010477  -0.031879  0  3.962843  0
C  C103  1  0.52261418  0.87303440  0.52885800  1  0.060555  0  -0.009857  -0.030071  0  3.960843  0
C  C104  1  0.87305186  0.07551124  0.52888845  1  0.045318  0  -0.010178  -0.031139  0  3.962102  0
C  C105  1  0.07558191  0.52273550  0.52888009  1  0.001756  0  -0.010492  -0.031885  0  3.962765  0
C  C106  1  0.57477140  0.12122172  0.43659003  1  -0.056409  0  -0.065298  -0.096133  0  3.976511  0
C  C107  1  0.12112394  0.86742828  0.43658302  1  0.011545  0  -0.065293  -0.096342  0  3.977241  0
C  C108  1  0.86732175  0.57462362  0.43653001  1  0.09683  0  -0.065021  -0.095689  0  3.975697  0
C  C109  1  0.42522795  0.87877739  0.56341092  1  -0.056367  0  -0.065253  -0.096078  0  3.976475  0
C  C110  1  0.87887760  0.13257072  0.56341815  1  0.011347  0  -0.065335  -0.096447  0  3.977302  0
C  C111  1  0.13267759  0.42537481  0.56347125  1  0.096807  0  -0.06505  -0.095718  0  3.97558  0
C  C112  1  0.42267635  0.14422879  0.41426575  1  1.615901  0  0.230639  0.640548  0  4.193043  0
C  C113  1  0.14429981  0.01880817  0.41425435  1  1.607871  0  0.23123  0.641116  0  4.195202  0
C  C114  1  0.01882856  0.42253684  0.41430316  1  1.618097  0  0.231155  0.641919  0  4.194451  0
C  C115  1  0.57732226  0.85577264  0.58573507  1  1.615889  0  0.230611  0.640527  0  4.193082  0
C  C116  1  0.85570247  0.98119125  0.58574406  1  1.607745  0  0.23126  0.641176  0  4.195141  0
C  C117  1  0.98117225  0.57746175  0.58569795  1  1.618077  0  0.231108  0.641899  0  4.194567  0
C  C118  1  0.62227620  0.10439725  0.49214289  1  0.366784  0  0.042841  -0.049546  0  3.842151  0
C  C119  1  0.10427525  0.78119916  0.49216012  1  0.303769  0  0.043202  -0.048416  0  3.841435  0
C  C120  1  0.78111343  0.62216887  0.49209735  1  0.294934  0  0.043388  -0.048769  0  3.838609  0
C  C121  1  0.37772462  0.89560339  0.50785676  1  0.366803  0  0.042788  -0.049614  0  3.842201  0
C  C122  1  0.89572483  0.21880175  0.50784087  1  0.303682  0  0.043188  -0.048437  0  3.841339  0
C  C123  1  0.21888592  0.37782956  0.50790334  1  0.29491  0  0.043425  -0.048686  0  3.838523  0
C  C124  1  0.52018938  0.89624594  0.08589161  1  -0.001099  0  -0.06614  -0.103971  0  3.962136  0
C  C125  1  0.89616949  0.49765867  0.08592975  1  0.029371  0  -0.065647  -0.104192  0  3.963459  0
C  C126  1  0.49778477  0.52030713  0.08575729  1  0.026897  0  -0.066122  -0.10576  0  3.961864  0
C  C127  1  0.47981070  0.10375359  0.91410941  1  -0.001069  0  -0.066134  -0.103932  0  3.962163  0
C  C128  1  0.10382986  0.50234044  0.91407008  1  0.029153  0  -0.065623  -0.10415  0  3.96335  0
C  C129  1  0.50221457  0.47969404  0.91424107  1  0.026905  0  -0.066112  -0.105723  0  3.961863  0
C  C130  1  0.64075787  0.93726828  0.08513017  1  0.045851  0  -0.073995  -0.121004  0  4.00039  0
C  C131  1  0.93726349  0.33689336  0.08502237  1  0.014056  0  -0.073656  -0.120234  0  3.999867  0
C  C132  1  0.33699443  0.64096050  0.08501247  1  -0.066938  0  -0.073612  -0.119551  0  3.999163  0
C  C133  1  0.35924221  0.06273330  0.91486881  1  0.045859  0  -0.073982  -0.120974  0  4.000365  0
C  C134  1  0.06273733  0.66310591  0.91497731  1  0.014014  0  -0.073722  -0.120348  0  3.999955  0
C  C135  1  0.66300639  0.35903945  0.91498691  1  -0.067136  0  -0.0736  -0.119518  0  3.999075  0
C  C136  1  0.71280529  0.87589213  0.03422502  1  0.293177  0  0.043307  -0.034315  0  3.853409  0
C  C137  1  0.87583058  0.37715521  0.03415966  1  0.325432  0  0.043153  -0.034242  0  3.853456  0
C  C138  1  0.37726626  0.71298252  0.03416966  1  0.459252  0  0.042755  -0.037135  0  3.853452  0
C  C139  1  0.28719553  0.12410782  0.96577436  1  0.293167  0  0.043346  -0.034271  0  3.853464  0
C  C140  1  0.12417097  0.62284380  0.96584094  1  0.325151  0  0.043179  -0.034226  0  3.853365  0
C  C141  1  0.62273308  0.28701864  0.96582926  1  0.459482  0  0.042722  -0.037144  0  3.853384  0
C  C142  1  0.43056706  0.11479788  0.56330944  1  -0.029536  0  -0.071322  -0.114817  0  3.98962  0
C  C143  1  0.11477598  0.89126502  0.56328858  1  -0.007314  0  -0.071167  -0.113268  0  3.9904  0
C  C144  1  0.89126956  0.43049299  0.56330144  1  0.01012  0  -0.070679  -0.11309  0  3.988139  0
C  C145  1  0.56943302  0.88520302  0.43669041  1  -0.029392  0  -0.071343  -0.114807  0  3.989589  0
C  C146  1  0.88522483  0.10873630  0.43671189  1  -0.007501  0  -0.071152  -0.113294  0  3.990468  0
C  C147  1  0.10872978  0.56950543  0.43669925  1  0.010204  0  -0.070667  -0.113051  0  3.988145  0
N  N148  1  0.68906984  0.82641515  0.00860951  1  -0.620691  0  -0.102335  0.348355  0  3.984851  0
N  N149  1  0.82630294  0.47596741  0.00861867  1  -0.62567  0  -0.101969  0.347459  0  3.985895  0
N  N150  1  0.47610901  0.68918550  0.00855090  1  -0.639056  0  -0.101714  0.349083  0  3.988724  0
N  N151  1  0.31093024  0.17358438  0.99139037  1  -0.620684  0  -0.102361  0.348367  0  3.98479  0
N  N152  1  0.17369714  0.52403075  0.99138125  1  -0.62564  0  -0.101948  0.347435  0  3.986008  0
N  N153  1  0.52389033  0.31081430  0.99144919  1  -0.639059  0  -0.101661  0.349108  0  3.988752  0
N  N154  1  0.57458466  0.09450029  0.58171908  1  -0.613132  0  -0.100552  0.339059  0  3.985335  0
N  N155  1  0.09442196  0.74915114  0.58174176  1  -0.612465  0  -0.100391  0.339171  0  3.985144  0
N  N156  1  0.74916173  0.57451728  0.58170231  1  -0.624306  0  -0.101067  0.33878  0  3.983391  0
N  N157  1  0.42541689  0.90549940  0.41828009  1  -0.612653  0  -0.100495  0.339094  0  3.98529  0
N  N158  1  0.90557592  0.25085056  0.41826040  1  -0.61248  0  -0.100411  0.339235  0  3.98521  0
N  N159  1  0.25083761  0.42548183  0.41829751  1  -0.624265  0  -0.100993  0.338879  0  3.983329  0
O  O160  1  0.75819781  0.77273672  0.95645093  1  -0.622036  0  -0.257046  -0.529832  0  2.035695  0
O  O161  1  0.77259829  0.51274183  0.95645493  1  -0.624658  0  -0.256902  -0.528787  0  2.036347  0
O  O162  1  0.51285879  0.75829249  0.95635381  1  -0.628518  0  -0.257232  -0.529379  0  2.040362  0
O  O163  1  0.24180154  0.22726308  0.04354916  1  -0.622046  0  -0.257063  -0.529859  0  2.03561  0
O  O164  1  0.22740252  0.48725675  0.04354505  1  -0.624659  0  -0.256924  -0.528806  0  2.036335  0
O  O165  1  0.48714056  0.24170868  0.04364568  1  -0.628507  0  -0.257217  -0.529334  0  2.040458  0
O  O166  1  0.28096414  0.28100991  0.15716399  1  -1.233378  0  -1.011102  -1.334819  0  2.060839  0
O  O167  1  0.71903667  0.71898867  0.84283712  1  -1.233367  0  -1.011097  -1.334809  0  2.060836  0
O  O168  1  0.26441627  0.30488208  0.30889385  1  -1.291409  0  -0.810338  -1.166  0  2.166137  0
O  O169  1  0.30485971  0.12196224  0.30885302  1  -1.310256  0  -0.810581  -1.164863  0  2.165599  0
O  O170  1  0.12197759  0.26439791  0.30888739  1  -1.279053  0  -0.810079  -1.164578  0  2.166736  0
O  O171  1  0.73558455  0.69511651  0.69110670  1  -1.291418  0  -0.810344  -1.165996  0  2.166192  0
O  O172  1  0.69514111  0.87803635  0.69114866  1  -1.310284  0  -0.810592  -1.164816  0  2.165658  0
O  O173  1  0.87802176  0.73560326  0.69111211  1  -1.279066  0  -0.810084  -1.164583  0  2.166688  0
O  O174  1  0.37579279  0.05220470  0.15755493  1  -1.188298  0  -0.369221  -0.648134  0  2.262823  0
O  O175  1  0.05219602  0.41447201  0.15752116  1  -1.186846  0  -0.369234  -0.648585  0  2.262148  0
O  O176  1  0.41440395  0.37600029  0.15743713  1  -1.193813  0  -0.369682  -0.649005  0  2.262467  0
O  O177  1  0.62420876  0.94779498  0.84244368  1  -1.188299  0  -0.369193  -0.64813  0  2.262726  0
O  O178  1  0.94780333  0.58552848  0.84247920  1  -1.186864  0  -0.369257  -0.648586  0  2.262029  0
O  O179  1  0.58559540  0.62399951  0.84256183  1  -1.193826  0  -0.369686  -0.648991  0  2.262472  0
O  O180  1  0.61998608  0.07838094  0.63360293  1  -0.576922  0  -0.222367  -0.447878  0  1.888497  0
O  O181  1  0.07832519  0.66797289  0.63363075  1  -0.573734  0  -0.222555  -0.448249  0  1.887341  0
O  O182  1  0.66803229  0.61993422  0.63358084  1  -0.582746  0  -0.222372  -0.448013  0  1.886913  0
O  O183  1  0.38001547  0.92161944  0.36639595  1  -0.577378  0  -0.222345  -0.447861  0  1.888483  0
O  O184  1  0.92167122  0.33203002  0.36637265  1  -0.573749  0  -0.222521  -0.448265  0  1.887446  0
O  O185  1  0.33196705  0.38006626  0.36641895  1  -0.582714  0  -0.22236  -0.448009  0  1.887011  0
O  O186  1  0.49072629  0.06522967  0.18249735  1  -1.18405  0  -0.376419  -0.668005  0  2.34429  0
O  O187  1  0.06521546  0.26155799  0.18250406  1  -1.206785  0  -0.376733  -0.669213  0  2.345131  0
O  O188  1  0.26155532  0.49097165  0.18245484  1  -1.187042  0  -0.376717  -0.669674  0  2.345497  0
O  O189  1  0.50927306  0.93477013  0.81750274  1  -1.184057  0  -0.376439  -0.668055  0  2.344287  0
O  O190  1  0.93478535  0.73844196  0.81749645  1  -1.206785  0  -0.376726  -0.669198  0  2.345145  0
O  O191  1  0.73844402  0.50902883  0.81754551  1  -1.18702  0  -0.376809  -0.669785  0  2.345521  0
O  O192  1  0.33659562  0.14352129  0.45459764  1  -1.194361  0  -0.379381  -0.662289  0  2.331887  0
O  O193  1  0.14375435  0.06512673  0.45461403  1  -1.193514  0  -0.379545  -0.663171  0  2.335197  0
O  O194  1  0.06516786  0.33643985  0.45467379  1  -1.201939  0  -0.379366  -0.662546  0  2.334663  0
O  O195  1  0.66340446  0.85648098  0.54540161  1  -1.19439  0  -0.379423  -0.662326  0  2.331815  0
O  O196  1  0.85624719  0.93487296  0.54538458  1  -1.193477  0  -0.379531  -0.66316  0  2.335143  0
O  O197  1  0.93483222  0.66356037  0.54532805  1  -1.201866  0  -0.379324  -0.662526  0  2.334679  0
O  O198  1  0.59621067  0.15762495  0.17110809  1  -1.232998  0  -0.616032  -0.813507  0  1.934709  0
O  O199  1  0.15754118  0.07511507  0.17110251  1  -1.264673  0  -0.615852  -0.813343  0  1.935305  0
O  O200  1  0.07523861  0.59589429  0.17106013  1  -1.243433  0  -0.615569  -0.812621  0  1.937419  0
O  O201  1  0.40378720  0.84237606  0.82889098  1  -1.232988  0  -0.616092  -0.813528  0  1.934638  0
O  O202  1  0.84245964  0.92488488  0.82889687  1  -1.265223  0  -0.615872  -0.813363  0  1.935303  0
O  O203  1  0.92476294  0.40410472  0.82893991  1  -1.243373  0  -0.615617  -0.812704  0  1.937318  0
O  O204  1  0.46606507  0.15787217  0.32986032  1  -1.218531  0  -0.384683  -0.678642  0  2.289922  0
O  O205  1  0.15785462  0.04627696  0.32985836  1  -1.200521  0  -0.384915  -0.678712  0  2.289112  0
O  O206  1  0.04638437  0.46597969  0.32992927  1  -1.215282  0  -0.384973  -0.678973  0  2.289201  0
O  O207  1  0.53393574  0.84212915  0.67013903  1  -1.218566  0  -0.384646  -0.678625  0  2.289989  0
O  O208  1  0.84214766  0.95372110  0.67014121  1  -1.200446  0  -0.384932  -0.678773  0  2.289116  0
O  O209  1  0.95361571  0.53401916  0.67007205  1  -1.215319  0  -0.384948  -0.67896  0  2.289246  0
O  O210  1  0.14361691  0.14350699  0.56963119  1  -1.292272  0  -0.823044  -1.125091  0  1.740099  0
O  O211  1  0.85639198  0.85648458  0.43036776  1  -1.292326  0  -0.823018  -1.125024  0  1.740188  0
