# generated using pymatgen
data_V2CdH7C5N5O7
_symmetry_space_group_name_H-M   'P 1'
_cell_length_a   7.57170448
_cell_length_b   7.91506431
_cell_length_c   10.17683399
_cell_angle_alpha   98.28964010
_cell_angle_beta   95.28674153
_cell_angle_gamma   99.39711557
_symmetry_Int_Tables_number   1
_chemical_formula_structural   V2CdH7C5N5O7
_chemical_formula_sum   'V4 Cd2 H14 C10 N10 O14'
_cell_volume   591.23669694
_cell_formula_units_Z   2
loop_
 _symmetry_equiv_pos_site_id
 _symmetry_equiv_pos_as_xyz
  1  'x, y, z'
loop_
 _atom_site_type_symbol
 _atom_site_label
 _atom_site_symmetry_multiplicity
 _atom_site_fract_x
 _atom_site_fract_y
 _atom_site_fract_z
 _atom_site_occupancy
 _atom_site_hle17_bader_spin_density
 _atom_site_hle17_ddec_charge
 _atom_site_hle17_ddec_spin_density
 _atom_site_hle17_ddec_sum_bond_order
 _atom_site_hle17_magmom
 _atom_site_hse06_10hf_bader_spin_density
 _atom_site_hse06_10hf_ddec_charge
 _atom_site_hse06_10hf_ddec_spin_density
 _atom_site_hse06_10hf_ddec_sum_bond_order
 _atom_site_hse06_10hf_magmom
 _atom_site_hse06_bader_spin_density
 _atom_site_hse06_ddec_charge
 _atom_site_hse06_ddec_spin_density
 _atom_site_hse06_ddec_sum_bond_order
 _atom_site_hse06_magmom
 _atom_site_pbe_bader_spin_density
 _atom_site_pbe_cm5_charge
 _atom_site_pbe_ddec_charge
 _atom_site_pbe_ddec_spin_density
 _atom_site_pbe_ddec_sum_bond_order
 _atom_site_pbe_magmom
V  V0  1  0.79464483  0.58981158  0.33033797  1  0  1.993417  0  3.032981  0  0  2.053097  0  3.419112  0  0  2.145788  0  3.400218  0  0  1.448235  1.973259  0  3.464347  0
V  V1  1  0.20535610  0.41019005  0.66966331  1  0  1.993553  0  3.032885  0  0  2.05317  0  3.419104  0  0  2.145933  0  3.400106  0  0  1.448304  1.973357  0  3.464307  0
V  V2  1  0.22631292  0.63790886  0.42255569  1  0  1.974106  0  3.05853  0  0  2.028646  0  3.471849  0  0  2.129923  0  3.43238  0  0  1.431608  1.947107  0  3.520855  0
V  V3  1  0.77368644  0.36209148  0.57744533  1  0  1.974091  0  3.058566  0  0  2.028697  0  3.471803  0  0  2.129922  0  3.432399  0  0  1.431618  1.947152  0  3.520817  0
Cd  Cd4  1  0.50000128  0.50000187  0.00000065  1  0  1.225433  0  1.639712  0  0  1.064725  0  2.084084  0  0  1.119776  0  2.028291  0  0  0.770556  1.025143  0  2.121394  0
Cd  Cd5  1  0.00000089  0.00000088  0.49999984  1  0  1.212449  0  1.854551  0  0  1.064916  0  2.337661  0  0  1.117294  0  2.28244  0  0  0.792459  1.027499  0  2.373003  0
H  H6  1  0.94357647  0.61719187  0.08470936  1  0  0.060352  0  0.960459  0  0  0.066681  0  1.033655  0  0  0.069019  0  1.029629  0  0  0.125471  0.065014  0  1.036589  0
H  H7  1  0.05642265  0.38280718  0.91528954  1  0  0.060336  0  0.960457  0  0  0.066674  0  1.033649  0  0  0.06901  0  1.029625  0  0  0.125463  0.065009  0  1.036583  0
H  H8  1  0.58444072  0.88495144  0.56925560  1  0  0.106197  0  0.918074  0  0  0.117104  0  0.976152  0  0  0.119425  0  0.972794  0  0  0.150643  0.115336  0  0.97885  0
H  H9  1  0.41556214  0.11504631  0.43074143  1  0  0.106158  0  0.918149  0  0  0.117071  0  0.976218  0  0  0.119391  0  0.972862  0  0  0.150659  0.115304  0  0.978916  0
H  H10  1  0.70943815  0.23366804  0.94965292  1  0  0.382522  0  0.93957  0  0  0.341196  0  1.020963  0  0  0.352899  0  1.004554  0  0  0.27306  0.332961  0  1.032477  0
H  H11  1  0.29056360  0.76633098  0.05035009  1  0  0.382568  0  0.939505  0  0  0.341247  0  1.020892  0  0  0.352952  0  1.00448  0  0  0.273085  0.33301  0  1.032407  0
H  H12  1  0.58776743  0.24731130  0.81516192  1  0  0.433265  0  0.868301  0  0  0.410009  0  0.920193  0  0  0.42169  0  0.903249  0  0  0.282615  0.401692  0  0.932203  0
H  H13  1  0.41222902  0.75268774  0.18484170  1  0  0.433253  0  0.868335  0  0  0.410003  0  0.920204  0  0  0.421683  0  0.903265  0  0  0.282624  0.401685  0  0.932216  0
H  H14  1  0.22802832  0.04169732  0.77016554  1  0  0.359949  0  0.904576  0  0  0.347071  0  0.955442  0  0  0.355959  0  0.947718  0  0  0.301406  0.340727  0  0.961077  0
H  H15  1  0.77197130  0.95830433  0.22983368  1  0  0.359996  0  0.904508  0  0  0.347118  0  0.955378  0  0  0.356006  0  0.947653  0  0  0.301424  0.340773  0  0.961016  0
H  H16  1  0.34234904  0.97820639  0.90573284  1  0  0.337619  0  0.871517  0  0  0.323179  0  0.930449  0  0  0.330504  0  0.924567  0  0  0.315125  0.317942  0  0.93479  0
H  H17  1  0.65765032  0.02179395  0.09426818  1  0  0.337618  0  0.871511  0  0  0.323184  0  0.930441  0  0  0.330509  0  0.924558  0  0  0.315128  0.317947  0  0.934782  0
H  H18  1  0.48304676  0.69589650  0.74863440  1  0  0.329913  0  0.910916  0  0  0.308345  0  0.97748  0  0  0.317775  0  0.969581  0  0  0.31708  0.301914  0  0.982463  0
H  H19  1  0.51695502  0.30410255  0.25136369  1  0  0.329891  0  0.910915  0  0  0.308323  0  0.977483  0  0  0.317752  0  0.969584  0  0  0.317076  0.301889  0  0.98247  0
C  C20  1  0.75798949  0.75295058  0.83070569  1  0  0.347701  0  3.81094  0  0  0.310296  0  4.075787  0  0  0.325865  0  4.093096  0  0  0.223837  0.29995  0  4.06407  0
C  C21  1  0.24201170  0.24705235  0.16929576  1  0  0.347738  0  3.810994  0  0  0.310253  0  4.075931  0  0  0.325823  0  4.093242  0  0  0.223849  0.299905  0  4.064213  0
C  C22  1  0.92941182  0.68470582  0.99927457  1  0  0.323002  0  3.753824  0  0  0.264391  0  4.038149  0  0  0.283944  0  4.047987  0  0  0.173532  0.251276  0  4.031775  0
C  C23  1  0.07058622  0.31529453  0.00072537  1  0  0.323036  0  3.753788  0  0  0.264409  0  4.038106  0  0  0.283958  0  4.047945  0  0  0.173539  0.251293  0  4.031733  0
C  C24  1  0.07696187  0.86440314  0.86401351  1  0  0.484735  0  3.815  0  0  0.443741  0  4.088448  0  0  0.467064  0  4.098327  0  0  0.254617  0.428325  0  4.081429  0
C  C25  1  0.92303618  0.13559722  0.13598448  1  0  0.484791  0  3.814895  0  0  0.443744  0  4.088409  0  0  0.467064  0  4.09829  0  0  0.254622  0.428327  0  4.081389  0
C  C26  1  0.90733536  0.84876852  0.78685510  1  0  -0.041581  0  3.768211  0  0  -0.034928  0  4.012341  0  0  -0.041726  0  4.034719  0  0  0.086822  -0.031067  0  3.997848  0
C  C27  1  0.09266716  0.15123441  0.21314349  1  0  -0.041569  0  3.76832  0  0  -0.034849  0  4.012432  0  0  -0.041659  0  4.034829  0  0  0.086879  -0.030987  0  3.997935  0
C  C28  1  0.67181275  0.85990016  0.65215860  1  0  0.294622  0  3.609847  0  0  0.231105  0  3.884838  0  0  0.249329  0  3.892694  0  0  0.178357  0.219018  0  3.879631  0
C  C29  1  0.32818770  0.14009889  0.34783941  1  0  0.294704  0  3.6099  0  0  0.231187  0  3.884878  0  0  0.249411  0  3.892732  0  0  0.178404  0.219097  0  3.879676  0
N  N30  1  0.84948407  0.91386087  0.67405640  1  0  -0.413673  0  3.171532  0  0  -0.35089  0  3.449779  0  0  -0.371641  0  3.464959  0  0  -0.343079  -0.336232  0  3.439259  0
N  N31  1  0.15051531  0.08613949  0.32594070  1  0  -0.413766  0  3.171618  0  0  -0.350993  0  3.449863  0  0  -0.371739  0  3.465044  0  0  -0.343144  -0.336334  0  3.439339  0
N  N32  1  0.76233684  0.66722851  0.93619057  1  0  -0.479502  0  3.172505  0  0  -0.413253  0  3.458566  0  0  -0.438272  0  3.471367  0  0  -0.341466  -0.39613  0  3.449696  0
N  N33  1  0.23766386  0.33277183  0.06380858  1  0  -0.479511  0  3.172437  0  0  -0.413236  0  3.458526  0  0  -0.438256  0  3.471328  0  0  -0.341464  -0.396113  0  3.449657  0
N  N34  1  0.08067640  0.77660885  0.96992492  1  0  -0.472715  0  3.075774  0  0  -0.40923  0  3.334496  0  0  -0.431909  0  3.344916  0  0  -0.322935  -0.393965  0  3.327394  0
N  N35  1  0.91932082  0.22339411  0.03007330  1  0  -0.472796  0  3.075757  0  0  -0.409273  0  3.334479  0  0  -0.43194  0  3.34489  0  0  -0.322955  -0.394008  0  3.327379  0
N  N36  1  0.22912753  0.95956418  0.83995787  1  0  -0.617615  0  3.082055  0  0  -0.577762  0  3.307603  0  0  -0.600034  0  3.304104  0  0  -0.551418  -0.562613  0  3.310175  0
N  N37  1  0.77087523  0.04044005  0.16004285  1  0  -0.61762  0  3.08202  0  0  -0.57777  0  3.307597  0  0  -0.600041  0  3.3041  0  0  -0.55142  -0.562622  0  3.310168  0
N  N38  1  0.61097306  0.76470410  0.74528937  1  0  -0.357999  0  3.333703  0  0  -0.291265  0  3.565861  0  0  -0.31004  0  3.573261  0  0  -0.364198  -0.278528  0  3.560547  0
N  N39  1  0.38902846  0.23529365  0.25470954  1  0  -0.358001  0  3.333691  0  0  -0.291248  0  3.565871  0  0  -0.31002  0  3.57327  0  0  -0.36424  -0.278511  0  3.560558  0
O  O40  1  0.19651124  0.81193953  0.52542303  1  0  -0.893208  0  1.45635  0  0  -0.893883  0  1.760916  0  0  -0.932988  0  1.7483  0  0  -0.62776  -0.863398  0  1.770745  0
O  O41  1  0.80348390  0.18805954  0.47457656  1  0  -0.893167  0  1.456323  0  0  -0.893871  0  1.760879  0  0  -0.932957  0  1.748276  0  0  -0.627733  -0.863382  0  1.770711  0
O  O42  1  0.39052284  0.69226414  0.33324982  1  0  -0.816486  0  1.356184  0  0  -0.824333  0  1.612693  0  0  -0.857997  0  1.601563  0  0  -0.604622  -0.797915  0  1.623095  0
O  O43  1  0.60947710  0.30773230  0.66675080  1  0  -0.816487  0  1.35617  0  0  -0.82435  0  1.612664  0  0  -0.858001  0  1.601546  0  0  -0.604646  -0.79793  0  1.623071  0
O  O44  1  0.01862264  0.55161694  0.31355126  1  0  -0.996992  0  1.612038  0  0  -1.025565  0  1.927428  0  0  -1.073721  0  1.925176  0  0  -0.687588  -0.984855  0  1.932226  0
O  O45  1  0.98137780  0.44838209  0.68645067  1  0  -0.997055  0  1.612067  0  0  -1.025578  0  1.927354  0  0  -1.073738  0  1.925094  0  0  -0.687621  -0.984875  0  1.932155  0
O  O46  1  0.79996618  0.80223577  0.33644248  1  0  -0.862134  0  1.492444  0  0  -0.847135  0  1.770973  0  0  -0.881798  0  1.759789  0  0  -0.606936  -0.819759  0  1.782641  0
O  O47  1  0.20003161  0.19776327  0.66355927  1  0  -0.86217  0  1.492481  0  0  -0.847171  0  1.771044  0  0  -0.881855  0  1.759837  0  0  -0.606957  -0.819801  0  1.782709  0
O  O48  1  0.72324937  0.52610839  0.48038586  1  0  -0.97532  0  1.603854  0  0  -1.002878  0  1.922547  0  0  -1.049446  0  1.91783  0  0  -0.686629  -0.963363  0  1.929286  0
O  O49  1  0.27674975  0.47389066  0.51961401  1  0  -0.975306  0  1.603775  0  0  -1.002797  0  1.92243  0  0  -1.049395  0  1.917691  0  0  -0.686611  -0.963292  0  1.92917  0
O  O50  1  0.66173079  0.47195735  0.19649598  1  0  -0.881411  0  1.496328  0  0  -0.865326  0  1.787284  0  0  -0.901113  0  1.774523  0  0  -0.618371  -0.836522  0  1.798598  0
O  O51  1  0.33826700  0.52804169  0.80350576  1  0  -0.881466  0  1.496334  0  0  -0.86538  0  1.787324  0  0  -0.901188  0  1.774547  0  0  -0.618387  -0.836583  0  1.798636  0
O  O52  1  0.58154063  0.23429784  0.91127802  1  0  -0.837722  0  1.837783  0  0  -0.773301  0  2.026097  0  0  -0.797084  0  1.991049  0  0  -0.588942  -0.756556  0  2.050563  0
O  O53  1  0.41845980  0.76570119  0.08872489  1  0  -0.837748  0  1.837819  0  0  -0.773317  0  2.02613  0  0  -0.797108  0  1.991097  0  0  -0.588976  -0.756569  0  2.050602  0
