# generated using pymatgen
data_Zn2H17C19NO9
_symmetry_space_group_name_H-M   'P 1'
_cell_length_a   7.70830666
_cell_length_b   10.86892184
_cell_length_c   12.47074612
_cell_angle_alpha   107.94721398
_cell_angle_beta   91.54340423
_cell_angle_gamma   101.25183444
_symmetry_Int_Tables_number   1
_chemical_formula_structural   Zn2H17C19NO9
_chemical_formula_sum   'Zn4 H34 C38 N2 O18'
_cell_volume   970.61376050
_cell_formula_units_Z   2
loop_
 _symmetry_equiv_pos_site_id
 _symmetry_equiv_pos_as_xyz
  1  'x, y, z'
loop_
 _atom_site_type_symbol
 _atom_site_label
 _atom_site_symmetry_multiplicity
 _atom_site_fract_x
 _atom_site_fract_y
 _atom_site_fract_z
 _atom_site_occupancy
 _atom_site_hle17_bader_spin_density
 _atom_site_hle17_ddec_charge
 _atom_site_hle17_ddec_spin_density
 _atom_site_hle17_ddec_sum_bond_order
 _atom_site_hle17_magmom
 _atom_site_hse06_10hf_bader_spin_density
 _atom_site_hse06_10hf_ddec_charge
 _atom_site_hse06_10hf_ddec_spin_density
 _atom_site_hse06_10hf_ddec_sum_bond_order
 _atom_site_hse06_10hf_magmom
 _atom_site_hse06_bader_spin_density
 _atom_site_hse06_ddec_charge
 _atom_site_hse06_ddec_spin_density
 _atom_site_hse06_ddec_sum_bond_order
 _atom_site_hse06_magmom
 _atom_site_pbe_bader_spin_density
 _atom_site_pbe_cm5_charge
 _atom_site_pbe_ddec_charge
 _atom_site_pbe_ddec_spin_density
 _atom_site_pbe_ddec_sum_bond_order
 _atom_site_pbe_magmom
Zn  Zn0  1  0.14728819  0.50169693  0.10419953  1  0  1.19324  0  1.745782  0  0  1.036665  0  2.195533  0  0  1.084608  0  2.134201  0  0  0.674307  1.002324  0  2.238083  0
Zn  Zn1  1  0.85271219  0.49829990  0.89579892  1  0  1.193234  0  1.745709  0  0  1.036699  0  2.195418  0  0  1.084639  0  2.134092  0  0  0.674313  1.002358  0  2.237963  0
Zn  Zn2  1  0.51077515  0.65096907  0.04043448  1  0  1.192757  0  1.743324  0  0  1.033841  0  2.208207  0  0  1.083013  0  2.142055  0  0  0.66559  0.998783  0  2.254427  0
Zn  Zn3  1  0.48922452  0.34902972  0.95956531  1  0  1.192787  0  1.743324  0  0  1.033878  0  2.208205  0  0  1.083045  0  2.142055  0  0  0.665598  0.998818  0  2.254428  0
H  H4  1  0.25245547  0.47884209  0.91352308  1  0  0.422041  0  0.881477  0  0  0.390848  0  0.946853  0  0  0.401297  0  0.931761  0  0  0.286897  0.383293  0  0.957777  0
H  H5  1  0.74754262  0.52115572  0.08647642  1  0  0.422026  0  0.88151  0  0  0.390839  0  0.94689  0  0  0.401288  0  0.931801  0  0  0.286879  0.383281  0  0.957819  0
H  H6  1  0.78075810  0.80427365  0.38748363  1  0  0.098016  0  0.947971  0  0  0.109454  0  1.007595  0  0  0.112866  0  1.005408  0  0  0.101096  0.107004  0  1.009256  0
H  H7  1  0.21923868  0.19572417  0.61251505  1  0  0.098057  0  0.947963  0  0  0.109502  0  1.007572  0  0  0.112913  0  1.00539  0  0  0.101108  0.107051  0  1.009231  0
H  H8  1  0.85762161  0.93423475  0.59329547  1  0  0.093466  0  0.942701  0  0  0.104737  0  0.998609  0  0  0.107626  0  0.997629  0  0  0.100863  0.102709  0  0.99929  0
H  H9  1  0.14237730  0.06576607  0.40670167  1  0  0.093436  0  0.942687  0  0  0.104704  0  0.998599  0  0  0.107591  0  0.99762  0  0  0.100844  0.102677  0  0.999277  0
H  H10  1  0.62131575  0.98399257  0.71880571  1  0  0.105449  0  0.988911  0  0  0.113241  0  1.057514  0  0  0.115609  0  1.057739  0  0  0.101439  0.111608  0  1.057319  0
H  H11  1  0.37868477  0.01600922  0.28119332  1  0  0.105454  0  0.988895  0  0  0.113241  0  1.057513  0  0  0.115611  0  1.05773  0  0  0.101442  0.111611  0  1.057307  0
H  H12  1  0.22570172  0.76755642  0.43859591  1  0  0.110236  0  0.953691  0  0  0.119926  0  1.017198  0  0  0.124039  0  1.013527  0  0  0.10382  0.116848  0  1.020115  0
H  H13  1  0.77429619  0.23244538  0.56140229  1  0  0.110279  0  0.953685  0  0  0.119916  0  1.017244  0  0  0.124064  0  1.013535  0  0  0.103823  0.116839  0  1.020164  0
H  H14  1  0.37656623  0.08047761  0.76812526  1  0  0.075903  0  0.959761  0  0  0.084406  0  1.029145  0  0  0.085099  0  1.028586  0  0  0.104204  0.083855  0  1.029676  0
H  H15  1  0.62343114  0.91952217  0.23187558  1  0  0.075864  0  0.959813  0  0  0.084402  0  1.029153  0  0  0.085093  0  1.028602  0  0  0.104204  0.083845  0  1.029687  0
H  H16  1  0.38004018  0.93908664  0.81200603  1  0  0.067265  0  0.908858  0  0  0.082414  0  0.968082  0  0  0.082854  0  0.96696  0  0  0.105624  0.081992  0  0.969133  0
H  H17  1  0.61995948  0.06091216  0.18799297  1  0  0.067297  0  0.908849  0  0  0.082452  0  0.968064  0  0  0.082892  0  0.966943  0  0  0.105645  0.082031  0  0.969111  0
H  H18  1  0.06828326  0.78448204  0.80269956  1  0  0.108726  0  0.939833  0  0  0.11775  0  1.002143  0  0  0.121751  0  0.998916  0  0  0.105769  0.114808  0  1.004525  0
H  H19  1  0.93171556  0.21551375  0.19730180  1  0  0.108775  0  0.939801  0  0  0.117799  0  1.002109  0  0  0.1218  0  0.998881  0  0  0.105797  0.114851  0  1.004494  0
H  H20  1  0.67689730  0.00307434  0.94617305  1  0  0.112418  0  0.938846  0  0  0.120217  0  1.003737  0  0  0.124396  0  0.99979  0  0  0.109442  0.117121  0  1.006837  0
H  H21  1  0.32310526  0.99692542  0.05382865  1  0  0.112424  0  0.938846  0  0  0.12022  0  1.003729  0  0  0.124405  0  0.999775  0  0  0.109449  0.117122  0  1.006835  0
H  H22  1  0.14121325  0.19729191  0.83095860  1  0  0.113194  0  0.956342  0  0  0.120108  0  1.025139  0  0  0.124093  0  1.02158  0  0  0.106707  0.117176  0  1.027783  0
H  H23  1  0.85879105  0.80270487  0.16904229  1  0  0.113171  0  0.956428  0  0  0.12005  0  1.02527  0  0  0.124033  0  1.021716  0  0  0.106694  0.117113  0  1.027918  0
H  H24  1  0.02927207  0.57881051  0.34611312  1  0  0.04552  0  0.94851  0  0  0.052868  0  1.022562  0  0  0.055085  0  1.016487  0  0  0.123863  0.051102  0  1.026986  0
H  H25  1  0.97073017  0.42118832  0.65388351  1  0  0.04551  0  0.94853  0  0  0.052892  0  1.022541  0  0  0.055107  0  1.016473  0  0  0.12388  0.051122  0  1.026967  0
H  H26  1  0.50025842  0.46304163  0.29371699  1  0  0.107543  0  0.939928  0  0  0.128231  0  1.000696  0  0  0.128128  0  1.001589  0  0  0.104993  0.128134  0  1.000225  0
H  H27  1  0.49974267  0.53696214  0.70628260  1  0  0.107546  0  0.939918  0  0  0.128243  0  1.000683  0  0  0.12814  0  1.001576  0  0  0.105011  0.128149  0  1.000204  0
H  H28  1  0.55502623  0.32864025  0.33159384  1  0  0.098276  0  0.947887  0  0  0.11864  0  1.011279  0  0  0.11856  0  1.012573  0  0  0.103587  0.118467  0  1.010684  0
H  H29  1  0.44497358  0.67136350  0.66840733  1  0  0.098311  0  0.947911  0  0  0.118688  0  1.011279  0  0  0.118609  0  1.012571  0  0  0.103592  0.118513  0  1.01069  0
H  H30  1  0.62031261  0.35526922  0.20241863  1  0  0.120373  0  0.943691  0  0  0.136065  0  1.009953  0  0  0.138032  0  1.008082  0  0  0.11306  0.134492  0  1.011485  0
H  H31  1  0.37968792  0.64473255  0.79758199  1  0  0.120409  0  0.943717  0  0  0.136108  0  1.009969  0  0  0.138076  0  1.008097  0  0  0.113082  0.134534  0  1.011504  0
H  H32  1  0.91361910  0.59772249  0.50659128  1  0  0.104815  0  0.933978  0  0  0.125973  0  0.994754  0  0  0.126485  0  0.994914  0  0  0.112131  0.125448  0  0.994796  0
H  H33  1  0.08638429  0.40228028  0.49340806  1  0  0.104792  0  0.933957  0  0  0.125945  0  0.994743  0  0  0.126458  0  0.994901  0  0  0.112112  0.125421  0  0.994781  0
H  H34  1  0.75227697  0.45426162  0.50722544  1  0  0.099069  0  0.947811  0  0  0.115687  0  1.017232  0  0  0.116253  0  1.017418  0  0  0.101928  0.115021  0  1.017464  0
H  H35  1  0.24772671  0.54574214  0.49277418  1  0  0.09901  0  0.947844  0  0  0.11562  0  1.017288  0  0  0.116186  0  1.017473  0  0  0.101914  0.114954  0  1.017524  0
H  H36  1  0.68388895  0.59991795  0.50003857  1  0  0.102781  0  0.944934  0  0  0.122431  0  1.007242  0  0  0.122541  0  1.008915  0  0  0.103839  0.122138  0  1.006351  0
H  H37  1  0.31611444  0.40008483  0.49995997  1  0  0.102758  0  0.944978  0  0  0.122419  0  1.007271  0  0  0.122527  0  1.00895  0  0  0.103847  0.12213  0  1.006373  0
C  C38  1  0.44546302  0.69703439  0.27931750  1  0  0.66634  0  3.888811  0  0  0.61361  0  4.182403  0  0  0.648958  0  4.173569  0  0  0.214409  0.589596  0  4.187768  0
C  C39  1  0.55453462  0.30296641  0.72068123  1  0  0.666469  0  3.888797  0  0  0.613745  0  4.182363  0  0  0.649094  0  4.173525  0  0  0.214488  0.589724  0  4.18774  0
C  C40  1  0.49820097  0.77476173  0.40149616  1  0  -0.062344  0  3.806355  0  0  -0.039377  0  4.044823  0  0  -0.045794  0  4.067879  0  0  -0.026539  -0.035205  0  4.029576  0
C  C41  1  0.50179565  0.22524007  0.59850203  1  0  -0.062307  0  3.806397  0  0  -0.039346  0  4.044865  0  0  -0.045761  0  4.067927  0  0  -0.026518  -0.035178  0  4.029625  0
C  C42  1  0.67734110  0.82361681  0.44433907  1  0  -0.102201  0  3.761468  0  0  -0.133353  0  4.019778  0  0  -0.133853  0  4.039169  0  0  -0.101768  -0.132982  0  4.00699  0
C  C43  1  0.32265595  0.17638202  0.55565830  1  0  -0.102379  0  3.761539  0  0  -0.133542  0  4.019875  0  0  -0.134041  0  4.039258  0  0  -0.101833  -0.133168  0  4.007084  0
C  C44  1  0.71902374  0.89671632  0.55856789  1  0  -0.045167  0  3.778012  0  0  -0.054521  0  4.028951  0  0  -0.055147  0  4.048798  0  0  -0.0914  -0.05392  0  4.01546  0
C  C45  1  0.28097461  0.10328250  0.44143029  1  0  -0.045073  0  3.778056  0  0  -0.054419  0  4.028992  0  0  -0.055043  0  4.04884  0  0  -0.091351  -0.053818  0  4.015495  0
C  C46  1  0.58535218  0.92445127  0.63048369  1  0  -0.19346  0  3.737152  0  0  -0.217455  0  3.989981  0  0  -0.222153  0  4.010885  0  0  -0.105597  -0.21408  0  3.975888  0
C  C47  1  0.41464489  0.07554754  0.36951528  1  0  -0.193427  0  3.737286  0  0  -0.217446  0  3.990109  0  0  -0.222141  0  4.011008  0  0  -0.105596  -0.214072  0  3.976006  0
C  C48  1  0.40671535  0.87662733  0.58685108  1  0  0.26653  0  3.842233  0  0  0.261333  0  4.101987  0  0  0.271526  0  4.118588  0  0  0.079462  0.254132  0  4.091115  0
C  C49  1  0.59328201  0.12337247  0.41314816  1  0  0.266485  0  3.842242  0  0  0.261352  0  4.101906  0  0  0.271545  0  4.118512  0  0  0.079471  0.254151  0  4.091032  0
C  C50  1  0.36440279  0.80128097  0.47273040  1  0  -0.190501  0  3.745557  0  0  -0.223171  0  3.998946  0  0  -0.226087  0  4.017057  0  0  -0.101739  -0.221197  0  3.987421  0
C  C51  1  0.63559383  0.19872083  0.52726779  1  0  -0.190554  0  3.745658  0  0  -0.223195  0  3.999036  0  0  -0.226138  0  4.017122  0  0  -0.101763  -0.221221  0  3.987519  0
C  C52  1  0.30071127  0.98248768  0.76419209  1  0  0.049583  0  3.624985  0  0  -0.012783  0  3.887149  0  0  -0.003832  0  3.890604  0  0  -0.063425  -0.018863  0  3.884766  0
C  C53  1  0.69928711  0.01751112  0.23580769  1  0  0.049519  0  3.624935  0  0  -0.012877  0  3.887149  0  0  -0.003929  0  3.890606  0  0  -0.06344  -0.018957  0  3.884764  0
C  C54  1  0.12476242  0.99020487  0.81103869  1  0  0.059515  0  3.755666  0  0  0.079823  0  4.002685  0  0  0.076583  0  4.025768  0  0  -0.013283  0.081616  0  3.986687  0
C  C55  1  0.87523929  0.00979191  0.18896297  1  0  0.05964  0  3.75571  0  0  0.079959  0  4.002713  0  0  0.076721  0  4.025794  0  0  -0.013246  0.081753  0  3.986707  0
C  C56  1  0.02195193  0.87696413  0.82570963  1  0  -0.084666  0  3.679984  0  0  -0.121872  0  3.930164  0  0  -0.119368  0  3.947655  0  0  -0.074523  -0.122479  0  3.917832  0
C  C57  1  0.97804747  0.12303366  0.17429148  1  0  -0.08477  0  3.680079  0  0  -0.121989  0  3.930239  0  0  -0.119485  0  3.94773  0  0  -0.074577  -0.122593  0  3.917899  0
C  C58  1  0.86037096  0.88033135  0.87376567  1  0  -0.07666  0  3.77585  0  0  -0.050343  0  4.010802  0  0  -0.060999  0  4.036105  0  0  -0.019914  -0.043661  0  3.994187  0
C  C59  1  0.13962974  0.11966642  0.12623626  1  0  -0.076673  0  3.775885  0  0  -0.050295  0  4.010787  0  0  -0.06095  0  4.036091  0  0  -0.019899  -0.043611  0  3.994166  0
C  C60  1  0.80094746  0.99867996  0.90688954  1  0  -0.06231  0  3.700514  0  0  -0.100192  0  3.951581  0  0  -0.0969  0  3.970341  0  0  -0.072971  -0.102744  0  3.939674  0
C  C61  1  0.19905324  0.00131781  0.09311239  1  0  -0.062325  0  3.7006  0  0  -0.100205  0  3.951639  0  0  -0.096917  0  3.970396  0  0  -0.072965  -0.10276  0  3.939734  0
C  C62  1  0.90168069  0.11275658  0.89088954  1  0  -0.076978  0  3.754551  0  0  -0.050255  0  3.99005  0  0  -0.06102  0  4.014812  0  0  -0.020745  -0.043372  0  3.973714  0
C  C63  1  0.09832029  0.88724221  0.10911106  1  0  -0.07693  0  3.754544  0  0  -0.050192  0  3.990019  0  0  -0.060957  0  4.01478  0  0  -0.020739  -0.04331  0  3.973676  0
C  C64  1  0.06318412  0.10803220  0.84255421  1  0  -0.086347  0  3.660675  0  0  -0.122618  0  3.908501  0  0  -0.120748  0  3.927263  0  0  -0.074109  -0.122841  0  3.895309  0
C  C65  1  0.93681500  0.89196458  0.15744742  1  0  -0.086406  0  3.660746  0  0  -0.122667  0  3.908606  0  0  -0.120795  0  3.927365  0  0  -0.074132  -0.122892  0  3.895413  0
C  C66  1  0.83224194  0.23763915  0.92463559  1  0  0.681211  0  3.852907  0  0  0.628434  0  4.140955  0  0  0.663893  0  4.133642  0  0  0.218567  0.603851  0  4.145765  0
C  C67  1  0.16776032  0.76235964  0.07536423  1  0  0.681165  0  3.852906  0  0  0.628384  0  4.140952  0  0  0.663845  0  4.133635  0  0  0.218513  0.603808  0  4.14576  0
C  C68  1  0.76237620  0.75803511  0.89493259  1  0  0.67782  0  3.881403  0  0  0.626749  0  4.169744  0  0  0.661984  0  4.162798  0  0  0.221048  0.602679  0  4.173742  0
C  C69  1  0.23762350  0.24196364  0.10507040  1  0  0.677873  0  3.881392  0  0  0.626719  0  4.169835  0  0  0.661954  0  4.162889  0  0  0.221036  0.602645  0  4.173838  0
C  C70  1  0.90658813  0.51928029  0.29311892  1  0  0.40392  0  3.768961  0  0  0.326028  0  4.051962  0  0  0.354888  0  4.052022  0  0  0.18398  0.306777  0  4.051264  0
C  C71  1  0.09341370  0.48072147  0.70688173  1  0  0.403852  0  3.76891  0  0  0.325926  0  4.051906  0  0  0.35478  0  4.051969  0  0  0.183971  0.306686  0  4.051198  0
C  C72  1  0.60148547  0.40389135  0.29088214  1  0  -0.167375  0  3.616629  0  0  -0.264969  0  3.858253  0  0  -0.260851  0  3.867865  0  0  -0.134203  -0.267336  0  3.851788  0
C  C73  1  0.39851433  0.59611241  0.70911824  1  0  -0.167525  0  3.616714  0  0  -0.265171  0  3.858336  0  0  -0.261055  0  3.867948  0  0  -0.134287  -0.267538  0  3.851874  0
C  C74  1  0.78075218  0.53715352  0.47285737  1  0  -0.176718  0  3.664147  0  0  -0.277405  0  3.912321  0  0  -0.274327  0  3.924283  0  0  -0.12833  -0.279049  0  3.904346  0
C  C75  1  0.21925122  0.46284926  0.52714196  1  0  -0.176611  0  3.664142  0  0  -0.27731  0  3.912278  0  0  -0.274232  0  3.924239  0  0  -0.128297  -0.278955  0  3.904303  0
N  N76  1  0.76997910  0.48684800  0.34975431  1  0  -0.080768  0  3.504628  0  0  0.021725  0  3.742361  0  0  0.001014  0  3.768448  0  0  -0.275331  0.035554  0  3.724074  0
N  N77  1  0.23002300  0.51315477  0.65024502  1  0  -0.080685  0  3.504427  0  0  0.021876  0  3.742097  0  0  0.001167  0  3.768185  0  0  -0.275314  0.035696  0  3.723819  0
O  O78  1  0.32007443  0.48261207  0.98289947  1  0  -1.008757  0  1.988298  0  0  -0.910499  0  2.296939  0  0  -0.944058  0  2.253055  0  0  -0.57105  -0.886855  0  2.327366  0
O  O79  1  0.67992625  0.51738574  0.01710006  1  0  -1.008725  0  1.988282  0  0  -0.910502  0  2.296887  0  0  -0.944069  0  2.252992  0  0  -0.571038  -0.886857  0  2.327311  0
O  O80  1  0.28371517  0.63725441  0.25233627  1  0  -0.655665  0  2.092151  0  0  -0.589242  0  2.355491  0  0  -0.617374  0  2.34223  0  0  -0.314745  -0.569697  0  2.364028  0
O  O81  1  0.71628217  0.36274540  0.74766217  1  0  -0.655728  0  2.092211  0  0  -0.589298  0  2.355534  0  0  -0.617434  0  2.342279  0  0  -0.31475  -0.569747  0  2.364073  0
O  O82  1  0.56648176  0.69696136  0.21117344  1  0  -0.649984  0  2.060607  0  0  -0.579171  0  2.326252  0  0  -0.606852  0  2.311016  0  0  -0.317473  -0.55979  0  2.336169  0
O  O83  1  0.43351660  0.30303745  0.78882554  1  0  -0.650045  0  2.060561  0  0  -0.579238  0  2.326215  0  0  -0.606914  0  2.310965  0  0  -0.317526  -0.559854  0  2.336139  0
O  O84  1  0.26464692  0.89723655  0.64764491  1  0  -0.300129  0  2.30602  0  0  -0.232948  0  2.539715  0  0  -0.251225  0  2.542152  0  0  -0.188508  -0.219964  0  2.53766  0
O  O85  1  0.73535203  0.10276423  0.35235542  1  0  -0.30008  0  2.305886  0  0  -0.232934  0  2.53959  0  0  -0.251212  0  2.542029  0  0  -0.188527  -0.21995  0  2.537531  0
O  O86  1  0.66692302  0.22289322  0.93362567  1  0  -0.63157  0  2.072055  0  0  -0.567621  0  2.336301  0  0  -0.59542  0  2.323014  0  0  -0.308371  -0.548242  0  2.345097  0
O  O87  1  0.33307666  0.77710556  0.06637492  1  0  -0.631527  0  2.072072  0  0  -0.56759  0  2.336333  0  0  -0.59539  0  2.323048  0  0  -0.308355  -0.548222  0  2.345133  0
O  O88  1  0.94262582  0.34833285  0.93966937  1  0  -0.6851  0  2.104358  0  0  -0.611729  0  2.377262  0  0  -0.640444  0  2.361812  0  0  -0.319969  -0.591226  0  2.387478  0
O  O89  1  0.05737486  0.65166495  0.06033016  1  0  -0.685092  0  2.10429  0  0  -0.611739  0  2.377243  0  0  -0.640461  0  2.361799  0  0  -0.319952  -0.591219  0  2.387409  0
O  O90  1  0.63809706  0.77075592  0.96041211  1  0  -0.643747  0  2.07862  0  0  -0.572708  0  2.350393  0  0  -0.601575  0  2.335313  0  0  -0.312961  -0.552379  0  2.360187  0
O  O91  1  0.36190580  0.22924481  0.03959147  1  0  -0.643807  0  2.078552  0  0  -0.572776  0  2.350389  0  0  -0.601644  0  2.335312  0  0  -0.312999  -0.552447  0  2.360186  0
O  O92  1  0.81200366  0.65136520  0.84533196  1  0  -0.660679  0  2.093539  0  0  -0.595928  0  2.359528  0  0  -0.623991  0  2.346217  0  0  -0.324392  -0.575828  0  2.367938  0
O  O93  1  0.18799574  0.34863258  0.15466995  1  0  -0.660659  0  2.09358  0  0  -0.595846  0  2.359565  0  0  -0.62391  0  2.346255  0  0  -0.324345  -0.57575  0  2.367988  0
O  O94  1  0.90187051  0.48513776  0.18679181  1  0  -0.534891  0  2.134156  0  0  -0.463038  0  2.38952  0  0  -0.489151  0  2.380185  0  0  -0.285265  -0.444805  0  2.395543  0
O  O95  1  0.09812943  0.51486206  0.81320587  1  0  -0.534805  0  2.134168  0  0  -0.463011  0  2.389597  0  0  -0.489122  0  2.380263  0  0  -0.285274  -0.444781  0  2.395608  0
