# generated using pymatgen
data_ZnH24C30(NO2)2
_symmetry_space_group_name_H-M   'P 1'
_cell_length_a   5.33972172
_cell_length_b   12.65440191
_cell_length_c   21.42346293
_cell_angle_alpha   92.02129605
_cell_angle_beta   90.01851623
_cell_angle_gamma   102.15747068
_symmetry_Int_Tables_number   1
_chemical_formula_structural   ZnH24C30(NO2)2
_chemical_formula_sum   'Zn2 H48 C60 N4 O8'
_cell_volume   1414.21328699
_cell_formula_units_Z   2
loop_
 _symmetry_equiv_pos_site_id
 _symmetry_equiv_pos_as_xyz
  1  'x, y, z'
loop_
 _atom_site_type_symbol
 _atom_site_label
 _atom_site_symmetry_multiplicity
 _atom_site_fract_x
 _atom_site_fract_y
 _atom_site_fract_z
 _atom_site_occupancy
 _atom_site_pbe_bader_charge
 _atom_site_pbe_bader_spin_density
 _atom_site_pbe_cm5_charge
 _atom_site_pbe_ddec_charge
 _atom_site_pbe_ddec_spin_density
 _atom_site_pbe_ddec_sum_bond_order
 _atom_site_pbe_magmom
Zn  Zn0  1  0.38270527  0.99993242  0.74999318  1  1.243604  0  0.695709  0.756487  0  2.352216  0
Zn  Zn1  1  0.61727366  0.00006704  0.25000614  1  1.243406  0  0.695748  0.756402  0  2.352346  0
H  H2  1  0.37788338  0.91743279  0.61921402  1  0.148594  0  0.114026  0.084376  0  1.045817  0
H  H3  1  0.46101906  0.08232449  0.88080152  1  0.135548  0  0.114499  0.085122  0  1.047853  0
H  H4  1  0.62212529  0.08255119  0.38079613  1  0.148437  0  0.11409  0.084559  0  1.045776  0
H  H5  1  0.53895722  0.91768470  0.11919617  1  0.135689  0  0.114459  0.085091  0  1.047978  0
H  H6  1  0.08632105  0.79094089  0.54701453  1  0.087247  0  0.107007  0.116242  0  1.011004  0
H  H7  1  0.29664158  0.20888685  0.95307367  1  0.090822  0  0.107044  0.115977  0  1.012904  0
H  H8  1  0.91371142  0.20903825  0.45299410  1  0.087174  0  0.107012  0.11626  0  1.010999  0
H  H9  1  0.70331078  0.79112317  0.04692170  1  0.090712  0  0.107095  0.116083  0  1.012842  0
H  H10  1  0.54353164  0.73224904  0.69889122  1  0.09153  0  0.110232  0.11954  0  0.994664  0
H  H11  1  0.81230581  0.26819044  0.80127017  1  0.097444  0  0.110411  0.119897  0  0.993488  0
H  H12  1  0.45644848  0.26774156  0.30110415  1  0.091567  0  0.110179  0.119518  0  0.994625  0
H  H13  1  0.18763767  0.73180181  0.19872290  1  0.098031  0  0.11044  0.119997  0  0.993431  0
H  H14  1  0.86063546  0.85817379  0.76472119  1  0.165922  0  0.120152  0.103777  0  1.028674  0
H  H15  1  0.00281029  0.14213274  0.73538562  1  0.164731  0  0.119931  0.104086  0  1.027949  0
H  H16  1  0.13932475  0.14182568  0.23527672  1  0.165657  0  0.120182  0.103819  0  1.028683  0
H  H17  1  0.99715125  0.85786191  0.26461031  1  0.164921  0  0.119998  0.104255  0  1.027911  0
H  H18  1  0.68236798  0.67517665  0.52495462  1  0.058899  0  0.103467  0.101036  0  1.013664  0
H  H19  1  0.00886327  0.32519069  0.97521902  1  0.060129  0  0.103139  0.101127  0  1.013174  0
H  H20  1  0.31768609  0.32480827  0.47504341  1  0.058831  0  0.103388  0.101033  0  1.013629  0
H  H21  1  0.99110753  0.67481127  0.02477336  1  0.05991  0  0.103094  0.101099  0  1.013026  0
H  H22  1  0.30451332  0.62490164  0.63393620  1  0.067392  0  0.103693  0.099583  0  1.003068  0
H  H23  1  0.68048097  0.37498669  0.86616140  1  0.066228  0  0.103473  0.098873  0  1.003841  0
H  H24  1  0.69551361  0.37508893  0.36606243  1  0.067366  0  0.103709  0.099502  0  1.003052  0
H  H25  1  0.31948758  0.62502578  0.13383217  1  0.065743  0  0.103522  0.098861  0  1.003955  0
H  H26  1  0.40420584  0.60660012  0.45685295  1  0.074943  0  0.107151  0.110263  0  0.999897  0
H  H27  1  0.79757624  0.39336333  0.04319715  1  0.073214  0  0.107061  0.109953  0  1.000239  0
H  H28  1  0.59584074  0.39338479  0.54314508  1  0.07521  0  0.107166  0.110397  0  0.99984  0
H  H29  1  0.20241903  0.60664262  0.95680046  1  0.073042  0  0.107025  0.109983  0  1.00026  0
H  H30  1  0.92232525  0.49927386  0.61410539  1  0.039811  0  0.106944  0.110089  0  0.981802  0
H  H31  1  0.42339428  0.50090463  0.88586248  1  0.038691  0  0.106673  0.110084  0  0.9813  0
H  H32  1  0.07773465  0.50069645  0.38589649  1  0.039846  0  0.106931  0.110082  0  0.98198  0
H  H33  1  0.57661292  0.49911021  0.11413628  1  0.038751  0  0.106638  0.11006  0  0.981365  0
H  H34  1  0.73784083  0.24443097  0.58127498  1  0.049429  0  0.089968  0.106515  0  1.022141  0
H  H35  1  0.49356564  0.75558217  0.91880185  1  0.058815  0  0.090296  0.107334  0  1.0225  0
H  H36  1  0.26222144  0.75557413  0.41872728  1  0.049679  0  0.090029  0.10656  0  1.022199  0
H  H37  1  0.50641947  0.24442220  0.08119292  1  0.058763  0  0.09027  0.107281  0  1.022544  0
H  H38  1  0.93836067  0.15578727  0.60528938  1  0.089266  0  0.09955  0.13413  0  0.9946  0
H  H39  1  0.78262202  0.84415859  0.89479935  1  0.097259  0  0.100032  0.134936  0  0.994571  0
H  H40  1  0.06163575  0.84420971  0.39471548  1  0.089433  0  0.099556  0.134194  0  0.994493  0
H  H41  1  0.21738994  0.15584327  0.10520283  1  0.097277  0  0.100009  0.134921  0  0.994733  0
H  H42  1  0.88513468  0.97504932  0.55743922  1  0.072794  0  0.095012  0.098176  0  1.043897  0
H  H43  1  0.91024172  0.02479575  0.94269561  1  0.069567  0  0.09447  0.09739  0  1.044099  0
H  H44  1  0.11489306  0.02495411  0.44256813  1  0.073336  0  0.095089  0.098308  0  1.043935  0
H  H45  1  0.08974899  0.97520857  0.05730382  1  0.069013  0  0.094464  0.097387  0  1.04411  0
H  H46  1  0.32410367  0.16381294  0.52152234  1  0.03742  0  0.095829  0.097156  0  1.023468  0
H  H47  1  0.16022978  0.83633505  0.97834116  1  0.05575  0  0.096109  0.096904  0  1.023436  0
H  H48  1  0.67590477  0.83618557  0.47849096  1  0.037359  0  0.09585  0.097208  0  1.02356  0
H  H49  1  0.83976201  0.16366765  0.02165776  1  0.05569  0  0.096116  0.096923  0  1.023433  0
C  C50  1  0.19181004  0.87374867  0.63490540  1  0.420836  0  0.046811  0.094089  0  3.934537  0
C  C51  1  0.31872939  0.12614092  0.86514789  1  0.443969  0  0.046965  0.093502  0  3.937718  0
C  C52  1  0.80819997  0.12623051  0.36509996  1  0.421161  0  0.046729  0.093861  0  3.934718  0
C  C53  1  0.68124194  0.87386582  0.13485160  1  0.443447  0  0.046931  0.09352  0  3.937827  0
C  C54  1  0.02752550  0.80261653  0.59503083  1  0.034837  0  -0.081717  -0.176264  0  3.934087  0
C  C55  1  0.22587455  0.19730566  0.90507880  1  0.016686  0  -0.082611  -0.176539  0  3.93473  0
C  C56  1  0.97249336  0.19736912  0.40497375  1  0.034684  0  -0.081776  -0.176276  0  3.934152  0
C  C57  1  0.77408581  0.80269787  0.09491875  1  0.016474  0  -0.082728  -0.176744  0  3.934871  0
C  C58  1  0.78579411  0.74867962  0.61606418  1  -0.023641  0  0.007751  0.145853  0  4.027604  0
C  C59  1  0.03830776  0.25150093  0.88409932  1  -0.029192  0  0.009098  0.147168  0  4.02395  0
C  C60  1  0.21420967  0.25131335  0.38393731  1  -0.024153  0  0.007802  0.145789  0  4.027469  0
C  C61  1  0.96164683  0.74849855  0.11589860  1  -0.070044  0  0.009233  0.147181  0  4.024298  0
C  C62  1  0.72707082  0.76945233  0.67882941  1  -0.12727  0  -0.081697  -0.174829  0  3.911696  0
C  C63  1  0.95851967  0.23081811  0.82132507  1  0.003323  0  -0.082225  -0.17575  0  3.910506  0
C  C64  1  0.27293324  0.23053745  0.32116687  1  -0.126891  0  -0.08165  -0.174646  0  3.911527  0
C  C65  1  0.04143079  0.76918060  0.17866816  1  0.002724  0  -0.08226  -0.175699  0  3.91056  0
C  C66  1  0.90221501  0.84050733  0.71626362  1  0.521919  0  0.051919  0.111613  0  3.921823  0
C  C67  1  0.06215011  0.15965333  0.78386533  1  0.437024  0  0.052439  0.110956  0  3.923592  0
C  C68  1  0.09778477  0.15948889  0.28373608  1  0.522057  0  0.051945  0.111555  0  3.921795  0
C  C69  1  0.93778949  0.84034615  0.21613212  1  0.437434  0  0.052184  0.110413  0  3.923707  0
C  C70  1  0.61073296  0.67942033  0.57254511  1  -0.090805  0  -0.086742  -0.138282  0  3.995645  0
C  C71  1  0.93282499  0.32091229  0.92762115  1  -0.136811  0  -0.087276  -0.139215  0  3.99383  0
C  C72  1  0.38929768  0.32055892  0.42745185  1  -0.00807  0  -0.086686  -0.138413  0  3.995667  0
C  C73  1  0.06713563  0.67908803  0.07237352  1  -0.096298  0  -0.087409  -0.13937  0  3.993555  0
C  C74  1  0.37249622  0.62345058  0.58582065  1  0.013428  0  -0.079594  -0.112055  0  3.987741  0
C  C75  1  0.75010156  0.37665703  0.91427527  1  0.034004  0  -0.078891  -0.110628  0  3.985135  0
C  C76  1  0.62752469  0.37653922  0.41417470  1  -0.068831  0  -0.0796  -0.11187  0  3.987456  0
C  C77  1  0.24989281  0.62335463  0.08571827  1  0.034396  0  -0.078736  -0.110371  0  3.985209  0
C  C78  1  0.18941378  0.56073690  0.54149317  1  -0.044245  0  -0.011039  0.098114  0  4.042258  0
C  C79  1  0.62910266  0.43937475  0.95852302  1  -0.02689  0  -0.012147  0.096994  0  4.042232  0
C  C80  1  0.81061701  0.43924642  0.45850248  1  -0.044237  0  -0.011072  0.098323  0  4.041911  0
C  C81  1  0.37088046  0.56063686  0.04147519  1  -0.026115  0  -0.012104  0.097049  0  4.042416  0
C  C82  1  0.22792016  0.56021327  0.47632321  1  -0.05856  0  -0.084158  -0.121904  0  3.965197  0
C  C83  1  0.66764695  0.43978669  0.02371657  1  -0.008405  0  -0.083833  -0.121595  0  3.966096  0
C  C84  1  0.77212025  0.43976679  0.52367376  1  -0.058643  0  -0.084112  -0.122239  0  3.965043  0
C  C85  1  0.33233466  0.56021440  0.97628185  1  -0.008348  0  -0.083874  -0.121807  0  3.966471  0
C  C86  1  0.95678442  0.49923264  0.56387915  1  0.026231  0  -0.083517  -0.121994  0  3.971746  0
C  C87  1  0.45780593  0.50083741  0.93609076  1  -0.054159  0  -0.082433  -0.121121  0  3.971705  0
C  C88  1  0.04326722  0.50074742  0.43611876  1  0.025884  0  -0.083579  -0.122265  0  3.972052  0
C  C89  1  0.54218387  0.49917258  0.06390741  1  -0.054453  0  -0.082412  -0.121233  0  3.97169  0
C  C90  1  0.57364640  0.13651061  0.65291052  1  1.566719  0  0.196669  0.627415  0  4.172946  0
C  C91  1  0.43712246  0.86341878  0.84712693  1  1.577272  0  0.196581  0.625933  0  4.174313  0
C  C92  1  0.42636375  0.86351387  0.34709454  1  1.566172  0  0.196657  0.627335  0  4.172623  0
C  C93  1  0.56288074  0.13659930  0.15287144  1  1.576543  0  0.196573  0.625777  0  4.174387  0
C  C94  1  0.74058149  0.16188731  0.59482685  1  -0.07416  0  -0.167323  -0.34694  0  3.924701  0
C  C95  1  0.57876096  0.83808976  0.90521596  1  -0.085506  0  -0.168426  -0.349657  0  3.927344  0
C  C96  1  0.25945307  0.83811853  0.40518149  1  -0.07459  0  -0.167402  -0.347194  0  3.9247  0
C  C97  1  0.42124340  0.16191938  0.09478686  1  -0.084728  0  -0.168416  -0.349641  0  3.927735  0
C  C98  1  0.71611402  0.98629925  0.53224521  1  -0.091472  0  -0.09884  -0.143847  0  4.000939  0
C  C99  1  0.72996551  0.01364422  0.96784066  1  -0.126497  0  -0.097698  -0.142022  0  3.999827  0
C  C100  1  0.28389418  0.01370255  0.46776303  1  -0.092092  0  -0.098911  -0.144036  0  4.001127  0
C  C101  1  0.27003016  0.98636251  0.03216024  1  -0.126242  0  -0.097737  -0.142114  0  3.999441  0
C  C102  1  0.62280865  0.08044894  0.54422105  1  0.019656  0  -0.016271  0.122983  0  3.988305  0
C  C103  1  0.54237209  0.91960307  0.95577269  1  0.038713  0  -0.016541  0.122068  0  3.988387  0
C  C104  1  0.37723168  0.91956095  0.45578738  1  0.019777  0  -0.016362  0.122998  0  3.988614  0
C  C105  1  0.45762732  0.08040367  0.04422727  1  0.038306  0  -0.016443  0.122224  0  3.988079  0
C  C106  1  0.40360305  0.09245250  0.51150814  1  -0.068898  0  -0.098302  -0.144079  0  3.986619  0
C  C107  1  0.31108735  0.90762856  0.98841256  1  -0.069179  0  -0.098728  -0.143162  0  3.986868  0
C  C108  1  0.59640152  0.90754204  0.48849760  1  -0.068691  0  -0.098236  -0.14404  0  3.986928  0
C  C109  1  0.68891152  0.09237333  0.01158635  1  -0.069261  0  -0.098766  -0.143264  0  3.987143  0
N  N110  1  0.13101843  0.89288003  0.69477828  1  -1.268074  0  -0.329119  -0.231314  0  3.56338  0
N  N111  1  0.23849001  0.10709349  0.80529572  1  -1.268215  0  -0.328957  -0.230214  0  3.562677  0
N  N112  1  0.86895927  0.10711697  0.30522471  1  -1.267969  0  -0.329103  -0.23126  0  3.563054  0
N  N113  1  0.76148212  0.89291489  0.19470195  1  -1.268148  0  -0.328731  -0.229811  0  3.562705  0
O  O114  1  0.63562612  0.06215422  0.68682242  1  -1.177751  0  -0.342069  -0.56864  0  2.309598  0
O  O115  1  0.57361989  0.93756258  0.81311558  1  -1.18432  0  -0.341507  -0.567841  0  2.309931  0
O  O116  1  0.36432792  0.93784041  0.31317444  1  -1.177107  0  -0.341989  -0.568496  0  2.309565  0
O  O117  1  0.42640429  0.06245625  0.18688794  1  -1.18392  0  -0.341562  -0.567829  0  2.310269  0
O  O118  1  0.38884951  0.18054398  0.66255636  1  -1.183644  0  -0.344048  -0.579261  0  2.080716  0
O  O119  1  0.20812155  0.81964596  0.83755883  1  -1.191866  0  -0.344388  -0.578322  0  2.081211  0
O  O120  1  0.61122544  0.81950150  0.33745248  1  -1.183533  0  -0.344114  -0.579265  0  2.080391  0
O  O121  1  0.79188193  0.18038019  0.16244207  1  -1.191643  0  -0.344358  -0.578192  0  2.080801  0
