# generated using pymatgen
data_HgH9C11Br2N3O
_symmetry_space_group_name_H-M   'P 1'
_cell_length_a   8.00268169
_cell_length_b   12.24917428
_cell_length_c   13.79100000
_cell_angle_alpha   90.00000000
_cell_angle_beta   90.00000000
_cell_angle_gamma   93.97367054
_symmetry_Int_Tables_number   1
_chemical_formula_structural   HgH9C11Br2N3O
_chemical_formula_sum   'Hg4 H36 C44 Br8 N12 O4'
_cell_volume   1348.62999414
_cell_formula_units_Z   4
loop_
 _symmetry_equiv_pos_site_id
 _symmetry_equiv_pos_as_xyz
  1  'x, y, z'
loop_
 _atom_site_type_symbol
 _atom_site_label
 _atom_site_symmetry_multiplicity
 _atom_site_fract_x
 _atom_site_fract_y
 _atom_site_fract_z
 _atom_site_occupancy
 _atom_site_hle17_bader_spin_density
 _atom_site_hle17_ddec_charge
 _atom_site_hle17_ddec_spin_density
 _atom_site_hle17_ddec_sum_bond_order
 _atom_site_hle17_magmom
 _atom_site_hse06_10hf_bader_spin_density
 _atom_site_hse06_10hf_ddec_charge
 _atom_site_hse06_10hf_ddec_spin_density
 _atom_site_hse06_10hf_ddec_sum_bond_order
 _atom_site_hse06_10hf_magmom
 _atom_site_hse06_bader_spin_density
 _atom_site_hse06_ddec_charge
 _atom_site_hse06_ddec_spin_density
 _atom_site_hse06_ddec_sum_bond_order
 _atom_site_hse06_magmom
 _atom_site_pbe_bader_charge
 _atom_site_pbe_bader_spin_density
 _atom_site_pbe_cm5_charge
 _atom_site_pbe_ddec_charge
 _atom_site_pbe_ddec_spin_density
 _atom_site_pbe_ddec_sum_bond_order
 _atom_site_pbe_magmom
Hg  Hg0  1  0.82532323  0.68265681  0.37578421  1  0  0.649691  0  2.115325  0  0  0.490951  0  2.617978  0  0  0.538095  0  2.588787  0  0.696654  0  0.469773  0.459141  0  2.637055  0
Hg  Hg1  1  0.67468244  0.81734557  0.87578711  1  0  0.649637  0  2.115325  0  0  0.490929  0  2.617976  0  0  0.538075  0  2.588785  0  0.696643  0  0.469753  0.459118  0  2.637058  0
Hg  Hg2  1  0.17468358  0.31734587  0.62421362  1  0  0.649617  0  2.115364  0  0  0.490901  0  2.61803  0  0  0.538046  0  2.58884  0  0.69669  0  0.469753  0.459092  0  2.637111  0
Hg  Hg3  1  0.32531786  0.18265465  0.12421289  1  0  0.649601  0  2.115329  0  0  0.490883  0  2.617977  0  0  0.538027  0  2.588786  0  0.696636  0  0.46975  0.459074  0  2.637057  0
H  H4  1  0.47344128  0.70968278  0.49556232  1  0  0.07592  0  0.962364  0  0  0.078594  0  1.040594  0  0  0.081964  0  1.036739  0  0.094803  0  0.101939  0.076171  0  1.043339  0
H  H5  1  0.02655925  0.79031633  0.99556305  1  0  0.075914  0  0.96238  0  0  0.078584  0  1.040604  0  0  0.081958  0  1.036744  0  0.094827  0  0.10194  0.07616  0  1.043349  0
H  H6  1  0.52656143  0.29031663  0.50443768  1  0  0.075939  0  0.962341  0  0  0.078606  0  1.040576  0  0  0.081976  0  1.03672  0  0.094833  0  0.101941  0.076182  0  1.043321  0
H  H7  1  0.97343597  0.20968308  0.00443840  1  0  0.075961  0  0.962278  0  0  0.078642  0  1.040505  0  0  0.082009  0  1.036652  0  0.094837  0  0.10196  0.07622  0  1.043248  0
H  H8  1  0.50091015  0.00305653  0.67053441  1  0  0.107799  0  0.938294  0  0  0.118801  0  0.996546  0  0  0.121505  0  0.99533  0  0.115177  0  0.109631  0.116808  0  0.997431  0
H  H9  1  0.99908716  0.49694235  0.17053586  1  0  0.107816  0  0.938257  0  0  0.11878  0  0.99655  0  0  0.121495  0  0.995322  0  0.115157  0  0.109625  0.116791  0  0.997439  0
H  H10  1  0.49908872  0.99694205  0.32946487  1  0  0.107813  0  0.938287  0  0  0.118783  0  0.996576  0  0  0.121499  0  0.995346  0  0.115156  0  0.109623  0.116793  0  0.997463  0
H  H11  1  0.00090690  0.50305787  0.82946559  1  0  0.107783  0  0.938324  0  0  0.118776  0  0.996591  0  0  0.12148  0  0.995376  0  0.115161  0  0.10963  0.116785  0  0.997477  0
H  H12  1  0.80665086  0.03018234  0.62473932  1  0  0.106452  0  0.974133  0  0  0.112456  0  1.040955  0  0  0.116458  0  1.038831  0  0.124284  0  0.094835  0.109569  0  1.042702  0
H  H13  1  0.69334770  0.46981654  0.12473715  1  0  0.106415  0  0.974168  0  0  0.112413  0  1.040999  0  0  0.116414  0  1.038876  0  0.124068  0  0.094807  0.109526  0  1.042744  0
H  H14  1  0.19334935  0.96981706  0.37526358  1  0  0.106372  0  0.974163  0  0  0.112386  0  1.040972  0  0  0.116387  0  1.03885  0  0.1241  0  0.094797  0.109499  0  1.042718  0
H  H15  1  0.30664877  0.53018286  0.87526285  1  0  0.106413  0  0.974146  0  0  0.112426  0  1.040961  0  0  0.11643  0  1.038834  0  0.124092  0  0.094809  0.109539  0  1.042707  0
H  H16  1  0.92503595  0.89459116  0.51188166  1  0  0.080481  0  0.93605  0  0  0.088054  0  1.002192  0  0  0.090642  0  0.999474  0  0.106148  0  0.112304  0.086143  0  1.004149  0
H  H17  1  0.57496428  0.60540713  0.01187876  1  0  0.080507  0  0.936076  0  0  0.088085  0  1.002196  0  0  0.090673  0  0.999479  0  0.106136  0  0.112298  0.086173  0  1.004156  0
H  H18  1  0.07496676  0.10540824  0.48812196  1  0  0.080506  0  0.936072  0  0  0.088108  0  1.002168  0  0  0.090697  0  0.999452  0  0.106159  0  0.112339  0.086198  0  1.004127  0
H  H19  1  0.42503093  0.39459228  0.98812051  1  0  0.0805  0  0.936103  0  0  0.088097  0  1.00221  0  0  0.090686  0  0.999491  0  0.106196  0  0.112329  0.086186  0  1.004166  0
H  H20  1  0.04732233  0.55509095  0.56346240  1  0  0.095153  0  0.978289  0  0  0.105117  0  1.044853  0  0  0.107765  0  1.042885  0  0.089234  0  0.093568  0.103182  0  1.046328  0
H  H21  1  0.45267552  0.94490652  0.06345733  1  0  0.09515  0  0.978253  0  0  0.105072  0  1.044887  0  0  0.10772  0  1.042916  0  0.089174  0  0.093554  0.103138  0  1.046363  0
H  H22  1  0.95267762  0.44490600  0.43654195  1  0  0.095171  0  0.978227  0  0  0.105077  0  1.044883  0  0  0.107724  0  1.042913  0  0.089201  0  0.09357  0.103144  0  1.04636  0
H  H23  1  0.54732425  0.05508879  0.93653615  1  0  0.095172  0  0.978234  0  0  0.1051  0  1.044855  0  0  0.10775  0  1.042886  0  0.089216  0  0.093559  0.103164  0  1.046334  0
H  H24  1  0.76168965  0.48653214  0.62279893  1  0  0.102569  0  0.973727  0  0  0.106202  0  1.045227  0  0  0.109743  0  1.043519  0  0.117783  0  0.089874  0.103617  0  1.046633  0
H  H25  1  0.73830774  0.01346757  0.12279168  1  0  0.102671  0  0.973649  0  0  0.106257  0  1.045187  0  0  0.109806  0  1.043491  0  0.117757  0  0.089885  0.103678  0  1.04657  0
H  H26  1  0.23831047  0.51346645  0.37720687  1  0  0.102641  0  0.973672  0  0  0.106245  0  1.045201  0  0  0.109785  0  1.043504  0  0.117766  0  0.089867  0.103666  0  1.046584  0
H  H27  1  0.26169113  0.98653102  0.87720035  1  0  0.102635  0  0.973765  0  0  0.106252  0  1.045286  0  0  0.109803  0  1.04357  0  0.117775  0  0.089893  0.103673  0  1.046668  0
H  H28  1  0.61627835  0.59990946  0.74385106  1  0  0.081108  0  0.953639  0  0  0.086035  0  1.025851  0  0  0.089353  0  1.022046  0  0.105833  0  0.101578  0.083591  0  1.028677  0
H  H29  1  0.88372025  0.90009701  0.24384744  1  0  0.081123  0  0.953598  0  0  0.086069  0  1.025804  0  0  0.089386  0  1.021999  0  0.105941  0  0.101561  0.083623  0  1.02863  0
H  H30  1  0.38372131  0.40009649  0.25614966  1  0  0.081129  0  0.953544  0  0  0.086072  0  1.025752  0  0  0.089391  0  1.021945  0  0.105894  0  0.101579  0.083625  0  1.028577  0
H  H31  1  0.11627807  0.09990812  0.75614894  1  0  0.081095  0  0.953609  0  0  0.086023  0  1.025814  0  0  0.08934  0  1.022009  0  0.105823  0  0.101577  0.08358  0  1.02864  0
H  H32  1  0.01059797  0.83902609  0.74534624  1  0  0.096823  0  0.978233  0  0  0.098809  0  1.052792  0  0  0.102473  0  1.049304  0  0.16457  0  0.105151  0.096162  0  1.055272  0
H  H33  1  0.48940325  0.66097956  0.24535059  1  0  0.096906  0  0.978158  0  0  0.098885  0  1.05272  0  0  0.102545  0  1.04925  0  0.164622  0  0.105195  0.096234  0  1.05521  0
H  H34  1  0.98940625  0.16097577  0.25465303  1  0  0.096884  0  0.978226  0  0  0.09887  0  1.052776  0  0  0.102544  0  1.049274  0  0.164567  0  0.105173  0.096222  0  1.055259  0
H  H35  1  0.51059873  0.33902475  0.75465231  1  0  0.096852  0  0.978197  0  0  0.098826  0  1.052758  0  0  0.102499  0  1.049261  0  0.164581  0  0.105155  0.09618  0  1.055237  0
H  H36  1  0.28535901  0.67344220  0.60057501  1  0  0.278044  0  0.940873  0  0  0.260036  0  1.012539  0  0  0.267321  0  1.00694  0  0.481067  0  0.286768  0.254886  0  1.016508  0
H  H37  1  0.21464019  0.82655609  0.10057501  1  0  0.278067  0  0.940819  0  0  0.260062  0  1.012478  0  0  0.267347  0  1.00688  0  0.480891  0  0.286797  0.254913  0  1.016447  0
H  H38  1  0.71464121  0.32655721  0.39942354  1  0  0.278075  0  0.940837  0  0  0.260067  0  1.012499  0  0  0.267351  0  1.006902  0  0.481083  0  0.286784  0.254917  0  1.016469  0
H  H39  1  0.78536003  0.17344331  0.89942571  1  0  0.278064  0  0.940817  0  0  0.260057  0  1.012484  0  0  0.267341  0  1.006885  0  0.48088  0  0.28679  0.254908  0  1.016452  0
C  C40  1  0.54091688  0.78208210  0.52666522  1  0  0.104152  0  3.678615  0  0  0.065591  0  3.926909  0  0  0.073891  0  3.945276  0  0.505802  0  0.043532  0.059856  0  3.915305  0
C  C41  1  0.95908335  0.71791619  0.02666594  1  0  0.104164  0  3.678635  0  0  0.065587  0  3.926912  0  0  0.073887  0  3.945278  0  0.505747  0  0.043525  0.059856  0  3.915303  0
C  C42  1  0.45908458  0.21791730  0.47333406  1  0  0.104151  0  3.678625  0  0  0.065589  0  3.926895  0  0  0.073889  0  3.945258  0  0.505765  0  0.043555  0.059867  0  3.915271  0
C  C43  1  0.04091428  0.28208240  0.97333551  1  0  0.104035  0  3.678596  0  0  0.065465  0  3.926884  0  0  0.073766  0  3.945252  0  0.505786  0  0.043495  0.059726  0  3.91529  0
C  C44  1  0.46382252  0.85389549  0.58855485  1  0  -0.103962  0  3.751525  0  0  -0.080427  0  3.988651  0  0  -0.091921  0  4.013063  0  -0.03067  0  -0.010835  -0.07319  0  3.972287  0
C  C45  1  0.03617551  0.64610362  0.08855485  1  0  -0.10408  0  3.751838  0  0  -0.080451  0  3.988865  0  0  -0.091954  0  4.01329  0  -0.030643  0  -0.010855  -0.073215  0  3.972503  0
C  C46  1  0.53617644  0.14610392  0.41144587  1  0  -0.104034  0  3.751798  0  0  -0.080433  0  3.988868  0  0  -0.091927  0  4.013281  0  -0.03067  0  -0.010858  -0.0732  0  3.972511  0
C  C47  1  0.96381988  0.35389742  0.91144732  1  0  -0.103978  0  3.751746  0  0  -0.080368  0  3.988789  0  0  -0.091863  0  4.0132  0  -0.030709  0  -0.010837  -0.073132  0  3.972427  0
C  C48  1  0.56006611  0.94568723  0.62327315  1  0  -0.009804  0  3.679314  0  0  -0.037707  0  3.925719  0  0  -0.032747  0  3.943136  0  -0.043139  0  -0.059059  -0.040488  0  3.913748  0
C  C49  1  0.93993412  0.55431106  0.12327315  1  0  -0.009825  0  3.679261  0  0  -0.037735  0  3.92568  0  0  -0.03278  0  3.943092  0  -0.043097  0  -0.059054  -0.040526  0  3.913718  0
C  C50  1  0.43993642  0.05431054  0.37672758  1  0  -0.009831  0  3.679215  0  0  -0.03774  0  3.925633  0  0  -0.032787  0  3.943043  0  -0.043127  0  -0.059055  -0.040529  0  3.913671  0
C  C51  1  0.06006243  0.44568916  0.87672903  1  0  -0.009764  0  3.679298  0  0  -0.037683  0  3.925692  0  0  -0.032722  0  3.943108  0  -0.043175  0  -0.059067  -0.040468  0  3.913726  0
C  C52  1  0.72788283  0.96077103  0.59751867  1  0  -0.108122  0  3.717529  0  0  -0.119432  0  3.969872  0  0  -0.127687  0  3.990556  0  -0.027118  0  -0.081505  -0.114276  0  3.95604  0
C  C53  1  0.77211356  0.53922644  0.09751577  1  0  -0.107966  0  3.717486  0  0  -0.119273  0  3.96981  0  0  -0.127526  0  3.990495  0  -0.026979  0  -0.081412  -0.114116  0  3.955978  0
C  C54  1  0.27211604  0.03922755  0.40248495  1  0  -0.107962  0  3.717371  0  0  -0.119271  0  3.969688  0  0  -0.127525  0  3.990377  0  -0.027002  0  -0.081422  -0.114115  0  3.955857  0
C  C55  1  0.22787665  0.46077297  0.90248423  1  0  -0.108018  0  3.717419  0  0  -0.11934  0  3.969753  0  0  -0.127595  0  3.990436  0  -0.026879  0  -0.081433  -0.114184  0  3.955921  0
C  C56  1  0.79432285  0.88570226  0.53482126  1  0  0.14895  0  3.675351  0  0  0.115112  0  3.928769  0  0  0.12458  0  3.945095  0  0.514537  0  0.054055  0.109098  0  3.917496  0
C  C57  1  0.70567872  0.61429685  0.03481981  1  0  0.148788  0  3.675516  0  0  0.114971  0  3.928892  0  0  0.124436  0  3.94522  0  0.514575  0  0.054034  0.108956  0  3.917619  0
C  C58  1  0.20568111  0.11429715  0.46518164  1  0  0.148851  0  3.675296  0  0  0.115006  0  3.928696  0  0  0.124469  0  3.945026  0  0.514274  0  0.054021  0.108991  0  3.917425  0
C  C59  1  0.29431917  0.38570419  0.96518164  1  0  0.148866  0  3.675259  0  0  0.115031  0  3.928664  0  0  0.124495  0  3.944995  0  0.514204  0  0.054036  0.109017  0  3.917393  0
C  C60  1  0.28319087  0.84102204  0.61801610  1  0  0.548104  0  3.852097  0  0  0.500122  0  4.142178  0  0  0.529914  0  4.141798  0  1.442046  0  0.239254  0.480165  0  4.141758  0
C  C61  1  0.21680384  0.65898116  0.11801465  1  0  0.548189  0  3.851903  0  0  0.500147  0  4.142038  0  0  0.529946  0  4.141654  0  1.442102  0  0.239211  0.480191  0  4.141617  0
C  C62  1  0.71680594  0.15898063  0.38198463  1  0  0.548061  0  3.851905  0  0  0.500021  0  4.142056  0  0  0.529812  0  4.141681  0  1.442013  0  0.239198  0.480063  0  4.141635  0
C  C63  1  0.78319262  0.34101825  0.88198608  1  0  0.547944  0  3.85196  0  0  0.499912  0  4.142102  0  0  0.529706  0  4.141723  0  1.442058  0  0.239136  0.479956  0  4.141679  0
C  C64  1  0.05160905  0.70169651  0.64998260  1  0  0.215443  0  3.791374  0  0  0.214822  0  4.034133  0  0  0.219084  0  4.05635  0  0.352077  0  0.099291  0.211561  0  4.019328  0
C  C65  1  0.44839032  0.79830341  0.14998042  1  0  0.215381  0  3.791309  0  0  0.214777  0  4.034063  0  0  0.219038  0  4.056277  0  0.351988  0  0.099285  0.211516  0  4.019257  0
C  C66  1  0.94839125  0.29830371  0.35001885  1  0  0.215457  0  3.791401  0  0  0.21484  0  4.034137  0  0  0.219099  0  4.056353  0  0.351958  0  0.099267  0.211578  0  4.019332  0
C  C67  1  0.55161231  0.20169517  0.85001523  1  0  0.215425  0  3.791349  0  0  0.214827  0  4.034061  0  0  0.219087  0  4.056282  0  0.351989  0  0.099282  0.211567  0  4.019255  0
C  C68  1  0.97844685  0.60181703  0.61528678  1  0  -0.134483  0  3.740499  0  0  -0.156745  0  3.990197  0  0  -0.158323  0  4.01072  0  -0.036515  0  -0.085628  -0.155432  0  3.976387  0
C  C69  1  0.52155097  0.89818208  0.11528243  1  0  -0.134425  0  3.740497  0  0  -0.156679  0  3.990147  0  0  -0.158259  0  4.010687  0  -0.036539  0  -0.085578  -0.15537  0  3.976341  0
C  C70  1  0.02154944  0.39818074  0.38471612  1  0  -0.134452  0  3.7404  0  0  -0.156687  0  3.990064  0  0  -0.15827  0  4.010606  0  -0.036504  0  -0.085586  -0.155377  0  3.976257  0
C  C71  1  0.47845015  0.10181406  0.88471104  1  0  -0.134364  0  3.740311  0  0  -0.15662  0  3.99005  0  0  -0.158194  0  4.010566  0  -0.036394  0  -0.085555  -0.155309  0  3.976242  0
C  C72  1  0.82089479  0.56396676  0.64813719  1  0  -0.097933  0  3.763364  0  0  -0.109527  0  4.016504  0  0  -0.11553  0  4.039067  0  -0.007286  0  -0.090908  -0.105642  0  4.001405  0
C  C73  1  0.67910561  0.93603317  0.14813212  1  0  -0.097997  0  3.763611  0  0  -0.109505  0  4.016693  0  0  -0.115531  0  4.039235  0  -0.007305  0  -0.090885  -0.105615  0  4.001604  0
C  C74  1  0.17910800  0.43603346  0.35186643  1  0  -0.097956  0  3.763478  0  0  -0.109498  0  4.016569  0  0  -0.115509  0  4.039121  0  -0.007289  0  -0.090836  -0.105608  0  4.00148  0
C  C75  1  0.32089693  0.06396460  0.85185991  1  0  -0.098089  0  3.763613  0  0  -0.109691  0  4.016786  0  0  -0.115705  0  4.03934  0  -0.00732  0  -0.090947  -0.105799  0  4.001695  0
C  C76  1  0.73918804  0.62661300  0.71514756  1  0  0.117746  0  3.693433  0  0  0.081757  0  3.949542  0  0  0.088829  0  3.96695  0  0.503153  0  0.033668  0.077169  0  3.937622  0
C  C77  1  0.76081129  0.87338856  0.21514176  1  0  0.117627  0  3.693748  0  0  0.081554  0  3.949839  0  0  0.088628  0  3.967252  0  0.504064  0  0.033603  0.076967  0  3.937916  0
C  C78  1  0.26080993  0.37338886  0.28485462  1  0  0.117635  0  3.693567  0  0  0.081594  0  3.949683  0  0  0.088667  0  3.967095  0  0.504024  0  0.033596  0.077009  0  3.937759  0
C  C79  1  0.23919018  0.12661085  0.78485171  1  0  0.117791  0  3.693456  0  0  0.081811  0  3.949579  0  0  0.088882  0  3.96699  0  0.503157  0  0.03366  0.077219  0  3.937661  0
C  C80  1  0.96097804  0.76064791  0.71666812  1  0  0.027235  0  3.664604  0  0  -0.010253  0  3.915548  0  0  -0.005532  0  3.932406  0  0.502413  0  0.034174  -0.013281  0  3.904231  0
C  C81  1  0.53902030  0.73935611  0.21666957  1  0  0.027212  0  3.664479  0  0  -0.010341  0  3.915456  0  0  -0.005622  0  3.932305  0  0.502437  0  0.034128  -0.013371  0  3.90414  0
C  C82  1  0.03902235  0.23935313  0.28333116  1  0  0.027056  0  3.664521  0  0  -0.010492  0  3.915557  0  0  -0.005773  0  3.93241  0  0.502482  0  0.034098  -0.013522  0  3.904242  0
C  C83  1  0.46098017  0.26064575  0.78333043  1  0  0.027181  0  3.664586  0  0  -0.010299  0  3.915531  0  0  -0.005584  0  3.932386  0  0.502423  0  0.0342  -0.013327  0  3.904213  0
Br  Br84  1  0.61901757  0.51415877  0.38514756  1  0  -0.424918  0  1.088348  0  0  -0.366526  0  1.409903  0  0  -0.384516  0  1.389462  0  -0.457132  0  -0.204645  -0.354111  0  1.423792  0
Br  Br85  1  0.88098801  0.98584279  0.88514756  1  0  -0.424855  0  1.08831  0  0  -0.366457  0  1.409844  0  0  -0.38445  0  1.3894  0  -0.457207  0  -0.204609  -0.354045  0  1.423733  0
Br  Br86  1  0.38098666  0.48584309  0.61485317  1  0  -0.424846  0  1.088304  0  0  -0.366448  0  1.409838  0  0  -0.384443  0  1.389395  0  -0.457201  0  -0.204606  -0.354032  0  1.423728  0
Br  Br87  1  0.11901354  0.01415744  0.11485244  1  0  -0.424862  0  1.088322  0  0  -0.36647  0  1.409868  0  0  -0.38446  0  1.389428  0  -0.457181  0  -0.204614  -0.354055  0  1.423756  0
Br  Br88  1  0.13349792  0.74427275  0.36769995  1  0  -0.406607  0  1.00357  0  0  -0.347019  0  1.298133  0  0  -0.364776  0  1.281205  0  -0.437952  0  -0.2206  -0.334929  0  1.309512  0
Br  Br89  1  0.36650752  0.75572554  0.86770575  1  0  -0.406602  0  1.00358  0  0  -0.347017  0  1.298145  0  0  -0.364786  0  1.281236  0  -0.437907  0  -0.220599  -0.334928  0  1.309527  0
Br  Br90  1  0.86651177  0.25572175  0.63229570  1  0  -0.406605  0  1.003615  0  0  -0.347008  0  1.298165  0  0  -0.36477  0  1.281239  0  -0.437942  0  -0.2206  -0.334921  0  1.309558  0
Br  Br91  1  0.63349153  0.24427468  0.13229352  1  0  -0.40659  0  1.003589  0  0  -0.346997  0  1.298149  0  0  -0.36476  0  1.281235  0  -0.437911  0  -0.220594  -0.334905  0  1.309529  0
N  N92  1  0.70210718  0.79876905  0.49976579  1  0  -0.28895  0  3.244251  0  0  -0.210627  0  3.508895  0  0  -0.2317  0  3.530207  0  -1.224841  0  -0.308553  -0.196269  0  3.493835  0
N  N93  1  0.79789181  0.70122923  0.99976434  1  0  -0.288886  0  3.244246  0  0  -0.210576  0  3.508896  0  0  -0.231648  0  3.530208  0  -1.224852  0  -0.308572  -0.196218  0  3.493836  0
N  N94  1  0.29789429  0.20123035  0.50023711  1  0  -0.288915  0  3.244105  0  0  -0.210614  0  3.508763  0  0  -0.231686  0  3.530073  0  -1.224518  0  -0.3086  -0.196259  0  3.493708  0
N  N95  1  0.20210216  0.29877017  0.00023711  1  0  -0.28887  0  3.244154  0  0  -0.210594  0  3.508845  0  0  -0.231666  0  3.530158  0  -1.22453  0  -0.308584  -0.196234  0  3.493784  0
N  N96  1  0.80914837  0.72240237  0.74770720  1  0  -0.278387  0  3.312801  0  0  -0.19679  0  3.576389  0  0  -0.217041  0  3.600334  0  -1.240629  0  -0.315209  -0.182966  0  3.559669  0
N  N97  1  0.69085381  0.77760246  0.24770648  1  0  -0.278392  0  3.312871  0  0  -0.196669  0  3.576347  0  0  -0.216918  0  3.60029  0  -1.241564  0  -0.315186  -0.182845  0  3.559625  0
N  N98  1  0.19085611  0.27760194  0.25229352  1  0  -0.278245  0  3.31267  0  0  -0.196571  0  3.576179  0  0  -0.216822  0  3.600125  0  -1.241544  0  -0.315151  -0.182748  0  3.559456  0
N  N99  1  0.30915050  0.22240022  0.75229135  1  0  -0.278378  0  3.31272  0  0  -0.196777  0  3.576289  0  0  -0.217028  0  3.600235  0  -1.240592  0  -0.315236  -0.182953  0  3.55957  0
N  N100  1  0.21349608  0.73588467  0.61989776  1  0  -0.451422  0  3.419512  0  0  -0.398868  0  3.656969  0  0  -0.421366  0  3.666758  0  -1.274822  0  -0.404221  -0.383289  0  3.649863  0
N  N101  1  0.28650311  0.76411362  0.11989776  1  0  -0.451454  0  3.419573  0  0  -0.398904  0  3.657064  0  0  -0.421405  0  3.666855  0  -1.274701  0  -0.404272  -0.383327  0  3.64996  0
N  N102  1  0.78650404  0.26411391  0.38010152  1  0  -0.451466  0  3.41959  0  0  -0.3989  0  3.657072  0  0  -0.421398  0  3.666863  0  -1.274882  0  -0.404259  -0.38332  0  3.649964  0
N  N103  1  0.71349702  0.23588497  0.88010152  1  0  -0.451434  0  3.419559  0  0  -0.398875  0  3.657022  0  0  -0.421373  0  3.666812  0  -1.274745  0  -0.404266  -0.3833  0  3.649918  0
O  O104  1  0.20589596  0.92185363  0.63934160  1  0  -0.531085  0  1.911413  0  0  -0.488558  0  2.130395  0  0  -0.510483  0  2.126947  0  -1.135411  0  -0.288227  -0.47327  0  2.132247  0
O  O105  1  0.29410573  0.57814465  0.13934160  1  0  -0.531109  0  1.911082  0  0  -0.488552  0  2.130074  0  0  -0.510477  0  2.126622  0  -1.135415  0  -0.288189  -0.47326  0  2.131925  0
O  O106  1  0.79410667  0.07814495  0.36065840  1  0  -0.531033  0  1.91106  0  0  -0.488484  0  2.130069  0  0  -0.510411  0  2.126626  0  -1.135328  0  -0.288189  -0.473194  0  2.131919  0
O  O107  1  0.70589073  0.42185475  0.86065913  1  0  -0.530961  0  1.911086  0  0  -0.488428  0  2.130096  0  0  -0.510357  0  2.12665  0  -1.135323  0  -0.288123  -0.473136  0  2.131945  0
