# generated using pymatgen
data_CdH11C11N6O5
_symmetry_space_group_name_H-M   'P 1'
_cell_length_a   10.78972000
_cell_length_b   10.75402058
_cell_length_c   17.03677729
_cell_angle_alpha   105.28976094
_cell_angle_beta   90.00013822
_cell_angle_gamma   89.99975959
_symmetry_Int_Tables_number   1
_chemical_formula_structural   CdH11C11N6O5
_chemical_formula_sum   'Cd4 H44 C44 N24 O20'
_cell_volume   1906.85554535
_cell_formula_units_Z   4
loop_
 _symmetry_equiv_pos_site_id
 _symmetry_equiv_pos_as_xyz
  1  'x, y, z'
loop_
 _atom_site_type_symbol
 _atom_site_label
 _atom_site_symmetry_multiplicity
 _atom_site_fract_x
 _atom_site_fract_y
 _atom_site_fract_z
 _atom_site_occupancy
 _atom_site_pbe_bader_charge
 _atom_site_pbe_bader_spin_density
 _atom_site_pbe_cm5_charge
 _atom_site_pbe_ddec_charge
 _atom_site_pbe_ddec_spin_density
 _atom_site_pbe_ddec_sum_bond_order
 _atom_site_pbe_magmom
Cd  Cd0  1  0.82831366  0.64096056  0.82216509  1  1.233025  0  0.767629  0.840393  0  2.200264  0
Cd  Cd1  1  0.32831848  0.85903712  0.67783437  1  1.232996  0  0.767635  0.840401  0  2.200221  0
Cd  Cd2  1  0.17168152  0.35903519  0.17783505  1  1.233013  0  0.767651  0.840424  0  2.200194  0
Cd  Cd3  1  0.67168318  0.14096731  0.32216784  1  1.233312  0  0.76763  0.840352  0  2.200306  0
H  H4  1  0.57626840  0.48819000  0.76324019  1  0.589032  0  0.302904  0.391504  0  0.907322  0
H  H5  1  0.07626750  0.01181252  0.73675766  1  0.589008  0  0.302897  0.39149  0  0.907344  0
H  H6  1  0.42373234  0.51180965  0.23675827  1  0.589005  0  0.302893  0.391492  0  0.907342  0
H  H7  1  0.92373509  0.98818904  0.26324230  1  0.588996  0  0.302893  0.391486  0  0.907348  0
H  H8  1  0.67932757  0.44597638  0.69804105  1  0.641596  0  0.276395  0.377086  0  0.967305  0
H  H9  1  0.17932767  0.05402576  0.80195631  1  0.641621  0  0.276381  0.377065  0  0.967333  0
H  H10  1  0.32067224  0.55402327  0.30195741  1  0.641603  0  0.276374  0.377035  0  0.967382  0
H  H11  1  0.82067306  0.94597676  0.19804441  1  0.641621  0  0.276391  0.377062  0  0.96734  0
H  H12  1  0.05519714  0.92739652  0.13290999  1  0.16234  0  0.114925  0.118753  0  1.024146  0
H  H13  1  0.55520112  0.57260551  0.36709001  1  0.16236  0  0.114944  0.1188  0  1.024125  0
H  H14  1  0.94480267  0.07259635  0.86708965  1  0.162353  0  0.114895  0.118713  0  1.024246  0
H  H15  1  0.44479870  0.42740183  0.63291095  1  0.162388  0  0.114895  0.118725  0  1.024233  0
H  H16  1  0.15975775  0.02836212  0.09630691  1  0.155094  0  0.117294  0.118317  0  1.016713  0
H  H17  1  0.65976111  0.47163760  0.40369078  1  0.15528  0  0.117288  0.11831  0  1.016707  0
H  H18  1  0.84024021  0.97163077  0.90369097  1  0.155198  0  0.117263  0.118277  0  1.016764  0
H  H19  1  0.34023778  0.52836879  0.59630942  1  0.155199  0  0.11726  0.11832  0  1.01676  0
H  H20  1  0.32230418  0.86163172  0.06891414  1  0.132019  0  0.126406  0.118415  0  0.977459  0
H  H21  1  0.82230720  0.63836738  0.43108458  1  0.131896  0  0.126385  0.118403  0  0.977464  0
H  H22  1  0.67769749  0.13836503  0.93108382  1  0.132028  0  0.126417  0.118418  0  0.977454  0
H  H23  1  0.17769354  0.36163519  0.56891262  1  0.131937  0  0.126375  0.118373  0  0.9775  0
H  H24  1  0.27509454  0.90315032  0.17273333  1  0.134018  0  0.131576  0.127776  0  0.937265  0
H  H25  1  0.77509733  0.59684703  0.32726561  1  0.133953  0  0.131547  0.127743  0  0.93733  0
H  H26  1  0.72490620  0.09684449  0.82726547  1  0.133965  0  0.131571  0.127799  0  0.937346  0
H  H27  1  0.22490062  0.40315552  0.67273276  1  0.134026  0  0.13156  0.127779  0  0.937298  0
H  H28  1  0.11419196  0.77771458  0.81757376  1  0.186844  0  0.139951  0.117309  0  0.986827  0
H  H29  1  0.61420108  0.72227618  0.68242536  1  0.1868  0  0.139998  0.117413  0  0.986867  0
H  H30  1  0.88580507  0.22227541  0.18242421  1  0.186852  0  0.139967  0.117345  0  0.986782  0
H  H31  1  0.38580429  0.27772538  0.31757460  1  0.186838  0  0.140003  0.1174  0  0.986796  0
H  H32  1  0.91404900  0.78743359  0.03147888  1  0.15525  0  0.14896  0.123342  0  0.969532  0
H  H33  1  0.41405463  0.71256607  0.46852361  1  0.155363  0  0.148896  0.123284  0  0.969377  0
H  H34  1  0.08594989  0.21255347  0.96852094  1  0.155318  0  0.148938  0.123332  0  0.96953  0
H  H35  1  0.58594889  0.28744703  0.53147952  1  0.155328  0  0.148926  0.123324  0  0.96949  0
H  H36  1  0.19051567  0.43523190  0.99562146  1  0.127389  0  0.13907  0.104216  0  0.96751  0
H  H37  1  0.69050995  0.06476434  0.50437901  1  0.127424  0  0.139044  0.104181  0  0.967528  0
H  H38  1  0.80948322  0.56476194  0.00437718  1  0.127478  0  0.139043  0.104198  0  0.96744  0
H  H39  1  0.30948987  0.93523916  0.49562011  1  0.127449  0  0.139007  0.10416  0  0.967466  0
H  H40  1  0.18199718  0.70630156  0.22393491  1  0.155199  0  0.152923  0.131387  0  0.961735  0
H  H41  1  0.68200265  0.79369905  0.27606327  1  0.155185  0  0.15294  0.131387  0  0.961787  0
H  H42  1  0.81801190  0.29369228  0.77606373  1  0.155124  0  0.152883  0.131326  0  0.961809  0
H  H43  1  0.31800179  0.20630447  0.72393527  1  0.155171  0  0.152927  0.131339  0  0.961817  0
H  H44  1  0.17206150  0.62077130  0.45901169  1  0.089483  0  0.102092  0.106279  0  1.017202  0
H  H45  1  0.67206571  0.87923028  0.04098841  1  0.089909  0  0.102088  0.106278  0  1.017224  0
H  H46  1  0.82793831  0.37923314  0.54098936  1  0.089851  0  0.102053  0.106298  0  1.017142  0
H  H47  1  0.32793595  0.12076931  0.95901357  1  0.08942  0  0.102089  0.106286  0  1.017109  0
C  C48  1  0.13209154  0.92843625  0.09061495  1  0.213724  0  -0.051438  -0.134466  0  3.863011  0
C  C49  1  0.63209569  0.57156358  0.40938360  1  0.21331  0  -0.051483  -0.134528  0  3.863066  0
C  C50  1  0.86790642  0.07155762  0.90938251  1  0.213581  0  -0.051431  -0.134476  0  3.863216  0
C  C51  1  0.36790320  0.42844184  0.59061644  1  0.21353  0  -0.051389  -0.134534  0  3.863265  0
C  C52  1  0.24563128  0.85702857  0.11026103  1  0.268798  0  -0.035411  -0.103166  0  3.857765  0
C  C53  1  0.74563413  0.64296599  0.38973797  1  0.268856  0  -0.035392  -0.103146  0  3.857769  0
C  C54  1  0.75436760  0.14296335  0.88973727  1  0.268774  0  -0.035443  -0.103198  0  3.85769  0
C  C55  1  0.25436568  0.35703463  0.61026007  1  0.268795  0  -0.035427  -0.103182  0  3.857807  0
C  C56  1  0.08718948  0.79917744  0.88121870  1  0.978174  0  0.15363  0.153007  0  3.954789  0
C  C57  1  0.58719845  0.70081728  0.61878106  1  0.978203  0  0.153548  0.152787  0  3.955051  0
C  C58  1  0.91280755  0.20081446  0.11878077  1  0.978179  0  0.153538  0.152833  0  3.954742  0
C  C59  1  0.41280692  0.29918717  0.38121940  1  0.978171  0  0.153517  0.152815  0  3.954791  0
C  C60  1  0.98296826  0.80014351  0.98789357  1  1.000165  0  0.160478  0.072503  0  3.931717  0
C  C61  1  0.48297590  0.69985357  0.51210662  1  1.00023  0  0.160573  0.072654  0  3.931506  0
C  C62  1  0.01702970  0.19984453  0.01210583  1  1.00021  0  0.160499  0.072525  0  3.93181  0
C  C63  1  0.51702855  0.30015667  0.48789425  1  1.000246  0  0.160477  0.072484  0  3.931804  0
C  C64  1  0.19389743  0.52536420  0.04275270  1  0.981088  0  0.144054  0.142958  0  4.016751  0
C  C65  1  0.69389542  0.97463443  0.45724574  1  0.980956  0  0.144055  0.142997  0  4.016799  0
C  C66  1  0.80610239  0.47463063  0.95724493  1  0.981125  0  0.144074  0.143103  0  4.016533  0
C  C67  1  0.30610439  0.02536908  0.54275279  1  0.980572  0  0.144085  0.143064  0  4.01668  0
C  C68  1  0.18939400  0.66056641  0.15927516  1  1.009229  0  0.167223  0.088608  0  3.89974  0
C  C69  1  0.68939768  0.83943321  0.34072287  1  1.009308  0  0.167223  0.088616  0  3.899772  0
C  C70  1  0.81061137  0.33942648  0.84072273  1  1.009349  0  0.167224  0.088713  0  3.899916  0
C  C71  1  0.31060491  0.16057225  0.65927483  1  1.009361  0  0.167174  0.088624  0  3.899927  0
C  C72  1  0.95873016  0.53196900  0.58101822  1  0.059304  0  -0.008523  -0.043974  0  3.961301  0
C  C73  1  0.45872988  0.96803395  0.91898353  1  0.059312  0  -0.008565  -0.043954  0  3.961216  0
C  C74  1  0.04126688  0.46803739  0.41898199  1  0.059261  0  -0.008582  -0.044053  0  3.961416  0
C  C75  1  0.54126993  0.03196562  0.08101961  1  0.059029  0  -0.008529  -0.044066  0  3.961422  0
C  C76  1  0.05671212  0.60191437  0.55871954  1  -0.097573  0  -0.002106  -0.01962  0  3.914899  0
C  C77  1  0.55671501  0.89808818  0.94128152  1  -0.09755  0  -0.00214  -0.019604  0  3.914957  0
C  C78  1  0.94328491  0.39809203  0.44128008  1  -0.09762  0  -0.002093  -0.019474  0  3.914805  0
C  C79  1  0.44328480  0.10191041  0.05872263  1  -0.097491  0  -0.002116  -0.019499  0  3.914834  0
C  C80  1  0.09558144  0.56910047  0.47766937  1  0.022722  0  -0.079933  -0.121312  0  3.966132  0
C  C81  1  0.59558536  0.93090428  0.02233233  1  0.022364  0  -0.079922  -0.121324  0  3.966229  0
C  C82  1  0.90441559  0.43090687  0.52233159  1  0.022394  0  -0.0799  -0.121421  0  3.965991  0
C  C83  1  0.40441630  0.06909529  0.97767140  1  0.022868  0  -0.079911  -0.121374  0  3.965984  0
C  C84  1  0.90760287  0.56654142  0.66522630  1  1.550818  0  0.196695  0.57428  0  4.199947  0
C  C85  1  0.40760057  0.93345979  0.83477507  1  1.550289  0  0.196669  0.574191  0  4.199962  0
C  C86  1  0.09239416  0.43346205  0.33477458  1  1.550759  0  0.196628  0.574136  0  4.199999  0
C  C87  1  0.59239646  0.06653979  0.16522748  1  1.550507  0  0.196575  0.574133  0  4.199936  0
C  C88  1  0.13383821  0.70125617  0.61702193  1  1.563422  0  0.190855  0.575906  0  4.23579  0
C  C89  1  0.63383666  0.79874802  0.88297894  1  1.563514  0  0.190883  0.575883  0  4.235667  0
C  C90  1  0.86616067  0.29874923  0.38297928  1  1.563702  0  0.190806  0.575751  0  4.235837  0
C  C91  1  0.36616222  0.20125350  0.11702336  1  1.563709  0  0.190837  0.575751  0  4.235817  0
N  N92  1  0.08631924  0.87052251  0.00894453  1  -0.820162  0  -0.134322  0.170219  0  3.772804  0
N  N93  1  0.58632623  0.62947650  0.49105558  1  -0.821601  0  -0.134244  0.170188  0  3.772835  0
N  N94  1  0.91367780  0.12946843  0.99105478  1  -0.821887  0  -0.134276  0.170193  0  3.772901  0
N  N95  1  0.41367543  0.37053278  0.50894513  1  -0.822533  0  -0.134273  0.170261  0  3.772959  0
N  N96  1  0.15420508  0.87091832  0.94167992  1  -0.669056  0  -0.213782  -0.255575  0  3.099779  0
N  N97  1  0.65421135  0.62907906  0.55831923  1  -0.667687  0  -0.213761  -0.255388  0  3.099709  0
N  N98  1  0.84579195  0.12907456  0.05831913  1  -0.667615  0  -0.213718  -0.255378  0  3.099644  0
N  N99  1  0.34579032  0.37092636  0.44168082  1  -0.667002  0  -0.213697  -0.255408  0  3.099695  0
N  N100  1  0.98015534  0.75372991  0.90700936  1  -1.24364  0  -0.352205  -0.331919  0  3.504653  0
N  N101  1  0.48016402  0.74626716  0.59299258  1  -1.243498  0  -0.352234  -0.331997  0  3.504842  0
N  N102  1  0.01984169  0.24626006  0.09299037  1  -1.243493  0  -0.352175  -0.331902  0  3.504769  0
N  N103  1  0.51984228  0.25374209  0.40700988  1  -1.243434  0  -0.352184  -0.331887  0  3.504844  0
N  N104  1  0.22067076  0.72118763  0.10235817  1  -0.816943  0  -0.129515  0.166599  0  3.734522  0
N  N105  1  0.72067306  0.77880993  0.39764013  1  -0.816924  0  -0.129532  0.166594  0  3.734424  0
N  N106  1  0.77933183  0.27880719  0.89764004  1  -0.817  0  -0.129439  0.16666  0  3.734449  0
N  N107  1  0.27932861  0.22119165  0.60235866  1  -0.817007  0  -0.129459  0.166701  0  3.73466  0
N  N108  1  0.22335669  0.63594937  0.02720861  1  -0.665378  0  -0.223504  -0.260036  0  3.084662  0
N  N109  1  0.72335613  0.86404721  0.47279012  1  -0.665157  0  -0.223458  -0.260056  0  3.084643  0
N  N110  1  0.77664220  0.36404544  0.97279019  1  -0.665235  0  -0.223478  -0.260102  0  3.084447  0
N  N111  1  0.27664460  0.13595535  0.52720767  1  -0.664796  0  -0.223462  -0.260067  0  3.084631  0
N  N112  1  0.17167641  0.53558929  0.12317247  1  -1.211641  0  -0.35184  -0.331247  0  3.504887  0
N  N113  1  0.67167877  0.96441037  0.37682730  1  -1.211772  0  -0.351865  -0.331246  0  3.504928  0
N  N114  1  0.82832711  0.46440649  0.87682650  1  -1.211843  0  -0.351858  -0.331409  0  3.505034  0
N  N115  1  0.32832382  0.03559120  0.62317150  1  -1.211737  0  -0.351822  -0.331291  0  3.504886  0
O  O116  1  0.83837608  0.48534081  0.68813909  1  -1.190173  0  -0.340191  -0.592248  0  2.205878  0
O  O117  1  0.33837639  0.01465873  0.81186159  1  -1.190173  0  -0.340179  -0.592217  0  2.205896  0
O  O118  1  0.16162558  0.51465883  0.31185995  1  -1.190239  0  -0.340185  -0.592248  0  2.205869  0
O  O119  1  0.66162435  0.98534464  0.18814573  1  -1.190387  0  -0.340156  -0.592216  0  2.205899  0
O  O120  1  0.93443939  0.67611528  0.71234609  1  -1.14105  0  -0.318579  -0.514975  0  2.187984  0
O  O121  1  0.43443830  0.82388582  0.78765648  1  -1.140451  0  -0.318559  -0.514932  0  2.187992  0
O  O122  1  0.06555393  0.32388916  0.28765496  1  -1.14085  0  -0.318495  -0.514817  0  2.187995  0
O  O123  1  0.56555595  0.17611473  0.21234625  1  -1.140824  0  -0.318484  -0.514829  0  2.187889  0
O  O124  1  0.20122938  0.66455669  0.66799921  1  -1.156313  0  -0.330503  -0.554992  0  2.151142  0
O  O125  1  0.70122934  0.83544535  0.83199964  1  -1.156179  0  -0.330541  -0.555029  0  2.151077  0
O  O126  1  0.79876579  0.33544776  0.33200125  1  -1.156292  0  -0.330484  -0.554949  0  2.151151  0
O  O127  1  0.29876676  0.16454850  0.16799900  1  -1.156329  0  -0.330488  -0.554972  0  2.151148  0
O  O128  1  0.14179460  0.81378679  0.60548560  1  -1.154674  0  -0.349009  -0.570808  0  2.15249  0
O  O129  1  0.64179820  0.68621545  0.89451437  1  -1.15488  0  -0.348992  -0.570768  0  2.152303  0
O  O130  1  0.85820614  0.18621767  0.39451428  1  -1.154887  0  -0.348954  -0.570718  0  2.15244  0
O  O131  1  0.35820624  0.31378502  0.10549304  1  -1.154866  0  -0.348974  -0.570713  0  2.152469  0
O  O132  1  0.59544966  0.42309685  0.71294513  1  -1.242149  0  -0.612212  -0.78448  0  1.86298  0
O  O133  1  0.09544775  0.07690561  0.78705157  1  -1.24217  0  -0.612192  -0.784454  0  1.862957  0
O  O134  1  0.40455015  0.57690377  0.28705291  1  -1.242146  0  -0.612188  -0.784438  0  1.863008  0
O  O135  1  0.90455298  0.92309595  0.21294781  1  -1.242159  0  -0.612195  -0.784447  0  1.862987  0
