# generated using pymatgen
data_HgH36C30N2(ClO)2
_symmetry_space_group_name_H-M   'P 1'
_cell_length_a   4.96366107
_cell_length_b   14.78198966
_cell_length_c   22.94272569
_cell_angle_alpha   99.22299875
_cell_angle_beta   94.43105571
_cell_angle_gamma   96.71707285
_symmetry_Int_Tables_number   1
_chemical_formula_structural   HgH36C30N2(ClO)2
_chemical_formula_sum   'Hg2 H72 C60 N4 Cl4 O4'
_cell_volume   1642.27051407
_cell_formula_units_Z   2
loop_
 _symmetry_equiv_pos_site_id
 _symmetry_equiv_pos_as_xyz
  1  'x, y, z'
loop_
 _atom_site_type_symbol
 _atom_site_label
 _atom_site_symmetry_multiplicity
 _atom_site_fract_x
 _atom_site_fract_y
 _atom_site_fract_z
 _atom_site_occupancy
 _atom_site_pbe_bader_charge
 _atom_site_pbe_bader_spin_density
 _atom_site_pbe_cm5_charge
 _atom_site_pbe_ddec_charge
 _atom_site_pbe_ddec_spin_density
 _atom_site_pbe_ddec_sum_bond_order
 _atom_site_pbe_magmom
Hg  Hg0  1  0.66841772  0.87644361  0.34456235  1  0.818379  0  0.517061  0.562914  0  2.638319  0
Hg  Hg1  1  0.70841934  0.44731647  0.87564288  1  0.815361  0  0.515741  0.561424  0  2.633484  0
H  H2  1  0.33570076  0.82904166  0.21280459  1  0.109285  0  0.106778  0.083273  0  1.003099  0
H  H3  1  0.97688417  0.88157139  0.14785952  1  0.075143  0  0.106409  0.113863  0  0.985417  0
H  H4  1  0.95318269  0.11131115  0.28977556  1  0.080445  0  0.104854  0.113909  0  1.004056  0
H  H5  1  0.31479685  0.05033693  0.34701815  1  0.115597  0  0.101893  0.079538  0  1.028559  0
H  H6  1  0.67020724  0.98840932  0.13166526  1  0.021874  0  0.098414  0.096369  0  1.006564  0
H  H7  1  0.66824792  0.15451984  0.23178151  1  0.051237  0  0.101947  0.094462  0  1.035339  0
H  H8  1  0.01933494  0.32096563  0.15465736  1  0.056821  0  0.104263  0.112558  0  1.030396  0
H  H9  1  0.35789745  0.02506885  0.08111225  1  0.064709  0  0.103902  0.111521  0  1.035172  0
H  H10  1  0.06292078  0.32103592  0.25655695  1  0.072614  0  0.100131  0.067731  0  0.985826  0
H  H11  1  0.29903171  0.40554051  0.23276066  1  0.043105  0  0.100871  0.067881  0  0.968523  0
H  H12  1  0.63962057  0.39258179  0.31559358  1  0.036552  0  0.092803  0.058104  0  0.971839  0
H  H13  1  0.43765568  0.23072211  0.32599165  1  0.01284  0  0.089873  0.085016  0  1.004132  0
H  H14  1  0.17380647  0.27847928  0.36225917  1  0.028323  0  0.085676  0.075221  0  0.993894  0
H  H15  1  0.51724664  0.36678385  0.44492547  1  0.008539  0  0.079842  0.102403  0  1.027389  0
H  H16  1  0.78592291  0.32611065  0.40570011  1  0.00364  0  0.079276  0.097824  0  1.041397  0
H  H17  1  0.55287451  0.24745988  0.43363152  1  0.04946  0  0.090553  0.126378  0  1.009741  0
H  H18  1  0.08981846  0.44375883  0.35440177  1  0.016441  0  0.082738  0.104501  0  1.036652  0
H  H19  1  0.33539639  0.51639619  0.32448213  1  0.011775  0  0.090863  0.125008  0  1.00925  0
H  H20  1  0.41225189  0.48482827  0.39456091  1  0.032553  0  0.084907  0.114602  0  1.028996  0
H  H21  1  0.08060707  0.93904132  0.00362543  1  0.04239  0  0.099144  0.062802  0  0.975582  0
H  H22  1  0.31380042  0.02484372  0.98010988  1  0.039194  0  0.100178  0.067692  0  0.987571  0
H  H23  1  0.74236934  0.94629250  0.92039169  1  0.026285  0  0.09298  0.055773  0  0.973384  0
H  H24  1  0.09513196  0.83652312  0.91105072  1  0.02387  0  0.090985  0.083952  0  0.97849  0
H  H25  1  0.29887921  0.91589863  0.87748263  1  0.032824  0  0.084981  0.071387  0  1.00657  0
H  H26  1  0.71773143  0.82486084  0.82868240  1  0.020854  0  0.083595  0.109249  0  1.0245  0
H  H27  1  0.02063092  0.78985538  0.80173334  1  0.031013  0  0.082129  0.106064  0  1.048119  0
H  H28  1  0.92937662  0.89979629  0.79299278  1  -0.00047  0  0.083433  0.109496  0  1.023186  0
H  H29  1  0.18455332  0.08226398  0.88199899  1  0.018426  0  0.086628  0.116222  0  1.015799  0
H  H30  1  0.87376115  0.11076676  0.90880642  1  0.042024  0  0.086374  0.118861  0  1.026069  0
H  H31  1  0.86964697  0.03664903  0.83995935  1  0.033944  0  0.086363  0.118625  0  1.039977  0
H  H32  1  0.70916488  0.18825738  0.00418435  1  0.083643  0  0.101727  0.092795  0  1.042382  0
H  H33  1  0.71211006  0.36132037  0.09928900  1  0.063114  0  0.098268  0.097073  0  1.003427  0
H  H34  1  0.43055195  0.22470386  0.94451736  1  0.061417  0  0.103999  0.111208  0  1.01366  0
H  H35  1  0.06853053  0.27811120  0.88320632  1  0.110948  0  0.102451  0.078105  0  1.030272  0
H  H36  1  0.04287861  0.51103386  0.00829182  1  0.107079  0  0.107573  0.083791  0  1.00124  0
H  H37  1  0.40085567  0.46631086  0.07722641  1  0.030634  0  0.106568  0.114709  0  0.985553  0
H  H38  1  0.06171257  0.37980873  0.76605828  1  0.119746  0  0.102628  0.080672  0  1.029563  0
H  H39  1  0.41823575  0.43416221  0.70510305  1  0.09324  0  0.105937  0.114853  0  1.008768  0
H  H40  1  0.39797153  0.71114233  0.79888521  1  0.0619  0  0.099532  0.100661  0  1.031107  0
H  H41  1  0.04563788  0.64327858  0.85791171  1  0.109747  0  0.105218  0.081325  0  1.010966  0
H  H42  1  0.69483530  0.69334336  0.72283905  1  0.049703  0  0.097198  0.095228  0  1.021637  0
H  H43  1  0.70560131  0.49524026  0.65665394  1  0.091968  0  0.102862  0.096278  0  1.03362  0
H  H44  1  0.34851608  0.53619014  0.52106398  1  0.043055  0  0.102304  0.110086  0  1.034179  0
H  H45  1  0.00062555  0.74771621  0.67984075  1  0.041781  0  0.102366  0.108147  0  1.048107  0
H  H46  1  0.31863480  0.40275517  0.56436110  1  0.055878  0  0.100081  0.068043  0  0.988301  0
H  H47  1  0.08375728  0.39274078  0.49965684  1  0.005302  0  0.094916  0.057786  0  0.999293  0
H  H48  1  0.75213530  0.28977724  0.54368319  1  0.022274  0  0.092957  0.058124  0  0.980118  0
H  H49  1  0.21934276  0.28254591  0.63730085  1  -0.014142  0  0.08468  0.074489  0  0.99865  0
H  H50  1  0.96004406  0.35326368  0.64992457  1  0.019884  0  0.086506  0.077986  0  1.02004  0
H  H51  1  0.60455829  0.21426270  0.62867556  1  0.008913  0  0.07973  0.098166  0  1.048495  0
H  H52  1  0.84486853  0.20783317  0.68855172  1  0.02778  0  0.085414  0.120683  0  1.011877  0
H  H53  1  0.86076998  0.14079848  0.61762315  1  0.005067  0  0.083415  0.109181  0  1.032329  0
H  H54  1  0.06373906  0.22396600  0.47198125  1  0.011248  0  0.083269  0.116581  0  1.024132  0
H  H55  1  0.99227018  0.14965352  0.52319131  1  0.034918  0  0.084494  0.130794  0  1.017948  0
H  H56  1  0.31050920  0.22127913  0.53191823  1  0.019069  0  0.082542  0.107478  0  1.033643  0
H  H57  1  0.30622027  0.88013850  0.70638332  1  0.036234  0  0.096185  0.060217  0  0.996536  0
H  H58  1  0.03619702  0.88046483  0.65001915  1  0.016989  0  0.099132  0.06444  0  0.990984  0
H  H59  1  0.59621765  0.99484652  0.65836343  1  0.027122  0  0.092757  0.057075  0  0.976182  0
H  H60  1  0.06244793  0.04674336  0.70416315  1  -0.001435  0  0.083671  0.068241  0  1.008412  0
H  H61  1  0.32588896  0.12924672  0.69136659  1  0.038907  0  0.093064  0.093415  0  0.989647  0
H  H62  1  0.38735931  0.99412166  0.77955107  1  -0.008716  0  0.076739  0.096706  0  1.042121  0
H  H63  1  0.37657387  0.11505930  0.79690539  1  0.064194  0  0.07967  0.122416  0  1.033365  0
H  H64  1  0.65411238  0.07392354  0.76236240  1  -0.012843  0  0.081739  0.108267  0  1.028744  0
H  H65  1  0.05813440  0.00107359  0.58369723  1  -0.016552  0  0.084167  0.112534  0  1.013142  0
H  H66  1  0.35293952  0.95800416  0.55677523  1  0.039905  0  0.086178  0.120974  0  1.030985  0
H  H67  1  0.36404023  0.07718596  0.58554808  1  0.0302  0  0.086973  0.118179  0  1.037139  0
H  H68  1  0.64388664  0.79024120  0.54713517  1  0.10118  0  0.103904  0.097912  0  1.03283  0
H  H69  1  0.65953774  0.59671285  0.47473552  1  0.044964  0  0.095131  0.091518  0  1.021023  0
H  H70  1  0.97431592  0.59097762  0.39970209  1  0.086415  0  0.10102  0.107403  0  1.013436  0
H  H71  1  0.33443161  0.67127157  0.34784951  1  0.109852  0  0.10255  0.073077  0  1.032258  0
H  H72  1  0.28696842  0.92391670  0.45088641  1  0.126013  0  0.101506  0.077941  0  1.036055  0
H  H73  1  0.92256713  0.85759609  0.50520028  1  0.062032  0  0.105412  0.114316  0  1.013021  0
C  C74  1  0.24718839  0.89218173  0.22716751  1  0.490156  0  0.041131  0.096426  0  3.990212  0
C  C75  1  0.04797209  0.92182984  0.19157890  1  -0.026106  0  -0.087161  -0.178284  0  3.940584  0
C  C76  1  0.93524183  0.00266475  0.21227166  1  0.051437  0  0.00457  0.148532  0  4.031237  0
C  C77  1  0.03438767  0.04962778  0.26969677  1  -0.100905  0  -0.087802  -0.175451  0  3.939388  0
C  C78  1  0.23537610  0.01592228  0.30224940  1  0.470832  0  0.032965  0.073144  0  4.007569  0
C  C79  1  0.72722872  0.03294990  0.17473364  1  -0.041587  0  -0.091014  -0.134505  0  3.97163  0
C  C80  1  0.60716279  0.11022163  0.18892562  1  0.026692  0  -0.083029  -0.093502  0  3.981253  0
C  C81  1  0.39861300  0.14127697  0.15228285  1  0.024203  0  -0.017238  0.034002  0  4.036696  0
C  C82  1  0.29741279  0.22556127  0.17266031  1  0.427395  0  0.080509  0.197347  0  4.043273  0
C  C83  1  0.09338014  0.25596311  0.13865894  1  -0.001038  0  -0.104324  -0.244181  0  3.99208  0
C  C84  1  0.98011473  0.20490867  0.08332054  1  0.058649  0  -0.017014  0.035161  0  4.03059  0
C  C85  1  0.07963711  0.12010014  0.06328371  1  0.438901  0  0.080832  0.198264  0  4.044382  0
C  C86  1  0.28506909  0.09025840  0.09705884  1  0.044201  0  -0.104611  -0.245292  0  4.003409  0
C  C87  1  0.28189462  0.34589067  0.25635544  1  0.376479  0  -0.062753  -0.000317  0  3.879883  0
C  C88  1  0.42033639  0.37387709  0.31946154  1  0.022443  0  -0.09302  0.040439  0  3.890606  0
C  C89  1  0.38984125  0.29315772  0.35415946  1  -0.013336  0  -0.168027  -0.131944  0  3.928349  0
C  C90  1  0.57026404  0.30953852  0.41285342  1  -0.0669  0  -0.247046  -0.355803  0  3.966312  0
C  C91  1  0.30885461  0.45952204  0.34989040  1  -0.062494  0  -0.242315  -0.392842  0  3.941638  0
C  C92  1  0.09559925  0.99886711  0.98016244  1  0.389863  0  -0.06219  -0.001523  0  3.882015  0
C  C93  1  0.95824852  0.97144631  0.91700584  1  0.051169  0  -0.092711  0.041766  0  3.892065  0
C  C94  1  0.08607002  0.89106719  0.88357877  1  -0.042686  0  -0.163209  -0.13051  0  3.935117  0
C  C95  1  0.93075363  0.84936660  0.82333799  1  -0.061325  0  -0.246815  -0.354224  0  3.959462  0
C  C96  1  0.97124233  0.05485942  0.88515017  1  -0.081733  0  -0.24821  -0.391937  0  3.917015  0
C  C97  1  0.77218740  0.23506732  0.04603401  1  0.021647  0  -0.082999  -0.09353  0  3.98202  0
C  C98  1  0.65416873  0.31337252  0.05752241  1  -0.13845  0  -0.091608  -0.135817  0  3.966945  0
C  C99  1  0.44655535  0.34003596  0.01786526  1  0.027444  0  0.004556  0.1486  0  4.027074  0
C  C100  1  0.34869464  0.28775149  0.96175272  1  -0.011958  0  -0.087491  -0.173428  0  3.935477  0
C  C101  1  0.14733086  0.31726555  0.92685573  1  0.441195  0  0.032728  0.073483  0  4.008306  0
C  C102  1  0.13285592  0.44732799  0.99682586  1  0.542952  0  0.041326  0.096777  0  3.989003  0
C  C103  1  0.33211843  0.42197925  0.03467894  1  -0.028936  0  -0.086342  -0.179571  0  3.937228  0
C  C104  1  0.14133132  0.45297878  0.77143847  1  0.447106  0  0.034082  0.075722  0  4.003648  0
C  C105  1  0.33954448  0.48424997  0.73734492  1  -0.055591  0  -0.086345  -0.174513  0  3.934675  0
C  C106  1  0.43770733  0.57919801  0.74559016  1  0.001222  0  0.003592  0.150603  0  4.026262  0
C  C107  1  0.32729341  0.63718615  0.78982779  1  -0.034958  0  -0.090246  -0.182212  0  3.945928  0
C  C108  1  0.13184167  0.60034751  0.82264709  1  0.518974  0  0.039021  0.093525  0  3.995755  0
C  C109  1  0.64164230  0.61839362  0.71153073  1  -0.0043  0  -0.093069  -0.138423  0  3.968648  0
C  C110  1  0.76268742  0.56988201  0.66799883  1  -0.070614  0  -0.081913  -0.091095  0  3.975612  0
C  C111  1  0.96767346  0.60763104  0.63390063  1  0.036232  0  -0.017241  0.036992  0  4.032448  0
C  C112  1  0.06977782  0.54823877  0.58818731  1  0.459892  0  0.080654  0.197498  0  4.046072  0
C  C113  1  0.27199483  0.58265244  0.55583198  1  -0.017644  0  -0.104219  -0.242007  0  3.988778  0
C  C114  1  0.37938050  0.67678082  0.56659163  1  0.091688  0  -0.017335  0.034326  0  4.034678  0
C  C115  1  0.27513226  0.73635513  0.61196557  1  0.43065  0  0.081581  0.201275  0  4.04293  0
C  C116  1  0.07542365  0.70168717  0.64467793  1  0.014814  0  -0.106908  -0.250355  0  4.004405  0
C  C117  1  0.10040574  0.38913760  0.54748175  1  0.415696  0  -0.064427  -0.000371  0  3.87719  0
C  C118  1  0.97201906  0.29501599  0.55789154  1  0.042339  0  -0.094712  0.037795  0  3.889085  0
C  C119  1  0.00398999  0.28821320  0.62415795  1  0.009572  0  -0.169896  -0.132928  0  3.928775  0
C  C120  1  0.81970487  0.20811566  0.64060172  1  -0.046328  0  -0.247005  -0.355363  0  3.959628  0
C  C121  1  0.09088933  0.21840834  0.51917943  1  -0.049367  0  -0.246843  -0.395873  0  3.92536  0
C  C122  1  0.26013809  0.89191725  0.66057473  1  0.416924  0  -0.065465  0.001489  0  3.874067  0
C  C123  1  0.37141115  0.98940378  0.65320630  1  0.042855  0  -0.094026  0.040097  0  3.891734  0
C  C124  1  0.28535040  0.05981165  0.70281020  1  -0.00201  0  -0.165476  -0.129926  0  3.92549  0
C  C125  1  0.43236529  0.06016338  0.76375173  1  -0.052878  0  -0.253644  -0.369141  0  3.98359  0
C  C126  1  0.28195099  0.00738581  0.59130450  1  -0.048894  0  -0.247277  -0.399032  0  3.93096  0
C  C127  1  0.58645411  0.71593046  0.53370305  1  -0.033677  0  -0.082963  -0.090972  0  3.981915  0
C  C128  1  0.71078074  0.67132958  0.48918702  1  -0.064584  0  -0.093075  -0.139007  0  3.971905  0
C  C129  1  0.91795157  0.71646128  0.45834908  1  -0.020433  0  0.003824  0.149451  0  4.02508  0
C  C130  1  0.03863799  0.66502941  0.41273784  1  -0.027072  0  -0.088919  -0.178607  0  3.932221  0
C  C131  1  0.23888618  0.70869370  0.38390751  1  0.457427  0  0.038697  0.095243  0  3.997775  0
C  C132  1  0.21268833  0.85009974  0.44137276  1  0.440574  0  0.031233  0.071087  0  4.011105  0
C  C133  1  0.00959838  0.81204124  0.47172176  1  0.01188  0  -0.086658  -0.172393  0  3.935152  0
N  N134  1  0.34086269  0.93865604  0.28144179  1  -1.226037  0  -0.321679  -0.225346  0  3.527558  0
N  N135  1  0.04017783  0.39567988  0.94394108  1  -1.225497  0  -0.320648  -0.226503  0  3.525364  0
N  N136  1  0.03844571  0.50980778  0.81339103  1  -1.232749  0  -0.322253  -0.226669  0  3.526999  0
N  N137  1  0.32697778  0.79942841  0.39827746  1  -1.211934  0  -0.322145  -0.225456  0  3.527463  0
Cl  Cl138  1  0.77617243  0.01737375  0.41706173  1  -0.538974  0  -0.294158  -0.427479  0  1.148714  0
Cl  Cl139  1  0.74305759  0.74261511  0.27630039  1  -0.525241  0  -0.319978  -0.432697  0  1.122096  0
Cl  Cl140  1  0.59106135  0.29957192  0.81024643  1  -0.536977  0  -0.283583  -0.420823  0  1.178229  0
Cl  Cl141  1  0.63528720  0.58884173  0.93608199  1  -0.522828  0  -0.322012  -0.433693  0  1.113302  0
O  O142  1  0.41461632  0.27324677  0.22652697  1  -1.096251  0  -0.186091  -0.21265  0  2.603814  0
O  O143  1  0.96005482  0.07089015  0.01009598  1  -1.086387  0  -0.185274  -0.207478  0  2.593834  0
O  O144  1  0.95614719  0.45768797  0.57851589  1  -1.088589  0  -0.186839  -0.213417  0  2.606563  0
O  O145  1  0.38231778  0.82751014  0.62056954  1  -1.089911  0  -0.184064  -0.205451  0  2.593545  0
