# generated using pymatgen
data_NdH14C7N10ClO6
_symmetry_space_group_name_H-M   'P 1'
_cell_length_a   8.85085032
_cell_length_b   10.11928213
_cell_length_c   10.06885755
_cell_angle_alpha   65.43224634
_cell_angle_beta   70.73421280
_cell_angle_gamma   85.06710421
_symmetry_Int_Tables_number   1
_chemical_formula_structural   NdH14C7N10ClO6
_chemical_formula_sum   'Nd2 H28 C14 N20 Cl2 O12'
_cell_volume   772.86038756
_cell_formula_units_Z   2
loop_
 _symmetry_equiv_pos_site_id
 _symmetry_equiv_pos_as_xyz
  1  'x, y, z'
loop_
 _atom_site_type_symbol
 _atom_site_label
 _atom_site_symmetry_multiplicity
 _atom_site_fract_x
 _atom_site_fract_y
 _atom_site_fract_z
 _atom_site_occupancy
 _atom_site_hle17_bader_spin_density
 _atom_site_hle17_ddec_charge
 _atom_site_hle17_ddec_spin_density
 _atom_site_hle17_ddec_sum_bond_order
 _atom_site_hle17_magmom
 _atom_site_hse06_10hf_bader_spin_density
 _atom_site_hse06_10hf_ddec_charge
 _atom_site_hse06_10hf_ddec_spin_density
 _atom_site_hse06_10hf_ddec_sum_bond_order
 _atom_site_hse06_10hf_magmom
 _atom_site_hse06_bader_spin_density
 _atom_site_hse06_ddec_charge
 _atom_site_hse06_ddec_spin_density
 _atom_site_hse06_ddec_sum_bond_order
 _atom_site_hse06_magmom
 _atom_site_pbe_bader_spin_density
 _atom_site_pbe_cm5_charge
 _atom_site_pbe_ddec_charge
 _atom_site_pbe_ddec_spin_density
 _atom_site_pbe_ddec_sum_bond_order
 _atom_site_pbe_magmom
Nd  Nd0  1  0.89067094  0.44098696  0.32272575  1  0  2.263066  0  1.661969  0  0  2.094138  0  2.140239  0  0  2.189695  0  1.993258  0  0  1.406277  2.059662  0  2.177292  0
Nd  Nd1  1  0.10932907  0.55901386  0.67727491  1  0  2.263061  0  1.661984  0  0  2.094128  0  2.140268  0  0  2.189685  0  1.99328  0  0  1.406261  2.059648  0  2.177324  0
H  H2  1  0.77968133  0.39435310  0.66272807  1  0  0.426819  0  0.867031  0  0  0.395928  0  0.936264  0  0  0.407013  0  0.920355  0  0  0.303893  0.388355  0  0.947312  0
H  H3  1  0.22031988  0.60564772  0.33727225  1  0  0.426849  0  0.866978  0  0  0.395957  0  0.93622  0  0  0.407042  0  0.920312  0  0  0.30392  0.388385  0  0.947268  0
H  H4  1  0.62899953  0.43083326  0.60879622  1  0  0.410228  0  0.895471  0  0  0.383588  0  0.956936  0  0  0.393117  0  0.943398  0  0  0.272168  0.376805  0  0.966708  0
H  H5  1  0.37100041  0.56916647  0.39120492  1  0  0.41023  0  0.895452  0  0  0.38359  0  0.956927  0  0  0.39312  0  0.943388  0  0  0.272165  0.376808  0  0.966698  0
H  H6  1  0.15845014  0.68195963  0.13217337  1  0  0.345429  0  0.947576  0  0  0.308538  0  1.038947  0  0  0.318726  0  1.029356  0  0  0.303884  0.300821  0  1.046629  0
H  H7  1  0.84154980  0.31804009  0.86782678  1  0  0.345441  0  0.947557  0  0  0.308549  0  1.038932  0  0  0.318737  0  1.02934  0  0  0.303887  0.300832  0  1.046612  0
H  H8  1  0.58024565  0.72390877  0.17860357  1  0  0.330835  0  0.907311  0  0  0.311653  0  0.977113  0  0  0.318812  0  0.970955  0  0  0.295077  0.306653  0  0.981181  0
H  H9  1  0.41975430  0.27609096  0.82139658  1  0  0.33085  0  0.907278  0  0  0.311667  0  0.977077  0  0  0.318827  0  0.970919  0  0  0.295088  0.306667  0  0.981145  0
H  H10  1  0.46979914  0.84281151  0.25354739  1  0  0.336188  0  0.920057  0  0  0.308121  0  1.004702  0  0  0.316945  0  0.996224  0  0  0.295844  0.301989  0  1.010389  0
H  H11  1  0.53020080  0.15718822  0.74645276  1  0  0.33618  0  0.920069  0  0  0.308112  0  1.004713  0  0  0.316935  0  0.996236  0  0  0.295844  0.301979  0  1.010401  0
H  H12  1  0.44656226  0.86546838  0.78749695  1  0  0.32493  0  0.948935  0  0  0.296429  0  1.032434  0  0  0.305447  0  1.024321  0  0  0.291902  0.290088  0  1.038066  0
H  H13  1  0.55343774  0.13453243  0.21250272  1  0  0.324933  0  0.948938  0  0  0.296428  0  1.032444  0  0  0.305445  0  1.024335  0  0  0.291891  0.290087  0  1.038076  0
H  H14  1  0.50593349  0.75412946  0.68522839  1  0  0.329327  0  0.925466  0  0  0.310424  0  0.994411  0  0  0.317328  0  0.989034  0  0  0.283118  0.305634  0  0.997823  0
H  H15  1  0.49406646  0.24587026  0.31477176  1  0  0.329343  0  0.92545  0  0  0.310441  0  0.994395  0  0  0.317347  0  0.989017  0  0  0.283128  0.305651  0  0.997807  0
H  H16  1  0.89504711  0.88923716  0.74996180  1  0  0.130666  0  0.934619  0  0  0.132621  0  1.008927  0  0  0.136153  0  1.005576  0  0  0.131169  0.130092  0  1.01137  0
H  H17  1  0.10495283  0.11076257  0.25003835  1  0  0.130652  0  0.934623  0  0  0.132613  0  1.00893  0  0  0.136145  0  1.005579  0  0  0.131168  0.130085  0  1.011374  0
H  H18  1  0.70841127  0.79077385  0.87457915  1  0  0.114343  0  0.929984  0  0  0.126637  0  0.9938  0  0  0.129276  0  0.992056  0  0  0.121857  0.124488  0  0.995594  0
H  H19  1  0.29158861  0.20922479  0.12542247  1  0  0.114359  0  0.92996  0  0  0.126626  0  0.993815  0  0  0.129265  0  0.992071  0  0  0.121853  0.124478  0  0.995609  0
H  H20  1  0.81130766  0.89080846  0.27226976  1  0  0.126575  0  0.943692  0  0  0.128757  0  1.0203  0  0  0.131588  0  1.018162  0  0  0.128943  0.126712  0  1.021771  0
H  H21  1  0.18869235  0.10919235  0.72772991  1  0  0.126576  0  0.943689  0  0  0.128759  0  1.020294  0  0  0.131591  0  1.018156  0  0  0.128947  0.126715  0  1.021763  0
H  H22  1  0.64523704  0.78153154  0.42872830  1  0  0.119796  0  0.932641  0  0  0.127389  0  1.0022  0  0  0.130276  0  1.000274  0  0  0.120507  0.125281  0  1.00354  0
H  H23  1  0.35476416  0.21846928  0.57127103  1  0  0.119784  0  0.932629  0  0  0.12737  0  1.002198  0  0  0.130263  0  1.000266  0  0  0.120501  0.125262  0  1.003537  0
H  H24  1  0.41010194  0.60731137  0.05597981  1  0  0.075174  0  0.937738  0  0  0.094392  0  1.001961  0  0  0.095081  0  1.001652  0  0  0.091688  0.094002  0  1.001845  0
H  H25  1  0.58989800  0.39268835  0.94402034  1  0  0.075185  0  0.93772  0  0  0.094404  0  1.001941  0  0  0.095094  0  1.001632  0  0  0.091685  0.094015  0  1.001824  0
H  H26  1  0.28286068  0.54056258  0.98760780  1  0  0.079781  0  0.956828  0  0  0.093107  0  1.027762  0  0  0.094164  0  1.027742  0  0  0.096497  0.092222  0  1.028045  0
H  H27  1  0.71713807  0.45943714  0.01239270  1  0  0.079811  0  0.956817  0  0  0.093135  0  1.027751  0  0  0.094194  0  1.02773  0  0  0.096505  0.092251  0  1.028034  0
H  H28  1  0.33184763  0.42290323  0.15751453  1  0  0.081112  0  0.957713  0  0  0.096985  0  1.028429  0  0  0.097425  0  1.029018  0  0  0.096467  0.096165  0  1.028825  0
H  H29  1  0.66815232  0.57709650  0.84248562  1  0  0.081103  0  0.957725  0  0  0.096975  0  1.028442  0  0  0.097416  0  1.029031  0  0  0.096456  0.096155  0  1.028839  0
C  C30  1  0.90849153  0.70306889  0.95380671  1  0  0.756635  0  3.823946  0  0  0.712579  0  4.12059  0  0  0.746952  0  4.112334  0  0  0.241545  0.689314  0  4.127187  0
C  C31  1  0.09150835  0.29692975  0.04619391  1  0  0.756582  0  3.824068  0  0  0.71258  0  4.120646  0  0  0.746953  0  4.112388  0  0  0.241548  0.689316  0  4.127241  0
C  C32  1  0.82142620  0.83249046  0.87082964  1  0  -0.170576  0  3.611891  0  0  -0.231957  0  3.854997  0  0  -0.232287  0  3.859208  0  0  -0.043544  -0.231625  0  3.852118  0
C  C33  1  0.17857368  0.16750818  0.12917098  1  0  -0.170522  0  3.611919  0  0  -0.231889  0  3.854977  0  0  -0.232219  0  3.859187  0  0  -0.043519  -0.231562  0  3.852103  0
C  C34  1  0.66634139  0.93528246  0.06591362  1  0  0.520886  0  3.822865  0  0  0.463826  0  4.111688  0  0  0.486616  0  4.12053  0  0  0.34723  0.448633  0  4.105283  0
C  C35  1  0.33365862  0.06471836  0.93408705  1  0  0.520815  0  3.822817  0  0  0.463774  0  4.111621  0  0  0.486563  0  4.120463  0  0  0.347218  0.448581  0  4.105215  0
C  C36  1  0.87603139  0.72364552  0.45615791  1  0  0.753832  0  3.834905  0  0  0.70738  0  4.13589  0  0  0.741812  0  4.127985  0  0  0.236804  0.683886  0  4.142782  0
C  C37  1  0.12396988  0.27635639  0.54383995  1  0  0.75383  0  3.834884  0  0  0.707343  0  4.135937  0  0  0.741772  0  4.128035  0  0  0.236785  0.683852  0  4.142823  0
C  C38  1  0.76108978  0.83726413  0.39818736  1  0  -0.17677  0  3.623461  0  0  -0.235404  0  3.865068  0  0  -0.235781  0  3.868943  0  0  -0.047113  -0.234787  0  3.861829  0
C  C39  1  0.23891142  0.16273669  0.60181197  1  0  -0.176745  0  3.623458  0  0  -0.235354  0  3.865047  0  0  -0.235735  0  3.868923  0  0  -0.047112  -0.23474  0  3.861805  0
C  C40  1  0.63263126  0.95062033  0.58938514  1  0  0.514092  0  3.823005  0  0  0.457562  0  4.114549  0  0  0.479996  0  4.123504  0  0  0.342642  0.442878  0  4.10725  0
C  C41  1  0.36736749  0.04937939  0.41061537  1  0  0.514159  0  3.822992  0  0  0.457637  0  4.114517  0  0  0.480071  0  4.123472  0  0  0.342685  0.442952  0  4.107222  0
C  C42  1  0.30603656  0.53411648  0.09074814  1  0  -0.014093  0  3.616219  0  0  -0.106531  0  3.87894  0  0  -0.100954  0  3.885324  0  0  -0.150566  -0.110048  0  3.875325  0
C  C43  1  0.69396338  0.46588324  0.90925300  1  0  -0.014135  0  3.616207  0  0  -0.106572  0  3.878933  0  0  -0.100997  0  3.885317  0  0  -0.150565  -0.110089  0  3.875318  0
N  N44  1  0.78492905  0.93784501  0.93763457  1  0  -0.04627  0  3.490706  0  0  0.038413  0  3.721555  0  0  0.023904  0  3.743782  0  0  -0.128655  0.047896  0  3.706512  0
N  N45  1  0.21507090  0.06215472  0.06236558  1  0  -0.04624  0  3.490655  0  0  0.038446  0  3.721492  0  0  0.023939  0  3.743717  0  0  -0.128644  0.04793  0  3.706449  0
N  N46  1  0.87393223  0.06595992  0.86836863  1  0  -0.079813  0  2.843837  0  0  -0.090104  0  3.128315  0  0  -0.087568  0  3.137861  0  0  -0.066775  -0.091769  0  3.121852  0
N  N47  1  0.12606771  0.93403980  0.13163152  1  0  -0.079822  0  2.843775  0  0  -0.090116  0  3.128261  0  0  -0.087579  0  3.137806  0  0  -0.066774  -0.091777  0  3.121795  0
N  N48  1  0.80910493  0.13768347  0.95129713  1  0  -0.036889  0  3.116214  0  0  -0.014748  0  3.415953  0  0  -0.011953  0  3.423294  0  0  -0.06732  -0.01592  0  3.410374  0
N  N49  1  0.19089502  0.86231626  0.04870401  1  0  -0.036911  0  3.116144  0  0  -0.014779  0  3.415892  0  0  -0.011983  0  3.423234  0  0  -0.067341  -0.01595  0  3.410314  0
N  N50  1  0.68139259  0.06260779  0.07440099  1  0  -0.379469  0  2.938637  0  0  -0.346875  0  3.221077  0  0  -0.362088  0  3.230077  0  0  -0.22363  -0.336772  0  3.214694  0
N  N51  1  0.31860736  0.93739194  0.92560015  1  0  -0.379419  0  2.938609  0  0  -0.346837  0  3.221039  0  0  -0.36205  0  3.230041  0  0  -0.223608  -0.336734  0  3.214657  0
N  N52  1  0.55164298  0.82841366  0.16088389  1  0  -0.680827  0  3.102297  0  0  -0.649609  0  3.355167  0  0  -0.669344  0  3.3492  0  0  -0.578241  -0.635425  0  3.358385  0
N  N53  1  0.44835689  0.17158497  0.83911673  1  0  -0.680847  0  3.102254  0  0  -0.649635  0  3.355119  0  0  -0.669367  0  3.34915  0  0  -0.578282  -0.635451  0  3.358336  0
N  N54  1  0.73505498  0.94961314  0.45514150  1  0  -0.047566  0  3.500975  0  0  0.037709  0  3.729812  0  0  0.023566  0  3.751372  0  0  -0.13234  0.04736  0  3.714541  0
N  N55  1  0.26494503  0.05038767  0.54485917  1  0  -0.047593  0  3.501088  0  0  0.037675  0  3.729932  0  0  0.02353  0  3.751498  0  0  -0.132328  0.047327  0  3.714661  0
N  N56  1  0.81808070  0.08090789  0.36963398  1  0  -0.077401  0  2.916516  0  0  -0.087025  0  3.212401  0  0  -0.0842  0  3.2247  0  0  -0.068177  -0.089386  0  3.20687  0
N  N57  1  0.18191931  0.91909292  0.63036569  1  0  -0.077424  0  2.916589  0  0  -0.08704  0  3.212473  0  0  -0.084214  0  3.224774  0  0  -0.06821  -0.0894  0  3.20694  0
N  N58  1  0.76659991  0.15745492  0.44970779  1  0  -0.15203  0  3.191358  0  0  -0.133033  0  3.514364  0  0  -0.136614  0  3.525397  0  0  -0.123289  -0.134133  0  3.508292  0
N  N59  1  0.23340003  0.84254480  0.55029335  1  0  -0.152034  0  3.191414  0  0  -0.13304  0  3.514417  0  0  -0.13662  0  3.52545  0  0  -0.123287  -0.134139  0  3.508347  0
N  N60  1  0.65166288  0.08252483  0.58663180  1  0  -0.359693  0  2.907076  0  0  -0.329451  0  3.194745  0  0  -0.343815  0  3.206778  0  0  -0.220968  -0.319873  0  3.187848  0
N  N61  1  0.34833587  0.91747489  0.41336970  1  0  -0.359734  0  2.907195  0  0  -0.329491  0  3.194866  0  0  -0.343855  0  3.206897  0  0  -0.221002  -0.319913  0  3.187972  0
N  N62  1  0.53353723  0.83897151  0.70527688  1  0  -0.691014  0  3.111332  0  0  -0.656227  0  3.36284  0  0  -0.676693  0  3.357458  0  0  -0.578789  -0.641699  0  3.365936  0
N  N63  1  0.46646145  0.16102712  0.29472509  1  0  -0.691034  0  3.111286  0  0  -0.656251  0  3.362797  0  0  -0.676719  0  3.357414  0  0  -0.578777  -0.641723  0  3.365894  0
Cl  Cl64  1  0.56912821  0.45209145  0.32188181  1  0  -0.697378  0  0.818179  0  0  -0.644705  0  1.055361  0  0  -0.665523  0  1.028097  0  0  -0.299134  -0.63492  0  1.068501  0
Cl  Cl65  1  0.43087180  0.54790937  0.67811787  1  0  -0.697378  0  0.818182  0  0  -0.644708  0  1.055368  0  0  -0.665521  0  1.028104  0  0  -0.299134  -0.63492  0  1.068508  0
O  O66  1  0.87688049  0.66323792  0.09720702  1  0  -0.729349  0  2.046869  0  0  -0.683251  0  2.306674  0  0  -0.71353  0  2.293875  0  0  -0.384291  -0.666281  0  2.313626  0
O  O67  1  0.12312079  0.33676399  0.90279381  1  0  -0.729352  0  2.04696  0  0  -0.683263  0  2.30672  0  0  -0.713558  0  2.293958  0  0  -0.384275  -0.666297  0  2.313681  0
O  O68  1  0.00135007  0.64368981  0.87157781  1  0  -0.742999  0  2.069449  0  0  -0.692003  0  2.340105  0  0  -0.725018  0  2.325463  0  0  -0.413952  -0.674134  0  2.348775  0
O  O69  1  0.99864988  0.35630992  0.12842333  1  0  -0.742998  0  2.06948  0  0  -0.692032  0  2.340123  0  0  -0.725047  0  2.325482  0  0  -0.413967  -0.674162  0  2.348792  0
O  O70  1  0.91124039  0.63429065  0.39387436  1  0  -0.753782  0  2.083163  0  0  -0.699468  0  2.351913  0  0  -0.732234  0  2.338361  0  0  -0.407418  -0.681519  0  2.361096  0
O  O71  1  0.08875955  0.36570908  0.60612480  1  0  -0.753763  0  2.083159  0  0  -0.699443  0  2.351934  0  0  -0.732205  0  2.338384  0  0  -0.407396  -0.681492  0  2.361114  0
O  O72  1  0.92657584  0.72453518  0.55948848  1  0  -0.704177  0  1.991307  0  0  -0.656941  0  2.244548  0  0  -0.687616  0  2.232732  0  0  -0.385826  -0.639526  0  2.251243  0
O  O73  1  0.07342417  0.27546564  0.44051119  1  0  -0.704187  0  1.991325  0  0  -0.656938  0  2.244568  0  0  -0.687611  0  2.232753  0  0  -0.385829  -0.639525  0  2.251261  0
O  O74  1  0.72693186  0.37540336  0.59884291  1  0  -0.887191  0  1.917175  0  0  -0.837354  0  2.111265  0  0  -0.862153  0  2.078469  0  0  -0.638792  -0.823986  0  2.131504  0
O  O75  1  0.27306935  0.62459746  0.40115741  1  0  -0.887227  0  1.917114  0  0  -0.837387  0  2.111227  0  0  -0.862187  0  2.078431  0  0  -0.638818  -0.824019  0  2.131465  0
O  O76  1  0.16823110  0.57338070  0.18946459  1  0  -0.612401  0  2.273722  0  0  -0.531459  0  2.517059  0  0  -0.556496  0  2.508376  0  0  -0.448678  -0.517111  0  2.522581  0
O  O77  1  0.83176890  0.42662011  0.81053508  1  0  -0.612402  0  2.273716  0  0  -0.531462  0  2.517056  0  0  -0.556498  0  2.508374  0  0  -0.448682  -0.517112  0  2.522576  0
