# generated using pymatgen
data_Zn4P3H13C9(NO2)6
_symmetry_space_group_name_H-M   'P 1'
_cell_length_a   9.62573363
_cell_length_b   9.85963418
_cell_length_c   12.30429110
_cell_angle_alpha   76.57657114
_cell_angle_beta   77.39083607
_cell_angle_gamma   68.17246680
_symmetry_Int_Tables_number   1
_chemical_formula_structural   Zn4P3H13C9(NO2)6
_chemical_formula_sum   'Zn8 P6 H26 C18 N12 O24'
_cell_volume   1043.09440150
_cell_formula_units_Z   2
loop_
 _symmetry_equiv_pos_site_id
 _symmetry_equiv_pos_as_xyz
  1  'x, y, z'
loop_
 _atom_site_type_symbol
 _atom_site_label
 _atom_site_symmetry_multiplicity
 _atom_site_fract_x
 _atom_site_fract_y
 _atom_site_fract_z
 _atom_site_occupancy
 _atom_site_pbe_bader_spin_density
 _atom_site_pbe_cm5_charge
 _atom_site_pbe_ddec_charge
 _atom_site_pbe_ddec_spin_density
 _atom_site_pbe_ddec_sum_bond_order
 _atom_site_pbe_magmom
Zn  Zn0  1  0.13694626  0.72590711  0.63505455  1  0  0.725099  0.847128  0  2.400918  0
Zn  Zn1  1  0.86305137  0.27409504  0.36494658  1  0  0.725106  0.84712  0  2.400934  0
Zn  Zn2  1  0.14697350  0.29906812  0.07367964  1  0  0.727449  0.990213  0  2.233476  0
Zn  Zn3  1  0.85302703  0.70093182  0.92632222  1  0  0.727428  0.990159  0  2.233533  0
Zn  Zn4  1  0.01329308  0.81717094  0.10415946  1  0  0.714488  1.052664  0  2.280406  0
Zn  Zn5  1  0.98670997  0.18282791  0.89584055  1  0  0.714493  1.052664  0  2.280384  0
Zn  Zn6  1  0.34092297  0.52337007  0.90410774  1  0  0.718169  1.068784  0  2.297603  0
Zn  Zn7  1  0.65908047  0.47662768  0.09589158  1  0  0.718197  1.068806  0  2.297556  0
P  P8  1  0.11215350  0.44681433  0.81184450  1  0  0.385228  1.50541  0  5.514781  0
P  P9  1  0.88784665  0.55318672  0.18815641  1  0  0.385185  1.505345  0  5.514825  0
P  P10  1  0.10867203  0.84393132  0.84651224  1  0  0.382347  1.520186  0  5.520475  0
P  P11  1  0.89132996  0.15606754  0.15348713  1  0  0.382345  1.520043  0  5.520619  0
P  P12  1  0.32323667  0.59045285  0.15670204  1  0  0.402721  1.530037  0  5.468232  0
P  P13  1  0.67676706  0.40954712  0.84329684  1  0  0.402634  1.529909  0  5.468433  0
H  H14  1  0.17176161  0.47448603  0.24475794  1  0  0.308635  0.392843  0  0.941808  0
H  H15  1  0.82824105  0.52551392  0.75524274  1  0  0.308643  0.39286  0  0.941794  0
H  H16  1  0.60560213  0.60702776  0.34718563  1  0  0.316996  0.299277  0  0.959606  0
H  H17  1  0.39439272  0.39297332  0.65281210  1  0  0.316986  0.299309  0  0.959556  0
H  H18  1  0.84505655  0.77794935  0.32385902  1  0  0.313795  0.296934  0  0.982736  0
H  H19  1  0.15494399  0.22205061  0.67614039  1  0  0.313811  0.296962  0  0.982713  0
H  H20  1  0.68559492  0.02437797  0.14232599  1  0  0.313478  0.293778  0  0.970456  0
H  H21  1  0.31440774  0.97562198  0.85767470  1  0  0.313465  0.293661  0  0.970671  0
H  H22  1  0.31407556  0.69377401  0.37822527  1  0  0.138886  0.102658  0  1.010486  0
H  H23  1  0.68592025  0.30623038  0.62177332  1  0  0.13888  0.102641  0  1.010506  0
H  H24  1  0.70616290  0.62727709  0.51345908  1  0  0.121591  0.118858  0  1.023905  0
H  H25  1  0.29383387  0.37271843  0.48654013  1  0  0.121585  0.118842  0  1.023906  0
H  H26  1  0.45305653  0.71762751  0.67457559  1  0  0.118259  0.123412  0  1.028787  0
H  H27  1  0.54694054  0.28237024  0.32542236  1  0  0.118301  0.123464  0  1.028765  0
H  H28  1  0.07948565  0.63522011  0.41063803  1  0  0.132919  0.098688  0  1.03536  0
H  H29  1  0.92051305  0.36478204  0.58936374  1  0  0.132912  0.098666  0  1.035385  0
H  H30  1  0.65922337  0.98296250  0.43934834  1  0  0.123667  0.1182  0  1.010587  0
H  H31  1  0.34077283  0.01704079  0.56064957  1  0  0.123676  0.118209  0  1.010602  0
H  H32  1  0.80596777  0.94904233  0.62150707  1  0  0.120855  0.122928  0  1.007966  0
H  H33  1  0.19403123  0.05096207  0.37849181  1  0  0.120852  0.122948  0  1.007996  0
H  H34  1  0.47833528  0.27427710  0.10445821  1  0  0.13408  0.110801  0  1.049289  0
H  H35  1  0.52166497  0.72572065  0.89554083  1  0  0.134081  0.110804  0  1.0493  0
H  H36  1  0.58271599  0.80832199  0.16878550  1  0  0.118268  0.117921  0  1.041279  0
H  H37  1  0.41728482  0.19168014  0.83121835  1  0  0.11826  0.117892  0  1.041327  0
H  H38  1  0.28306370  0.94281612  0.13875738  1  0  0.116008  0.131136  0  1.032643  0
H  H39  1  0.71693652  0.05718157  0.86124819  1  0  0.116  0.131108  0  1.032646  0
C  C40  1  0.38334803  0.69116134  0.43772344  1  0  0.145537  0.150991  0  3.924635  0
C  C41  1  0.61664749  0.30884084  0.56227479  1  0  0.145579  0.151022  0  3.924746  0
C  C42  1  0.58713216  0.65778910  0.50978124  1  0  -0.000514  -0.048892  0  3.953665  0
C  C43  1  0.41286453  0.34220976  0.49021657  1  0  -0.000558  -0.048906  0  3.953665  0
C  C44  1  0.46207819  0.70291192  0.58848146  1  0  -0.006705  -0.03953  0  3.975547  0
C  C45  1  0.53791917  0.29708805  0.41151604  1  0  -0.006716  -0.039581  0  3.975415  0
C  C46  1  0.98601899  0.72326108  0.44644060  1  0  0.14025  0.139305  0  3.929357  0
C  C47  1  0.01397933  0.27674220  0.55355858  1  0  0.140299  0.139399  0  3.929284  0
C  C48  1  0.76685194  0.90598081  0.46211563  1  0  0.005797  -0.04222  0  3.948798  0
C  C49  1  0.23314250  0.09402132  0.53788684  1  0  0.005776  -0.042232  0  3.948878  0
C  C50  1  0.83969898  0.88893165  0.55133966  1  0  -2.9e-05  -0.027799  0  3.953078  0
C  C51  1  0.16029750  0.11107385  0.44865943  1  0  -5.1e-05  -0.027855  0  3.953185  0
C  C52  1  0.46459489  0.16712093  0.11874446  1  0  0.142767  0.157598  0  3.903096  0
C  C53  1  0.53540458  0.83287903  0.88125513  1  0  0.142775  0.157621  0  3.903047  0
C  C54  1  0.51549040  0.92444849  0.15291363  1  0  -0.002595  -0.048183  0  3.93126  0
C  C55  1  0.48451120  0.07555146  0.84708723  1  0  -0.002636  -0.048277  0  3.931209  0
C  C56  1  0.36667928  0.99286155  0.13734596  1  0  -0.007591  -0.039935  0  3.971309  0
C  C57  1  0.63332201  0.00713614  0.86265861  1  0  -0.007568  -0.039821  0  3.97114  0
N  N58  1  0.33514147  0.72328596  0.54238329  1  0  -0.369933  -0.323129  0  3.618656  0
N  N59  1  0.66485511  0.27671622  0.45761557  1  0  -0.369958  -0.323159  0  3.618723  0
N  N60  1  0.53517265  0.65180518  0.41577928  1  0  -0.376631  -0.197339  0  3.681648  0
N  N61  1  0.46482297  0.34819367  0.58421953  1  0  -0.376604  -0.197296  0  3.681675  0
N  N62  1  0.97661103  0.77420964  0.54043060  1  0  -0.366422  -0.304894  0  3.6071  0
N  N63  1  0.02338623  0.22579363  0.45956877  1  0  -0.366393  -0.304898  0  3.607267  0
N  N64  1  0.86063047  0.80067757  0.39783136  1  0  -0.376608  -0.198075  0  3.691802  0
N  N65  1  0.13936862  0.19932349  0.60216810  1  0  -0.376655  -0.198135  0  3.691916  0
N  N66  1  0.33627435  0.14495000  0.11590945  1  0  -0.368923  -0.340225  0  3.615809  0
N  N67  1  0.66372734  0.85504661  0.88409281  1  0  -0.36893  -0.340251  0  3.615811  0
N  N68  1  0.57425068  0.03600312  0.14129799  1  0  -0.373747  -0.192273  0  3.665308  0
N  N69  1  0.42575015  0.96399905  0.85870261  1  0  -0.373709  -0.192146  0  3.665507  0
O  O70  1  0.20839383  0.51075366  0.71051732  1  0  -0.376307  -0.780474  0  2.318876  0
O  O71  1  0.79160776  0.48924629  0.28948355  1  0  -0.376326  -0.780436  0  2.318886  0
O  O72  1  0.03782066  0.86713078  0.74018169  1  0  -0.389532  -0.769785  0  2.258693  0
O  O73  1  0.96217988  0.13286917  0.25981854  1  0  -0.389564  -0.769782  0  2.258705  0
O  O74  1  0.18334613  0.42476136  0.92125881  1  0  -0.380056  -0.809709  0  2.440022  0
O  O75  1  0.81665548  0.57523860  0.07874042  1  0  -0.380046  -0.809668  0  2.440033  0
O  O76  1  0.00061080  0.78829719  0.95066524  1  0  -0.385042  -0.819225  0  2.432446  0
O  O77  1  0.99939186  0.21170276  0.04933544  1  0  -0.385051  -0.819198  0  2.432469  0
O  O78  1  0.94670963  0.55492779  0.82397030  1  0  -0.376099  -0.799047  0  2.37461  0
O  O79  1  0.05329090  0.44507215  0.17603074  1  0  -0.376077  -0.799056  0  2.3746  0
O  O80  1  0.11644355  0.29397407  0.79667721  1  0  -0.380671  -0.789604  0  2.314511  0
O  O81  1  0.88355912  0.70602591  0.20332103  1  0  -0.380659  -0.78961  0  2.314575  0
O  O82  1  0.12014928  0.98725261  0.86873459  1  0  -0.382761  -0.793843  0  2.336028  0
O  O83  1  0.87985377  0.01274623  0.13126623  1  0  -0.382762  -0.793845  0  2.336056  0
O  O84  1  0.21782022  0.75245051  0.13242873  1  0  -0.385255  -0.79968  0  2.309269  0
O  O85  1  0.78218283  0.24754834  0.86757128  1  0  -0.385269  -0.799688  0  2.309302  0
O  O86  1  0.47298103  0.58731941  0.18388197  1  0  -0.382823  -0.776851  0  2.222825  0
O  O87  1  0.52702385  0.41267722  0.81611895  1  0  -0.382769  -0.776787  0  2.222767  0
O  O88  1  0.27017485  0.73048973  0.83838327  1  0  -0.388429  -0.81313  0  2.335743  0
O  O89  1  0.72982646  0.26950800  0.16161722  1  0  -0.388445  -0.813093  0  2.335739  0
O  O90  1  0.34774758  0.49975466  0.06414556  1  0  -0.388881  -0.838903  0  2.42075  0
O  O91  1  0.65225441  0.50024419  0.93585381  1  0  -0.388877  -0.838897  0  2.420804  0
O  O92  1  0.24596316  0.50735891  0.26874245  1  0  -0.401698  -0.696935  0  2.186315  0
O  O93  1  0.75404018  0.49264216  0.73125629  1  0  -0.401682  -0.696909  0  2.186349  0
