# generated using pymatgen
data_Cu2H6C5(IN)2
_symmetry_space_group_name_H-M   'P 1'
_cell_length_a   4.09054031
_cell_length_b   15.12980940
_cell_length_c   15.96793473
_cell_angle_alpha   113.59919363
_cell_angle_beta   90.00087236
_cell_angle_gamma   89.99936423
_symmetry_Int_Tables_number   1
_chemical_formula_structural   Cu2H6C5(IN)2
_chemical_formula_sum   'Cu8 H24 C20 I8 N8'
_cell_volume   905.59281803
_cell_formula_units_Z   4
loop_
 _symmetry_equiv_pos_site_id
 _symmetry_equiv_pos_as_xyz
  1  'x, y, z'
loop_
 _atom_site_type_symbol
 _atom_site_label
 _atom_site_symmetry_multiplicity
 _atom_site_fract_x
 _atom_site_fract_y
 _atom_site_fract_z
 _atom_site_occupancy
 _atom_site_hle17_bader_spin_density
 _atom_site_hle17_ddec_charge
 _atom_site_hle17_ddec_spin_density
 _atom_site_hle17_ddec_sum_bond_order
 _atom_site_hle17_magmom
 _atom_site_hse06_10hf_bader_spin_density
 _atom_site_hse06_10hf_ddec_charge
 _atom_site_hse06_10hf_ddec_spin_density
 _atom_site_hse06_10hf_ddec_sum_bond_order
 _atom_site_hse06_10hf_magmom
 _atom_site_hse06_bader_spin_density
 _atom_site_hse06_ddec_charge
 _atom_site_hse06_ddec_spin_density
 _atom_site_hse06_ddec_sum_bond_order
 _atom_site_hse06_magmom
 _atom_site_pbe_bader_spin_density
 _atom_site_pbe_cm5_charge
 _atom_site_pbe_ddec_charge
 _atom_site_pbe_ddec_spin_density
 _atom_site_pbe_ddec_sum_bond_order
 _atom_site_pbe_magmom
Cu  Cu0  1  0.91265809  0.52157154  0.30943074  1  0  0.224688  0  2.238959  0  0  0.149005  0  2.722234  0  0  0.160304  0  2.665805  0  0  0.242814  0.143612  0  2.75956  0
Cu  Cu1  1  0.58733649  0.52157798  0.80943376  1  0  0.224608  0  2.239007  0  0  0.148873  0  2.722325  0  0  0.160178  0  2.665897  0  0  0.242759  0.143474  0  2.759631  0
Cu  Cu2  1  0.08734373  0.47842861  0.69056769  1  0  0.22466  0  2.238964  0  0  0.148962  0  2.722243  0  0  0.160234  0  2.66582  0  0  0.242802  0.143584  0  2.75957  0
Cu  Cu3  1  0.41266288  0.47842287  0.19056431  1  0  0.224639  0  2.238924  0  0  0.148899  0  2.722281  0  0  0.160181  0  2.665857  0  0  0.242782  0.143518  0  2.759583  0
Cu  Cu4  1  0.93161735  0.93243277  0.70414821  1  0  0.248155  0  2.130569  0  0  0.172303  0  2.587805  0  0  0.182936  0  2.53566  0  0  0.256281  0.167347  0  2.622605  0
Cu  Cu5  1  0.56836976  0.93243851  0.20415269  1  0  0.248079  0  2.130659  0  0  0.172184  0  2.587921  0  0  0.182826  0  2.535771  0  0  0.256269  0.167235  0  2.622718  0
Cu  Cu6  1  0.06839425  0.06756597  0.29585221  1  0  0.248231  0  2.130493  0  0  0.172341  0  2.587747  0  0  0.182984  0  2.535594  0  0  0.256276  0.167394  0  2.622541  0
Cu  Cu7  1  0.43161983  0.06755950  0.79584683  1  0  0.248116  0  2.1307  0  0  0.172206  0  2.587954  0  0  0.182843  0  2.535807  0  0  0.256283  0.167269  0  2.622723  0
H  H8  1  0.64996436  0.72094541  0.36606960  1  0  0.097156  0  0.94667  0  0  0.101399  0  1.018065  0  0  0.105702  0  1.014564  0  0  0.105535  0.097914  0  1.021311  0
H  H9  1  0.85006724  0.72094927  0.86607459  1  0  0.097166  0  0.946644  0  0  0.101422  0  1.018024  0  0  0.105725  0  1.014521  0  0  0.105582  0.097935  0  1.021274  0
H  H10  1  0.35006679  0.27905476  0.63393009  1  0  0.097193  0  0.946708  0  0  0.101448  0  1.018063  0  0  0.105755  0  1.014558  0  0  0.105553  0.097963  0  1.02131  0
H  H11  1  0.14992969  0.27905377  0.13392553  1  0  0.097158  0  0.946729  0  0  0.101433  0  1.018071  0  0  0.105739  0  1.014565  0  0  0.105563  0.097948  0  1.02132  0
H  H12  1  0.18151448  0.58281807  0.50046107  1  0  0.085771  0  0.965261  0  0  0.089463  0  1.039857  0  0  0.09294  0  1.03759  0  0  0.098621  0.086764  0  1.041851  0
H  H13  1  0.31849421  0.58282257  0.00045921  1  0  0.085751  0  0.965316  0  0  0.089489  0  1.03987  0  0  0.092966  0  1.0376  0  0  0.098637  0.086788  0  1.041854  0
H  H14  1  0.81849712  0.41717997  0.49954034  1  0  0.085784  0  0.965331  0  0  0.089518  0  1.039896  0  0  0.092997  0  1.037626  0  0  0.098662  0.086819  0  1.041891  0
H  H15  1  0.68149294  0.41717827  0.99953697  1  0  0.08573  0  0.965337  0  0  0.089468  0  1.039889  0  0  0.092944  0  1.03762  0  0  0.098633  0.086766  0  1.041875  0
H  H16  1  0.18717986  0.73586528  0.64225032  1  0  0.084226  0  0.988349  0  0  0.089358  0  1.059355  0  0  0.092856  0  1.056873  0  0  0.091194  0.086524  0  1.061703  0
H  H17  1  0.31280901  0.73587196  0.14224986  1  0  0.084167  0  0.988474  0  0  0.089333  0  1.059414  0  0  0.092836  0  1.056928  0  0  0.091197  0.086499  0  1.061763  0
H  H18  1  0.81280974  0.26413274  0.35774983  1  0  0.084153  0  0.988454  0  0  0.089337  0  1.059406  0  0  0.092835  0  1.056923  0  0  0.091208  0.08651  0  1.061737  0
H  H19  1  0.68716836  0.26412674  0.85774804  1  0  0.084237  0  0.988454  0  0  0.089369  0  1.059431  0  0  0.092866  0  1.056951  0  0  0.091235  0.08654  0  1.061766  0
H  H20  1  0.77121956  0.95483441  0.51886301  1  0  0.123999  0  0.963659  0  0  0.146846  0  1.022655  0  0  0.148411  0  1.022927  0  0  0.086809  0.145501  0  1.022536  0
H  H21  1  0.72876334  0.95483918  0.01886903  1  0  0.123949  0  0.963702  0  0  0.146804  0  1.022695  0  0  0.148367  0  1.022973  0  0  0.086798  0.145462  0  1.022586  0
H  H22  1  0.22878959  0.04516434  0.48113804  1  0  0.123973  0  0.96363  0  0  0.146806  0  1.022663  0  0  0.148368  0  1.022938  0  0  0.086791  0.145462  0  1.022544  0
H  H23  1  0.27121892  0.04516243  0.98113120  1  0  0.123991  0  0.963689  0  0  0.14682  0  1.022697  0  0  0.148381  0  1.022976  0  0  0.086805  0.145475  0  1.022587  0
H  H24  1  0.42129707  0.92495075  0.56614906  1  0  0.117622  0  0.972138  0  0  0.129663  0  1.053582  0  0  0.133407  0  1.049294  0  0  0.082922  0.12656  0  1.05696  0
H  H25  1  0.07869468  0.92496009  0.06615554  1  0  0.117653  0  0.972044  0  0  0.129702  0  1.053475  0  0  0.13345  0  1.049182  0  0  0.082941  0.126601  0  1.056857  0
H  H26  1  0.57870474  0.07504728  0.43385172  1  0  0.117694  0  0.972231  0  0  0.129759  0  1.053616  0  0  0.133495  0  1.049333  0  0  0.082961  0.126656  0  1.05699  0
H  H27  1  0.92128758  0.07504366  0.93384422  1  0  0.117653  0  0.972149  0  0  0.129705  0  1.053568  0  0  0.13345  0  1.049273  0  0  0.082922  0.126599  0  1.056953  0
H  H28  1  0.46447453  0.88133639  0.44413904  1  0  0.117345  0  0.976487  0  0  0.136862  0  1.03835  0  0  0.138486  0  1.039359  0  0  0.078793  0.135508  0  1.037878  0
H  H29  1  0.03551870  0.88134369  0.94414529  1  0  0.117371  0  0.976569  0  0  0.136876  0  1.038448  0  0  0.138492  0  1.039464  0  0  0.078818  0.135525  0  1.037979  0
H  H30  1  0.53553218  0.11866092  0.55586211  1  0  0.117412  0  0.976401  0  0  0.136939  0  1.038246  0  0  0.138555  0  1.039263  0  0  0.078844  0.135588  0  1.037772  0
H  H31  1  0.96446845  0.11865935  0.05585483  1  0  0.117346  0  0.976608  0  0  0.136874  0  1.03844  0  0  0.138495  0  1.039451  0  0  0.078814  0.135522  0  1.037968  0
C  C32  1  0.76386118  0.80976522  0.50740897  1  0  0.271068  0  3.684158  0  0  0.282216  0  3.9222  0  0  0.288273  0  3.941045  0  0  0.120628  0.277635  0  3.910296  0
C  C33  1  0.73613651  0.80977065  0.00741212  1  0  0.270933  0  3.684172  0  0  0.282229  0  3.922017  0  0  0.288294  0  3.940849  0  0  0.120586  0.277642  0  3.91013  0
C  C34  1  0.23614797  0.19023283  0.49259308  1  0  0.271274  0  3.683696  0  0  0.28237  0  3.92181  0  0  0.288435  0  3.940646  0  0  0.120673  0.277789  0  3.909905  0
C  C35  1  0.26385064  0.19023167  0.99258773  1  0  0.27109  0  3.683931  0  0  0.282176  0  3.922082  0  0  0.288235  0  3.940924  0  0  0.120571  0.277586  0  3.910185  0
C  C36  1  0.76769138  0.72428484  0.42857990  1  0  0.015035  0  3.618885  0  0  -0.018353  0  3.865732  0  0  -0.016764  0  3.879827  0  0  0.03719  -0.020193  0  3.857862  0
C  C37  1  0.73232169  0.72428597  0.92858028  1  0  0.01514  0  3.618822  0  0  -0.018341  0  3.86567  0  0  -0.016749  0  3.879755  0  0  0.037178  -0.020192  0  3.85781  0
C  C38  1  0.23233000  0.27571390  0.57142052  1  0  0.014887  0  3.618863  0  0  -0.018465  0  3.865725  0  0  -0.016883  0  3.879822  0  0  0.037158  -0.020301  0  3.857852  0
C  C39  1  0.26766546  0.27571563  0.07141931  1  0  0.014968  0  3.618783  0  0  -0.018429  0  3.865697  0  0  -0.016838  0  3.879786  0  0  0.037165  -0.020275  0  3.85783  0
C  C40  1  0.06175157  0.64790917  0.50216304  1  0  0.06158  0  3.673455  0  0  0.029732  0  3.930746  0  0  0.031913  0  3.945025  0  0  0.030034  0.027583  0  3.922684  0
C  C41  1  0.43824979  0.64791421  0.00216374  1  0  0.061394  0  3.673608  0  0  0.029374  0  3.931051  0  0  0.031565  0  3.945316  0  0  0.029838  0.027233  0  3.922959  0
C  C42  1  0.93825758  0.35209103  0.49783917  1  0  0.061475  0  3.673424  0  0  0.029546  0  3.930759  0  0  0.031735  0  3.945021  0  0  0.029965  0.027388  0  3.922719  0
C  C43  1  0.56174470  0.35208593  0.99783407  1  0  0.061447  0  3.673576  0  0  0.029506  0  3.930918  0  0  0.031683  0  3.945212  0  0  0.029915  0.027362  0  3.92283  0
C  C44  1  0.06381058  0.73248812  0.58051462  1  0  0.083786  0  3.67304  0  0  0.054796  0  3.923917  0  0  0.059663  0  3.937386  0  0  0.032564  0.050891  0  3.916415  0
C  C45  1  0.43619198  0.73249168  0.08051226  1  0  0.083906  0  3.673054  0  0  0.054985  0  3.923755  0  0  0.059808  0  3.937301  0  0  0.032632  0.051081  0  3.916253  0
C  C46  1  0.93620591  0.26750706  0.41948762  1  0  0.083948  0  3.673119  0  0  0.055001  0  3.923865  0  0  0.05985  0  3.937375  0  0  0.032619  0.051097  0  3.916365  0
C  C47  1  0.56380006  0.26750846  0.91948555  1  0  0.083731  0  3.673188  0  0  0.054815  0  3.923908  0  0  0.059665  0  3.937403  0  0  0.032521  0.050912  0  3.916412  0
C  C48  1  0.59391864  0.89692214  0.50860580  1  0  -0.376273  0  3.715538  0  0  -0.456765  0  3.944851  0  0  -0.461302  0  3.952466  0  0  -0.254084  -0.452993  0  3.940055  0
C  C49  1  0.90607816  0.89692945  0.00861096  1  0  -0.376242  0  3.715775  0  0  -0.456793  0  3.945059  0  0  -0.461328  0  3.952678  0  0  -0.254103  -0.453004  0  3.940238  0
C  C50  1  0.40610518  0.10307513  0.49139157  1  0  -0.376447  0  3.71561  0  0  -0.456885  0  3.944818  0  0  -0.461406  0  3.952444  0  0  -0.254149  -0.453117  0  3.940017  0
C  C51  1  0.09390899  0.10307360  0.99138980  1  0  -0.376341  0  3.715811  0  0  -0.456782  0  3.945044  0  0  -0.461314  0  3.952659  0  0  -0.254097  -0.453002  0  3.940255  0
I  I52  1  0.44304952  0.89558943  0.79476723  1  0  -0.343532  0  1.799006  0  0  -0.287407  0  2.253624  0  0  -0.305106  0  2.212935  0  0  -0.15562  -0.274778  0  2.282362  0
I  I53  1  0.05695899  0.89559444  0.29476889  1  0  -0.343487  0  1.799007  0  0  -0.287369  0  2.253653  0  0  -0.305066  0  2.212957  0  0  -0.155599  -0.274738  0  2.282391  0
I  I54  1  0.55695718  0.10441077  0.20523498  1  0  -0.343536  0  1.798971  0  0  -0.287426  0  2.253636  0  0  -0.305127  0  2.212945  0  0  -0.155622  -0.274803  0  2.28238  0
I  I55  1  0.94302816  0.10440503  0.70523242  1  0  -0.343513  0  1.799073  0  0  -0.287412  0  2.253733  0  0  -0.305108  0  2.213041  0  0  -0.155624  -0.274783  0  2.28247  0
I  I56  1  0.91197835  0.58351432  0.17738239  1  0  -0.334764  0  1.785069  0  0  -0.28282  0  2.249677  0  0  -0.301085  0  2.208549  0  0  -0.165006  -0.269199  0  2.278412  0
I  I57  1  0.58801109  0.58351570  0.67738292  1  0  -0.334774  0  1.785147  0  0  -0.282848  0  2.249745  0  0  -0.301121  0  2.208627  0  0  -0.165013  -0.26922  0  2.278489  0
I  I58  1  0.08801613  0.41648728  0.82261720  1  0  -0.334707  0  1.785013  0  0  -0.282758  0  2.249599  0  0  -0.301035  0  2.208486  0  0  -0.164977  -0.269132  0  2.278332  0
I  I59  1  0.41200050  0.41648517  0.32261641  1  0  -0.334756  0  1.785058  0  0  -0.282838  0  2.249666  0  0  -0.301115  0  2.208551  0  0  -0.165007  -0.269209  0  2.27841  0
N  N60  1  0.91977425  0.81420206  0.58419951  1  0  -0.270645  0  3.268967  0  0  -0.201681  0  3.539216  0  0  -0.210477  0  3.546596  0  0  -0.34085  -0.196746  0  3.534736  0
N  N61  1  0.58022525  0.81420772  0.08419963  1  0  -0.270626  0  3.268849  0  0  -0.201669  0  3.538956  0  0  -0.210463  0  3.546337  0  0  -0.340794  -0.19674  0  3.534491  0
N  N62  1  0.08023001  0.18580028  0.41580224  1  0  -0.270879  0  3.268866  0  0  -0.201977  0  3.539244  0  0  -0.210777  0  3.54662  0  0  -0.340988  -0.197043  0  3.534764  0
N  N63  1  0.41976190  0.18579315  0.91579970  1  0  -0.270591  0  3.26876  0  0  -0.201586  0  3.538909  0  0  -0.210381  0  3.546291  0  0  -0.340761  -0.196653  0  3.534438  0
N  N64  1  0.91662183  0.64347697  0.42480441  1  0  -0.205234  0  3.371043  0  0  -0.134583  0  3.651976  0  0  -0.140106  0  3.659483  0  0  -0.34785  -0.13192  0  3.647694  0
N  N65  1  0.58340396  0.64348486  0.92480732  1  0  -0.20504  0  3.371173  0  0  -0.134326  0  3.652069  0  0  -0.139844  0  3.659564  0  0  -0.347723  -0.131652  0  3.647766  0
N  N66  1  0.08339710  0.35652249  0.57519627  1  0  -0.205057  0  3.371032  0  0  -0.134441  0  3.651983  0  0  -0.139953  0  3.659476  0  0  -0.347776  -0.131781  0  3.647704  0
N  N67  1  0.41659297  0.35651745  0.07519191  1  0  -0.204893  0  3.370917  0  0  -0.134258  0  3.651846  0  0  -0.139775  0  3.659339  0  0  -0.347694  -0.131588  0  3.64755  0
