# generated using pymatgen
data_AlH3C8S2O7
_symmetry_space_group_name_H-M   'P 1'
_cell_length_a   6.63298983
_cell_length_b   16.84941621
_cell_length_c   17.90801887
_cell_angle_alpha   89.92704704
_cell_angle_beta   89.69982727
_cell_angle_gamma   90.75946649
_symmetry_Int_Tables_number   1
_chemical_formula_structural   AlH3C8S2O7
_chemical_formula_sum   'Al4 H12 C32 S8 O28'
_cell_volume   2001.23102679
_cell_formula_units_Z   4
loop_
 _symmetry_equiv_pos_site_id
 _symmetry_equiv_pos_as_xyz
  1  'x, y, z'
loop_
 _atom_site_type_symbol
 _atom_site_label
 _atom_site_symmetry_multiplicity
 _atom_site_fract_x
 _atom_site_fract_y
 _atom_site_fract_z
 _atom_site_occupancy
 _atom_site_pbe_bader_charge
 _atom_site_pbe_bader_spin_density
 _atom_site_pbe_cm5_charge
 _atom_site_pbe_ddec_charge
 _atom_site_pbe_ddec_spin_density
 _atom_site_pbe_ddec_sum_bond_order
 _atom_site_pbe_magmom
Al  Al0  1  0.06212160  0.99553948  0.50086003  1  2.503979  0  0.396431  1.641131  0  2.576091  0
Al  Al1  1  0.56334864  0.00456107  0.50251604  1  2.500202  0  0.396602  1.641128  0  2.564303  0
Al  Al2  1  0.93665074  0.49543683  0.99748493  1  2.50019  0  0.39658  1.641079  0  2.564352  0
Al  Al3  1  0.43787959  0.50445952  0.99914001  1  2.504063  0  0.396522  1.641188  0  2.576028  0
H  H4  1  0.83218603  0.09924764  0.47158669  1  0.633317  0  0.34611  0.431825  0  0.863267  0
H  H5  1  0.32838126  0.90285006  0.46834324  1  0.637996  0  0.345768  0.431054  0  0.86425  0
H  H6  1  0.66780812  0.40075098  0.02841958  1  0.63325  0  0.346121  0.431906  0  0.863268  0
H  H7  1  0.17161776  0.59714907  0.03165374  1  0.638053  0  0.345794  0.431134  0  0.864169  0
H  H8  1  0.82467739  0.21526939  0.66331845  1  0.62146  0  0.3002  0.315638  0  0.989254  0
H  H9  1  0.67531896  0.28472673  0.83668029  1  0.6217  0  0.300171  0.315536  0  0.989341  0
H  H10  1  0.32767450  0.78035626  0.33656343  1  0.615784  0  0.303018  0.319188  0  0.978308  0
H  H11  1  0.17232303  0.71964405  0.16343467  1  0.615816  0  0.302964  0.319072  0  0.978386  0
H  H12  1  0.17304569  0.73332407  0.66478360  1  0.594209  0  0.332992  0.358497  0  0.883669  0
H  H13  1  0.32697199  0.76667022  0.83521699  1  0.594335  0  0.332988  0.358437  0  0.883696  0
H  H14  1  0.83310242  0.21800846  0.33926198  1  0.597334  0  0.303563  0.319946  0  0.977604  0
H  H15  1  0.66689623  0.28198602  0.16073815  1  0.597368  0  0.303586  0.320026  0  0.977456  0
C  C16  1  0.31773754  0.09984345  0.40348394  1  1.592958  0  0.250603  0.65338  0  4.167856  0
C  C17  1  0.29792291  0.09410842  0.60069809  1  1.619813  0  0.25883  0.661409  0  4.14523  0
C  C18  1  0.79461316  0.90426391  0.59928647  1  1.616297  0  0.256635  0.65723  0  4.149995  0
C  C19  1  0.81240208  0.90250139  0.40195614  1  1.608669  0  0.253228  0.656465  0  4.163026  0
C  C20  1  0.18226960  0.40015746  0.09651973  1  1.593247  0  0.250672  0.653445  0  4.168044  0
C  C21  1  0.20208180  0.40588700  0.89930586  1  1.620137  0  0.258928  0.661421  0  4.145362  0
C  C22  1  0.70538256  0.59572926  0.90071059  1  1.616616  0  0.256657  0.657364  0  4.150069  0
C  C23  1  0.68758409  0.59750079  0.09803674  1  1.608394  0  0.25324  0.656307  0  4.16317  0
C  C24  1  0.11218307  0.19885572  0.67658225  1  0.65697  0  0.087365  0.279777  0  4.091637  0
C  C25  1  0.38782480  0.30114446  0.82341276  1  0.656345  0  0.087316  0.279587  0  4.091679  0
C  C26  1  0.28338993  0.15581325  0.65821078  1  -0.140711  0  -0.034409  -0.233664  0  3.900164  0
C  C27  1  0.21661193  0.34418811  0.84178423  1  -0.140344  0  -0.034429  -0.233696  0  3.900304  0
C  C28  1  0.34907300  0.24822940  0.76303695  1  -0.202092  0  -0.03874  -0.13217  0  4.133835  0
C  C29  1  0.15092596  0.25177729  0.73695415  1  -0.134295  0  -0.038753  -0.132408  0  4.134091  0
C  C30  1  0.61558345  0.79903280  0.32518716  1  0.591914  0  0.089326  0.28675  0  4.066831  0
C  C31  1  0.88440417  0.70096701  0.17480851  1  0.591807  0  0.089363  0.286832  0  4.06704  0
C  C32  1  0.78922246  0.84239793  0.34343185  1  -0.100017  0  -0.033237  -0.230265  0  3.892736  0
C  C33  1  0.71077434  0.65760903  0.15656158  1  -0.100048  0  -0.033146  -0.230147  0  3.892744  0
C  C34  1  0.84879913  0.75253146  0.23631405  1  -0.123013  0  -0.038444  -0.13185  0  4.127674  0
C  C35  1  0.65119912  0.74747136  0.26367771  1  -0.191264  0  -0.038404  -0.131825  0  4.127458  0
C  C36  1  0.92108754  0.78646725  0.67822160  1  0.548274  0  0.082258  0.277583  0  4.09631  0
C  C37  1  0.57893078  0.71352657  0.82177879  1  0.548381  0  0.082288  0.277432  0  4.096495  0
C  C38  1  0.78227048  0.84385987  0.65773327  1  -0.138394  0  -0.034715  -0.236893  0  3.912243  0
C  C39  1  0.71774789  0.65613573  0.84226377  1  -0.138706  0  -0.034787  -0.236893  0  3.912463  0
C  C40  1  0.65336058  0.76096498  0.76170280  1  -0.141491  0  -0.046013  -0.152855  0  4.170456  0
C  C41  1  0.84666834  0.73903006  0.73829423  1  -0.078046  0  -0.045958  -0.152873  0  4.170753  0
C  C42  1  0.11933563  0.20064011  0.32674132  1  0.556218  0  0.090256  0.288656  0  4.064695  0
C  C43  1  0.38065942  0.29935780  0.17325789  1  0.556102  0  0.090197  0.288618  0  4.064869  0
C  C44  1  0.29428718  0.15959561  0.34471247  1  -0.062668  0  -0.033659  -0.232  0  3.893142  0
C  C45  1  0.20571541  0.34040291  0.15528897  1  -0.062767  0  -0.033671  -0.232019  0  3.893206  0
C  C46  1  0.34821670  0.24846620  0.23580435  1  -0.107192  0  -0.037395  -0.130538  0  4.128437  0
C  C47  1  0.15178285  0.25152757  0.26418927  1  -0.177972  0  -0.037562  -0.130751  0  4.128608  0
S  S48  1  0.48998494  0.18020701  0.71419308  1  0.195813  0  0.0779  0.112157  0  2.87412  0
S  S49  1  0.01002154  0.31980029  0.78580248  1  0.195502  0  0.077882  0.112197  0  2.874261  0
S  S50  1  0.99312696  0.82078300  0.28495117  1  0.198502  0  0.074427  0.107808  0  2.876878  0
S  S51  1  0.50686225  0.67922038  0.21504227  1  0.198316  0  0.074409  0.107763  0  2.876666  0
S  S52  1  0.56010702  0.83891277  0.71044154  1  0.246779  0  0.073617  0.131372  0  2.842113  0
S  S53  1  0.93991582  0.66108047  0.78955717  1  0.24707  0  0.073651  0.131378  0  2.842148  0
S  S54  1  0.49522420  0.18276184  0.28469957  1  0.206612  0  0.072551  0.103961  0  2.879571  0
S  S55  1  0.00477384  0.31723430  0.21529964  1  0.206849  0  0.072617  0.104083  0  2.87971  0
O  O56  1  0.15542490  0.08043320  0.43719789  1  -1.253705  0  -0.231582  -0.581703  0  2.388465  0
O  O57  1  0.46975613  0.08434861  0.56953547  1  -1.255416  0  -0.238651  -0.588887  0  2.309858  0
O  O58  1  0.63367281  0.94337457  0.58834044  1  -1.252718  0  -0.237748  -0.580875  0  2.332437  0
O  O59  1  0.98938648  0.93094817  0.41345009  1  -1.245477  0  -0.246801  -0.594203  0  2.288834  0
O  O60  1  0.96024439  0.91311659  0.56361863  1  -1.253096  0  -0.23073  -0.57123  0  2.320176  0
O  O61  1  0.65179968  0.92044713  0.43672560  1  -1.242615  0  -0.232709  -0.583273  0  2.374142  0
O  O62  1  0.49372343  0.07301767  0.41638319  1  -1.251059  0  -0.247469  -0.592507  0  2.278799  0
O  O63  1  0.13663504  0.05586160  0.58650611  1  -1.239026  0  -0.225434  -0.557738  0  2.332305  0
O  O64  1  0.81783838  0.04929165  0.49830281  1  -1.431085  0  -0.448596  -0.991859  0  2.197396  0
O  O65  1  0.31562991  0.95103979  0.49761988  1  -1.437796  0  -0.448266  -0.992571  0  2.185029  0
O  O66  1  0.00627619  0.42698381  0.08361937  1  -1.25098  0  -0.247581  -0.592598  0  2.278682  0
O  O67  1  0.36335455  0.44413082  0.91349729  1  -1.239309  0  -0.225464  -0.557666  0  2.332559  0
O  O68  1  0.53975733  0.58687125  0.93636950  1  -1.253134  0  -0.23065  -0.571124  0  2.320302  0
O  O69  1  0.84819254  0.57955685  0.06326951  1  -1.242175  0  -0.232707  -0.583179  0  2.374238  0
O  O70  1  0.86632284  0.55661385  0.91165383  1  -1.252815  0  -0.237784  -0.581023  0  2.332421  0
O  O71  1  0.51061477  0.56905346  0.08654110  1  -1.245669  0  -0.246891  -0.594152  0  2.288921  0
O  O72  1  0.34456717  0.41956826  0.06280579  1  -1.254143  0  -0.231533  -0.581709  0  2.388814  0
O  O73  1  0.03024248  0.41564264  0.93046737  1  -1.25542  0  -0.238762  -0.588973  0  2.309813  0
O  O74  1  0.68215579  0.45070756  0.00170179  1  -1.431155  0  -0.448608  -0.991966  0  2.197325  0
O  O75  1  0.18437363  0.54895875  0.00237486  1  -1.437897  0  -0.448281  -0.992673  0  2.184903  0
O  O76  1  0.93953148  0.19134946  0.63762933  1  -1.135606  0  -0.326853  -0.381233  0  2.3531  0
O  O77  1  0.56046635  0.30864606  0.86237164  1  -1.135815  0  -0.326805  -0.381049  0  2.353229  0
O  O78  1  0.43991094  0.80580595  0.36315128  1  -1.130025  0  -0.326084  -0.389398  0  2.351642  0
O  O79  1  0.06008510  0.69419554  0.13684570  1  -1.130046  0  -0.326092  -0.389329  0  2.351652  0
O  O80  1  0.10171252  0.77815723  0.64353501  1  -1.092193  0  -0.329905  -0.402497  0  2.322158  0
O  O81  1  0.39830819  0.72183707  0.85646390  1  -1.092079  0  -0.329881  -0.402365  0  2.322419  0
O  O82  1  0.94474191  0.19276139  0.36545267  1  -1.103571  0  -0.324218  -0.386527  0  2.351803  0
O  O83  1  0.55525831  0.30723784  0.13454913  1  -1.103592  0  -0.324218  -0.386603  0  2.351647  0
