# generated using pymatgen
data_AlH7C13NO5F
_symmetry_space_group_name_H-M   'P 1'
_cell_length_a   6.59905646
_cell_length_b   11.02153470
_cell_length_c   17.06545629
_cell_angle_alpha   80.70271448
_cell_angle_beta   80.49600544
_cell_angle_gamma   74.36504214
_symmetry_Int_Tables_number   1
_chemical_formula_structural   AlH7C13NO5F
_chemical_formula_sum   'Al2 H14 C26 N2 O10 F2'
_cell_volume   1169.87987414
_cell_formula_units_Z   2
loop_
 _symmetry_equiv_pos_site_id
 _symmetry_equiv_pos_as_xyz
  1  'x, y, z'
loop_
 _atom_site_type_symbol
 _atom_site_label
 _atom_site_symmetry_multiplicity
 _atom_site_fract_x
 _atom_site_fract_y
 _atom_site_fract_z
 _atom_site_occupancy
 _atom_site_pbe_bader_charge
 _atom_site_pbe_bader_spin_density
 _atom_site_pbe_cm5_charge
 _atom_site_pbe_ddec_charge
 _atom_site_pbe_ddec_spin_density
 _atom_site_pbe_ddec_sum_bond_order
 _atom_site_pbe_magmom
Al  Al0  1  0.49599435  0.50106195  0.49748960  1  2.504284  0  0.393067  1.640002  0  2.583657  0
Al  Al1  1  0.99508019  0.50277450  0.49733723  1  2.500387  0  0.396102  1.635347  0  2.577485  0
H  H2  1  0.20004861  0.65561495  0.44250417  1  0.623346  0  0.354388  0.436694  0  0.848987  0
H  H3  1  0.80687861  0.34341521  0.53709207  1  0.631327  0  0.343798  0.417491  0  0.885115  0
H  H4  1  0.81475706  0.56776645  0.73735878  1  0.116038  0  0.109386  0.114081  0  0.993699  0
H  H5  1  0.76680236  0.56866745  0.88664824  1  0.096399  0  0.106832  0.108262  0  1.018544  0
H  H6  1  0.43644518  0.40810515  0.88922463  1  0.096951  0  0.109569  0.113593  0  0.994214  0
H  H7  1  0.48569910  0.41174285  0.73895432  1  0.081953  0  0.111703  0.119473  0  0.988681  0
H  H8  1  0.55815645  0.59169889  0.10561807  1  0.093967  0  0.10953  0.112633  0  0.996489  0
H  H9  1  0.22707824  0.43003723  0.11010669  1  0.079794  0  0.107001  0.10785  0  1.017644  0
H  H10  1  0.17632910  0.43236019  0.25933767  1  0.113926  0  0.11248  0.119059  0  0.988405  0
H  H11  1  0.50641846  0.58994307  0.25575446  1  0.106938  0  0.112609  0.11961  0  0.986915  0
H  H12  1  0.88059402  0.75981719  0.60171892  1  0.103156  0  0.107333  0.114784  0  1.034146  0
H  H13  1  0.03537890  0.87209019  0.68048798  1  0.085619  0  0.105665  0.104389  0  0.987012  0
H  H14  1  0.60838317  0.22677207  0.60525363  1  0.052514  0  0.108666  0.109643  0  1.037165  0
H  H15  1  0.89613101  0.10654185  0.68332880  1  0.078008  0  0.106215  0.104631  0  0.982719  0
C  C16  1  0.62953884  0.72537713  0.50722250  1  1.598591  0  0.276588  0.672409  0  4.077558  0
C  C17  1  0.80967317  0.51353674  0.35390742  1  1.541993  0  0.268185  0.636602  0  4.101126  0
C  C18  1  0.35744898  0.27597306  0.49594217  1  1.632202  0  0.276255  0.674294  0  4.077249  0
C  C19  1  0.18070144  0.48930432  0.64154356  1  1.539875  0  0.264346  0.628408  0  4.111144  0
C  C20  1  0.15290335  0.48930552  0.72992217  1  0.029836  0  -0.013268  -0.043591  0  3.962761  0
C  C21  1  0.94957076  0.53346615  0.77131465  1  -0.124574  0  -0.077582  -0.077003  0  3.969371  0
C  C22  1  0.92241015  0.53363420  0.85359210  1  0.036647  0  -0.082418  -0.143039  0  3.948364  0
C  C23  1  0.09953120  0.48728352  0.89593333  1  0.261365  0  0.089773  0.174104  0  4.037178  0
C  C24  1  0.30265185  0.44331808  0.85471656  1  0.051474  0  -0.078648  -0.141469  0  3.95171  0
C  C25  1  0.32940052  0.44490568  0.77204515  1  -0.040714  0  -0.078075  -0.080394  0  3.966345  0
C  C26  1  0.69116822  0.55661306  0.14049962  1  -0.054846  0  -0.076969  -0.139765  0  3.952067  0
C  C27  1  0.89482016  0.51198016  0.09985779  1  0.33584  0  0.089684  0.172794  0  4.039723  0
C  C28  1  0.07108588  0.46574503  0.14267093  1  -0.003504  0  -0.080916  -0.13962  0  3.943973  0
C  C29  1  0.04254504  0.46688408  0.22486800  1  0.007346  0  -0.075061  -0.075662  0  3.961573  0
C  C30  1  0.83869961  0.51196668  0.26560301  1  -0.010253  0  -0.008451  -0.034988  0  3.947372  0
C  C31  1  0.66299895  0.55599334  0.22310085  1  -0.039046  0  -0.076297  -0.07834  0  3.959665  0
C  C32  1  0.56141874  0.86568292  0.50967295  1  0.084931  0  -0.012155  -0.17717  0  3.952971  0
C  C33  1  0.65958059  0.92929292  0.55377532  1  0.052244  0  0.000937  0.071772  0  3.961281  0
C  C34  1  0.39703532  0.93560010  0.46797236  1  0.473696  0  0.101056  0.163755  0  4.078896  0
C  C35  1  0.82307096  0.86219515  0.60083958  1  -0.077964  0  -0.090136  -0.130165  0  3.960263  0
C  C36  1  0.90931071  0.92529139  0.64513021  1  -0.045914  0  -0.089501  -0.078867  0  4.035315  0
C  C37  1  0.42272826  0.13406565  0.50498780  1  0.0336  0  -0.012737  -0.177399  0  3.956414  0
C  C38  1  0.32941682  0.06884749  0.46494207  1  0.528321  0  0.102007  0.165944  0  4.092034  0
C  C39  1  0.58582829  0.06469140  0.55279159  1  -0.005372  0  0.000849  0.072463  0  3.960363  0
C  C40  1  0.67271268  0.12557728  0.60164808  1  0.047611  0  -0.09253  -0.13894  0  3.968966  0
C  C41  1  0.83191850  0.05761148  0.64635164  1  -0.09255  0  -0.090797  -0.079204  0  4.035488  0
N  N42  1  0.09040911  0.48134569  0.97974332  1  -0.489885  0  -0.150441  -0.14024  0  3.274736  0
N  N43  1  0.90496060  0.51743846  0.01613087  1  -0.485642  0  -0.14696  -0.134236  0  3.281328  0
O  O44  1  0.48394452  0.66652354  0.52206795  1  -1.245788  0  -0.228374  -0.580551  0  2.332771  0
O  O45  1  0.97661400  0.49128098  0.38775018  1  -1.252273  0  -0.236306  -0.588635  0  2.336126  0
O  O46  1  0.16063238  0.32876295  0.50855297  1  -1.252968  0  -0.226926  -0.585602  0  2.342991  0
O  O47  1  0.37039607  0.46105492  0.60615467  1  -1.264091  0  -0.238972  -0.600723  0  2.369632  0
O  O48  1  0.50559218  0.33289706  0.47737098  1  -1.251915  0  -0.227952  -0.5781  0  2.324278  0
O  O49  1  0.01316606  0.51590922  0.60748077  1  -1.257289  0  -0.237297  -0.587005  0  2.345727  0
O  O50  1  0.82613810  0.67570216  0.48942618  1  -1.26113  0  -0.226636  -0.58255  0  2.333042  0
O  O51  1  0.61958421  0.53885624  0.38923339  1  -1.264994  0  -0.239609  -0.604436  0  2.354391  0
O  O52  1  0.23151066  0.56620165  0.46312020  1  -1.423036  0  -0.447728  -0.991135  0  2.200596  0
O  O53  1  0.76108462  0.43553121  0.53209951  1  -1.438293  0  -0.450429  -0.987242  0  2.197478  0
F  F54  1  0.17703029  0.13007545  0.41828741  1  -0.6193  0  -0.085248  -0.103743  0  1.363664  0
F  F55  1  0.30088211  0.88044337  0.42436648  1  -0.618842  0  -0.085602  -0.110274  0  1.36598  0
