# generated using pymatgen
data_NiH14C20N4O5
_symmetry_space_group_name_H-M   'P 1'
_cell_length_a   10.00246987
_cell_length_b   12.17420086
_cell_length_c   15.85465210
_cell_angle_alpha   90.85597756
_cell_angle_beta   89.58640986
_cell_angle_gamma   106.32240389
_symmetry_Int_Tables_number   1
_chemical_formula_structural   NiH14C20N4O5
_chemical_formula_sum   'Ni4 H56 C80 N16 O20'
_cell_volume   1852.62388527
_cell_formula_units_Z   4
loop_
 _symmetry_equiv_pos_site_id
 _symmetry_equiv_pos_as_xyz
  1  'x, y, z'
loop_
 _atom_site_type_symbol
 _atom_site_label
 _atom_site_symmetry_multiplicity
 _atom_site_fract_x
 _atom_site_fract_y
 _atom_site_fract_z
 _atom_site_occupancy
 _atom_site_pbe_bader_charge
 _atom_site_pbe_bader_spin_density
 _atom_site_pbe_cm5_charge
 _atom_site_pbe_ddec_charge
 _atom_site_pbe_ddec_spin_density
 _atom_site_pbe_ddec_sum_bond_order
 _atom_site_pbe_magmom
Ni  Ni0  1  0.35124730  0.07144834  0.93327002  1  1.072499  -0.003079  0.613701  0.679515  0.09542  2.518986  0.002
Ni  Ni1  1  0.65583842  0.42631246  0.43668072  1  1.186264  -1.566968  0.648289  0.803408  -1.796945  2.429466  -1.552
Ni  Ni2  1  0.65316910  0.92688779  0.06832271  1  1.185158  -1.567331  0.647553  0.805586  -1.79523  2.427863  -1.553
Ni  Ni3  1  0.34573284  0.57475096  0.56306094  1  1.184292  -1.566665  0.65062  0.805136  -1.798621  2.44116  -1.552
H  H4  1  0.88590080  0.01903997  0.91670491  1  0.140614  0.000138  0.111327  0.127491  0.000248  1.02816  0.0
H  H5  1  0.12494887  0.48255534  0.41734452  1  0.128751  -3e-05  0.110421  0.125287  0.000116  1.038173  0.0
H  H6  1  0.12279413  0.98177706  0.09157508  1  0.119146  -0.000197  0.109493  0.120998  -9.3e-05  1.02828  0.0
H  H7  1  0.87686965  0.51802823  0.58319107  1  0.142753  -1.7e-05  0.111253  0.12794  0.000122  1.033003  0.0
H  H8  1  0.66757984  0.20618665  0.76802730  1  0.079035  0.000155  0.108677  0.127777  0.000178  1.002804  0.0
H  H9  1  0.32901056  0.28137450  0.26571398  1  0.08876  -0.000366  0.107164  0.126586  -0.00021  1.004087  0.0
H  H10  1  0.31842161  0.77707636  0.23852009  1  0.075779  -0.000321  0.105182  0.121765  -0.000183  1.007369  0.0
H  H11  1  0.67446018  0.72085170  0.73437757  1  0.077901  -0.00036  0.105525  0.123143  -0.000204  1.008887  0.0
H  H12  1  0.11755496  0.29823562  0.76246213  1  0.116993  -2.9e-05  0.112217  0.133592  1.3e-05  1.002939  0.0
H  H13  1  0.87949104  0.20186830  0.26516214  1  0.109157  -0.000174  0.110696  0.13203  -9.5e-05  1.004011  0.0
H  H14  1  0.86900467  0.69753709  0.23295464  1  0.120901  -0.000165  0.110122  0.131464  -9.4e-05  1.005591  0.0
H  H15  1  0.12399322  0.79998452  0.73349101  1  0.115822  -0.000211  0.11036  0.130843  -0.000125  1.002681  0.0
H  H16  1  0.05856612  0.88152783  0.97094317  1  0.202231  -0.000727  0.136938  0.114009  -0.000573  1.038415  0.0
H  H17  1  0.94434437  0.62736859  0.46928177  1  0.197052  -0.000989  0.133916  0.108906  -0.000529  1.042238  -0.001
H  H18  1  0.94266727  0.12473000  0.03360145  1  0.181244  -0.000291  0.136799  0.111237  0.000184  1.024665  0.0
H  H19  1  0.05411920  0.37553954  0.53084602  1  0.200074  -0.000989  0.133088  0.109441  -0.000529  1.045491  -0.001
H  H20  1  0.76804226  0.54827500  0.09547112  1  0.081061  -4.3e-05  0.112672  0.120933  -9e-06  0.988349  0.0
H  H21  1  0.22868957  0.95110495  0.59767362  1  0.089928  -8.4e-05  0.112772  0.121368  -3.8e-05  0.98758  0.0
H  H22  1  0.22609054  0.44891135  0.90219703  1  0.053617  -5.9e-05  0.112393  0.121458  -2.9e-05  0.988248  0.0
H  H23  1  0.76932486  0.05060613  0.40177402  1  0.05869  -8.9e-05  0.113182  0.122164  -3.5e-05  0.986337  0.0
H  H24  1  0.62524652  0.26580416  0.88851016  1  0.18398  -0.000307  0.1301  0.093677  -0.000131  1.076282  0.0
H  H25  1  0.38657445  0.22834148  0.39232268  1  0.165543  -0.000459  0.132023  0.097042  -7.7e-05  1.061373  0.0
H  H26  1  0.38471019  0.73046344  0.10982219  1  0.178264  -0.000385  0.131415  0.099243  -2.2e-05  1.063353  0.0
H  H27  1  0.61465346  0.77256153  0.60727062  1  0.153018  -0.000457  0.131296  0.095825  -7e-05  1.063145  0.0
H  H28  1  0.98416673  0.69702304  0.06168164  1  0.103357  -5.4e-05  0.103757  0.108462  -4e-06  1.062734  0.0
H  H29  1  0.00915811  0.80613608  0.56110692  1  0.101607  -7.6e-05  0.103028  0.106697  -1.6e-05  1.059917  0.0
H  H30  1  0.00751182  0.30402631  0.93953273  1  0.112096  -1e-05  0.102195  0.105908  7e-06  1.063748  0.0
H  H31  1  0.98839881  0.19648873  0.43788218  1  0.090628  -7.8e-05  0.103397  0.107393  -1.6e-05  1.060296  0.0
H  H32  1  0.96825443  0.57025599  0.80590309  1  0.117566  -4.7e-05  0.107062  0.117538  -2.6e-05  1.036453  0.0
H  H33  1  0.03347605  0.93402871  0.30810543  1  0.11851  -3.9e-05  0.107291  0.11725  -1.6e-05  1.036072  0.0
H  H34  1  0.03590665  0.43558949  0.19430550  1  0.123468  -4.6e-05  0.107337  0.117163  -2.6e-05  1.039856  0.0
H  H35  1  0.96984606  0.06615393  0.68979103  1  0.124911  -8e-06  0.107831  0.119687  -7e-06  1.031345  0.0
H  H36  1  0.23136532  0.64793320  0.83804296  1  0.147814  -0.000549  0.125926  0.134191  -0.000335  1.007351  0.0
H  H37  1  0.76536580  0.85223611  0.33776218  1  0.146153  -0.001071  0.122771  0.129678  -0.000588  1.01535  0.0
H  H38  1  0.76779517  0.35768103  0.16484321  1  0.140564  -0.001032  0.124233  0.132718  -0.000553  1.0092  0.0
H  H39  1  0.23353006  0.14919026  0.65999391  1  0.159638  -0.000694  0.12184  0.132728  -0.000296  1.024713  0.0
H  H40  1  0.52944151  0.45927507  0.09306316  1  0.125714  -0.000423  0.128272  0.133499  -0.000175  0.99247  0.0
H  H41  1  0.46370354  0.03800985  0.59933086  1  0.129109  -0.000907  0.127756  0.131935  -0.000395  0.992085  0.0
H  H42  1  0.46335326  0.53680526  0.89972727  1  0.11204  -0.00092  0.127387  0.133123  -0.000406  0.992183  0.0
H  H43  1  0.53598304  0.96209901  0.40011380  1  0.1233  -0.000906  0.128351  0.133346  -0.000392  0.991911  0.0
H  H44  1  0.42291354  0.86156099  0.84197876  1  0.108688  -0.000373  0.121489  0.123348  -0.000146  1.008246  0.0
H  H45  1  0.57832702  0.63603359  0.34190126  1  0.11198  -0.000839  0.118492  0.119861  -0.000295  1.011661  0.0
H  H46  1  0.57798600  0.14199746  0.16173110  1  0.130283  -0.000893  0.118907  0.124105  -0.000287  1.020707  -0.001
H  H47  1  0.42123641  0.36495456  0.65637871  1  0.128913  -0.000876  0.11701  0.11787  -0.000315  1.015118  -0.001
H  H48  1  0.74978325  0.42516333  0.83765018  1  0.070892  3e-06  0.103372  0.103598  7e-06  1.029307  0.0
H  H49  1  0.25475931  0.07548988  0.34246354  1  0.062827  -3.9e-05  0.104518  0.106062  -1.5e-05  1.026433  0.0
H  H50  1  0.25692670  0.57674786  0.15911880  1  0.051621  -2.8e-05  0.103988  0.104412  -7e-06  1.02958  0.0
H  H51  1  0.74846257  0.92387922  0.65610020  1  0.073422  -2.9e-05  0.1023  0.102695  -7e-06  1.032539  0.0
H  H52  1  0.31664602  0.25778599  0.07142052  1  0.132878  -0.000382  0.123536  0.120563  -0.000151  0.996605  0.0
H  H53  1  0.68455027  0.23374681  0.57831422  1  0.071013  -0.000718  0.117136  0.110316  -0.000213  1.008668  -0.001
H  H54  1  0.68351296  0.73317126  0.92234970  1  0.094765  -0.00067  0.117705  0.113143  -0.000183  1.003652  0.0
H  H55  1  0.31636152  0.76568291  0.42116093  1  0.126439  -0.000737  0.118165  0.114225  -0.000224  1.001174  -0.001
H  H56  1  0.81253598  0.35806719  0.68974264  1  0.61655  -7e-06  0.331747  0.361786  -1e-05  0.886522  0.0
H  H57  1  0.17946142  0.13204679  0.18779584  1  0.634956  -2e-06  0.326248  0.358719  2.5e-05  0.89908  0.0
H  H58  1  0.16319777  0.62562568  0.31066585  1  0.609749  -1e-05  0.329429  0.359747  -2e-06  0.890581  0.0
H  H59  1  0.82644227  0.87017914  0.81218794  1  0.598338  1.9e-05  0.329427  0.360249  1.6e-05  0.891372  0.0
C  C60  1  0.15066658  0.13111182  0.86370854  1  1.550145  0.001311  0.196497  0.548545  0.002158  4.204065  0.0
C  C61  1  0.86132655  0.37313607  0.37784492  1  1.569278  0.004476  0.196449  0.549068  0.00451  4.19422  0.007
C  C62  1  0.85725117  0.87234355  0.12499300  1  1.545125  0.004467  0.194477  0.548027  0.004529  4.197474  0.007
C  C63  1  0.14097271  0.62842037  0.62157812  1  1.547881  0.004443  0.195686  0.547794  0.004493  4.198375  0.007
C  C64  1  0.01597558  0.15495087  0.84098446  1  -0.049386  -0.003349  -0.013091  -4e-06  -0.001694  3.993205  -0.003
C  C65  1  0.98868384  0.34681872  0.34298048  1  0.021807  -0.004535  -0.015784  -0.002709  -0.002965  3.996023  -0.003
C  C66  1  0.98201571  0.84378069  0.15967602  1  -0.000797  -0.004803  -0.015316  -0.001712  -0.003131  4.005553  -0.003
C  C67  1  0.01377386  0.65464656  0.65634076  1  0.024617  -0.00454  -0.015726  -0.002464  -0.00297  4.000908  -0.003
C  C68  1  0.88887434  0.08657521  0.87181740  1  -0.058716  0.001249  -0.095851  -0.170459  0.001276  3.986517  0.001
C  C69  1  0.11864209  0.41373276  0.37153386  1  -0.053059  -0.003598  -0.09858  -0.176606  -0.002087  3.994312  -0.002
C  C70  1  0.11339041  0.91114909  0.13458430  1  -0.067101  -0.003166  -0.098289  -0.175641  -0.001856  4.006079  -0.002
C  C71  1  0.88361124  0.58751546  0.62843878  1  -0.131496  -0.003708  -0.096752  -0.170107  -0.002103  3.983883  -0.002
C  C72  1  0.76598676  0.19379137  0.78936978  1  -0.027967  0.001885  -0.110506  -0.267274  0.001857  3.994135  0.001
C  C73  1  0.23291402  0.29880559  0.28742107  1  -0.087314  -0.003013  -0.110021  -0.263185  -0.001706  3.991142  -0.002
C  C74  1  0.22341296  0.79456223  0.21604678  1  -0.033564  -0.002035  -0.11129  -0.266157  -0.001167  3.997073  -0.001
C  C75  1  0.77037023  0.70328225  0.71242727  1  -0.064245  -0.003112  -0.11091  -0.26617  -0.001772  3.996681  -0.002
C  C76  1  0.01862118  0.24475695  0.78634795  1  -0.019564  0.001273  -0.092116  -0.2136  0.001188  3.905715  0.001
C  C77  1  0.98023519  0.25507524  0.28709759  1  -0.053939  -0.003282  -0.094604  -0.217442  -0.001921  3.902675  -0.002
C  C78  1  0.97057697  0.75081741  0.21283035  1  -0.067525  -0.002163  -0.096702  -0.221118  -0.001264  3.912982  -0.001
C  C79  1  0.02304664  0.74675554  0.71191037  1  -0.037729  -0.003401  -0.096092  -0.218865  -0.001996  3.912413  -0.002
C  C80  1  0.13544119  0.84886136  0.93822048  1  0.927008  -0.001134  0.14875  0.111463  -0.000733  3.827964  -0.001
C  C81  1  0.86607103  0.65736636  0.43707255  1  0.954171  0.003904  0.144167  0.109295  0.003623  3.868732  0.002
C  C82  1  0.86540811  0.15694383  0.06602280  1  0.964432  0.004216  0.142056  0.104876  0.003805  3.879337  0.003
C  C83  1  0.13268864  0.34520427  0.56243826  1  0.928929  0.004069  0.141011  0.103648  0.00377  3.870044  0.002
C  C84  1  0.74232540  0.47617747  0.96855838  1  0.273207  -0.000323  0.094221  0.157591  -0.000211  4.028346  0.0
C  C85  1  0.25789118  0.02285753  0.47215385  1  0.272392  -0.000604  0.094444  0.156663  -0.000385  4.038778  -0.001
C  C86  1  0.25727686  0.52258151  0.02852033  1  0.290036  -0.000586  0.093831  0.158221  -0.000373  4.037695  -0.001
C  C87  1  0.74242265  0.97803424  0.52705609  1  0.298068  -0.000612  0.094021  0.156402  -0.000384  4.042398  -0.001
C  C88  1  0.63089980  0.04055064  0.88941440  1  1.589829  -0.006278  0.212454  0.568712  -0.004066  4.194843  -0.007
C  C89  1  0.37637449  0.45308158  0.38578198  1  1.582526  -0.007954  0.208846  0.574287  -0.006691  4.201518  -0.007
C  C90  1  0.37175949  0.95853204  0.12755231  1  1.600167  -0.003251  0.196724  0.561866  -0.00315  4.235132  -0.002
C  C91  1  0.62597668  0.54797524  0.61458482  1  1.576321  -0.007812  0.207838  0.571694  -0.006521  4.203961  -0.007
C  C92  1  0.76399993  0.10646927  0.84673383  1  -0.05745  -0.000508  -0.024873  -0.018306  -6.6e-05  4.008246  -0.001
C  C93  1  0.24045665  0.38905820  0.34489386  1  -0.072878  -0.008144  -0.024609  -0.014356  -0.004756  4.014313  -0.006
C  C94  1  0.23404925  0.88698691  0.16226170  1  -0.030197  -0.007717  -0.0236  -0.006283  -0.004504  4.004512  -0.006
C  C95  1  0.76208903  0.61258960  0.65518197  1  -0.011776  -0.007989  -0.024054  -0.011839  -0.004712  4.006856  -0.006
C  C96  1  0.98845716  0.64655206  0.93138021  1  0.256726  -0.000341  0.096037  0.162054  -0.000215  3.991872  0.0
C  C97  1  0.00952376  0.85820342  0.43209663  1  0.299119  -0.00049  0.094678  0.161341  -0.000295  4.008061  -0.001
C  C98  1  0.00996402  0.35815127  0.06940390  1  0.294126  -0.00051  0.094669  0.162201  -0.000303  4.009346  -0.001
C  C99  1  0.99011489  0.14369939  0.56651265  1  0.318957  -0.000488  0.095347  0.163171  -0.000298  4.009009  -0.001
C  C100  1  0.80921832  0.55359758  0.03135931  1  0.02685  -0.00017  -0.085101  -0.150204  -8.5e-05  3.978224  0.0
C  C101  1  0.18832595  0.94664968  0.53368808  1  -0.040819  -6.3e-05  -0.08817  -0.153403  -1.4e-05  3.986956  0.0
C  C102  1  0.18671870  0.44540678  0.96667218  1  0.020861  8e-05  -0.089022  -0.15615  9.3e-05  3.989081  0.0
C  C103  1  0.81065972  0.05481768  0.46550678  1  0.015817  -5.1e-05  -0.087854  -0.153583  1e-06  3.986997  0.0
C  C104  1  0.56804335  0.29123479  0.93954681  1  0.937862  0.000323  0.144538  0.100649  0.000348  3.867852  0.0
C  C105  1  0.43953268  0.20234884  0.44420914  1  0.976245  0.004322  0.142661  0.102829  0.004171  3.888547  0.003
C  C106  1  0.43787186  0.70296404  0.05755798  1  0.976765  0.004526  0.142495  0.103363  0.004377  3.889168  0.003
C  C107  1  0.56146369  0.79842049  0.55544258  1  0.98993  0.004422  0.141073  0.102932  0.004231  3.893864  0.003
C  C108  1  0.89362399  0.26384654  0.76040210  1  0.433841  -0.000444  0.075755  0.308049  -0.000259  4.099964  0.0
C  C109  1  0.10304174  0.23193031  0.25898009  1  0.47346  0.000152  0.077403  0.311615  0.000294  4.094373  0.0
C  C110  1  0.09181329  0.72674490  0.24090064  1  0.420093  2.6e-05  0.075078  0.308104  0.000155  4.095669  0.0
C  C111  1  0.90070045  0.77009170  0.74027392  1  0.459009  0.000119  0.07623  0.309368  0.000287  4.099463  0.0
C  C112  1  0.93136588  0.63812625  0.01244591  1  -0.004064  -9.9e-05  -0.08368  -0.1323  -4.7e-05  3.963557  0.0
C  C113  1  0.06460628  0.86475446  0.51328116  1  0.079987  -0.000178  -0.084298  -0.135429  -7.9e-05  3.975297  0.0
C  C114  1  0.06352705  0.36354544  0.98753912  1  0.001736  -0.000135  -0.085487  -0.137045  -2.7e-05  3.976805  0.0
C  C115  1  0.93394292  0.13731026  0.48566522  1  0.04988  -0.000183  -0.083982  -0.134198  -8.2e-05  3.97288  0.0
C  C116  1  0.92479260  0.56662060  0.86924838  1  0.075422  -9.7e-05  -0.084945  -0.139252  -6.4e-05  3.973656  0.0
C  C117  1  0.07589825  0.93710836  0.37136304  1  -0.021666  -0.000183  -0.086024  -0.139076  -9.1e-05  3.98037  0.0
C  C118  1  0.07736929  0.43789123  0.13054082  1  0.034358  -0.000202  -0.086119  -0.1401  -0.00011  3.980534  0.0
C  C119  1  0.92569974  0.06370681  0.62706328  1  -0.030078  -0.000189  -0.086124  -0.140541  -9.4e-05  3.978652  0.0
C  C120  1  0.22676954  0.72714045  0.86813448  1  0.25006  -0.00158  0.001516  -0.102678  -0.000953  3.928386  -0.001
C  C121  1  0.77178848  0.77454291  0.36762337  1  0.25189  -0.003245  -0.00154  -0.107382  -0.001913  3.93307  -0.002
C  C122  1  0.77289286  0.27831030  0.13522518  1  0.209329  -0.003279  -0.002116  -0.1078  -0.001941  3.929126  -0.002
C  C123  1  0.22774452  0.22685173  0.62997717  1  0.249371  -0.002889  -0.002325  -0.10563  -0.001619  3.934847  -0.002
C  C124  1  0.51758085  0.38959589  0.04801973  1  0.317014  -0.001363  0.000552  -0.117374  -0.000772  3.932566  -0.001
C  C125  1  0.48010737  0.10638687  0.55423132  1  0.249619  -0.003224  -0.002431  -0.117719  -0.001825  3.940399  -0.002
C  C126  1  0.47944317  0.60565302  0.94585938  1  0.237243  -0.003238  -0.004931  -0.123835  -0.001823  3.944896  -0.002
C  C127  1  0.52002872  0.89395769  0.44538081  1  0.250599  -0.003258  -0.002184  -0.118084  -0.001834  3.940215  -0.002
C  C128  1  0.31933264  0.83396094  0.86850642  1  0.462775  -0.000547  0.003748  -0.021449  -0.000279  3.961864  -0.001
C  C129  1  0.68194205  0.66633238  0.36796002  1  0.462039  0.000298  0.001481  -0.014942  0.000309  3.970363  0.0
C  C130  1  0.68228643  0.17047143  0.13611888  1  0.477234  0.000336  0.000764  -0.015473  0.000357  3.967875  0.0
C  C131  1  0.31754192  0.33499429  0.63039588  1  0.422993  0.000554  -0.001766  -0.017134  0.000554  3.975478  0.0
C  C132  1  0.80147197  0.48335934  0.88772647  1  -0.040225  -6.3e-05  -0.091649  -0.155346  -3e-05  3.982876  0.0
C  C133  1  0.20056603  0.01787313  0.39131338  1  0.010104  0.000263  -0.092506  -0.156307  0.000248  3.984186  0.0
C  C134  1  0.20159776  0.51839751  0.11016703  1  -0.005399  0.000247  -0.092548  -0.155828  0.000237  3.985443  0.0
C  C135  1  0.80116561  0.98256539  0.60745611  1  -0.027371  0.000296  -0.094474  -0.158462  0.000275  3.990393  0.0
C  C136  1  0.41280626  0.29001956  0.03668074  1  0.391551  -0.000833  0.011432  -0.003249  -0.000577  3.955089  -0.001
C  C137  1  0.58833243  0.20360322  0.54326699  1  0.494224  -0.000287  0.004719  -0.014217  -0.000234  3.989401  -0.001
C  C138  1  0.58747897  0.70310550  0.95777722  1  0.496298  -0.000389  0.003401  -0.013584  -0.000321  3.98792  -0.001
C  C139  1  0.41219198  0.79653349  0.45647173  1  0.45235  -0.000252  0.005921  -0.012931  -0.00021  3.985824  0.0
N  N140  1  0.61596045  0.39020066  0.98535947  1  -1.266242  -0.000918  -0.227558  -0.003388  -0.000428  3.821625  -0.001
N  N141  1  0.38573822  0.10587320  0.49016723  1  -1.292627  -0.001494  -0.230256  -0.004289  -0.000726  3.836059  -0.001
N  N142  1  0.38452289  0.60585579  0.01039599  1  -1.288811  -0.001468  -0.230186  -0.007158  -0.00071  3.836459  -0.001
N  N143  1  0.61472459  0.89482335  0.50934400  1  -1.284325  -0.001487  -0.230741  -0.00622  -0.000706  3.840188  -0.001
N  N144  1  0.11100940  0.73675160  0.91332308  1  -1.254827  -0.001047  -0.224746  0.002761  -0.000445  3.773244  -0.001
N  N145  1  0.88798330  0.76841499  0.41262621  1  -1.282366  -0.001619  -0.231633  -0.001712  -0.000703  3.796205  -0.001
N  N146  1  0.88841723  0.26926539  0.08956543  1  -1.266006  -0.001509  -0.231775  -0.00301  -0.000642  3.804442  -0.001
N  N147  1  0.11122927  0.23376572  0.58586076  1  -1.269956  -0.001606  -0.232199  -0.002607  -0.000719  3.802714  -0.001
N  N148  1  0.44617971  0.22911699  0.96924840  1  -1.149494  -0.024923  -0.341207  -0.217253  -0.014204  3.595959  -0.018
N  N149  1  0.56113241  0.26271131  0.47476536  1  -1.175188  -0.055623  -0.343134  -0.254155  -0.03341  3.578212  -0.049
N  N150  1  0.55960099  0.76293481  0.02734414  1  -1.204133  -0.05525  -0.342952  -0.254997  -0.033087  3.579958  -0.049
N  N151  1  0.43993809  0.73779668  0.52502470  1  -1.189786  -0.055743  -0.344008  -0.25549  -0.033452  3.588202  -0.049
N  N152  1  0.26162999  0.90929817  0.91217465  1  -1.154029  -0.022325  -0.349452  -0.247175  -0.012552  3.609455  -0.014
N  N153  1  0.74183625  0.59419098  0.41124054  1  -1.203672  -0.057724  -0.351579  -0.283471  -0.034525  3.595009  -0.051
N  N154  1  0.74108309  0.09561108  0.09296747  1  -1.188529  -0.056546  -0.35053  -0.283849  -0.033759  3.598905  -0.05
N  N155  1  0.25730883  0.40780683  0.58822823  1  -1.185795  -0.05806  -0.351698  -0.282334  -0.034718  3.60443  -0.051
O  O156  1  0.63475609  0.96055348  0.93786839  1  -1.181349  -0.028226  -0.312851  -0.568294  -0.016469  2.416306  -0.023
O  O157  1  0.37659381  0.53652832  0.43432428  1  -1.182953  -0.033508  -0.321216  -0.580744  -0.01911  2.405342  -0.028
O  O158  1  0.37294364  0.05079367  0.09212943  1  -1.190566  -0.014312  -0.321815  -0.5878  -0.007903  2.258819  -0.011
O  O159  1  0.62596601  0.46413669  0.56644157  1  -1.186544  -0.032921  -0.321295  -0.581707  -0.018767  2.397132  -0.027
O  O160  1  0.16355231  0.10043516  0.94093779  1  -1.087706  0.041368  -0.303299  -0.497564  0.037274  2.235222  0.035
O  O161  1  0.86188998  0.40232004  0.45582535  1  -1.139055  -0.075749  -0.307522  -0.526218  -0.043018  2.199722  -0.068
O  O162  1  0.86093119  0.90243127  0.04776462  1  -1.136902  -0.075899  -0.308474  -0.529607  -0.043074  2.188149  -0.068
O  O163  1  0.14068894  0.59955239  0.54358941  1  -1.13767  -0.07701  -0.306205  -0.524036  -0.043763  2.201777  -0.069
O  O164  1  0.24258651  0.14046888  0.80815303  1  -1.140542  -0.006967  -0.313577  -0.534825  -0.003144  2.127951  -0.007
O  O165  1  0.75681276  0.36788042  0.33097978  1  -1.125697  -0.09519  -0.308585  -0.518639  -0.053602  2.164701  -0.086
O  O166  1  0.75172286  0.86840105  0.17162658  1  -1.116462  -0.095982  -0.309195  -0.517857  -0.053984  2.166049  -0.086
O  O167  1  0.24508068  0.63360844  0.66884559  1  -1.115496  -0.093734  -0.312105  -0.523168  -0.052885  2.159523  -0.084
O  O168  1  0.52353859  0.07433443  0.87285745  1  -1.125842  0.021607  -0.301776  -0.507041  0.021078  2.430515  0.017
O  O169  1  0.48077352  0.41595799  0.36815823  1  -1.143758  -0.082153  -0.309677  -0.536232  -0.046614  2.369791  -0.074
O  O170  1  0.47482647  0.91639279  0.13618534  1  -1.157842  -0.072038  -0.318811  -0.551893  -0.040761  2.361886  -0.066
O  O171  1  0.52144707  0.58502099  0.63193530  1  -1.143443  -0.080452  -0.309628  -0.535997  -0.045794  2.364168  -0.073
O  O172  1  0.90420427  0.35277374  0.70641406  1  -1.138095  -0.000151  -0.344293  -0.438118  -3.7e-05  2.304233  0.0
O  O173  1  0.08879283  0.14164929  0.20393702  1  -1.162519  0.000128  -0.346712  -0.442309  0.000189  2.314931  0.0
O  O174  1  0.07376636  0.63458140  0.29274765  1  -1.136433  8.1e-05  -0.345761  -0.439758  0.000153  2.315638  0.0
O  O175  1  0.91661417  0.86086766  0.79517662  1  -1.131012  1.9e-05  -0.347569  -0.442551  6.3e-05  2.313066  0.0
