# generated using pymatgen
data_KH2C4N3O
_symmetry_space_group_name_H-M   'P 1'
_cell_length_a   3.84728598
_cell_length_b   8.30006186
_cell_length_c   18.98667654
_cell_angle_alpha   93.70101320
_cell_angle_beta   89.99992577
_cell_angle_gamma   90.00027648
_symmetry_Int_Tables_number   1
_chemical_formula_structural   KH2C4N3O
_chemical_formula_sum   'K4 H8 C16 N12 O4'
_cell_volume   605.03162234
_cell_formula_units_Z   4
loop_
 _symmetry_equiv_pos_site_id
 _symmetry_equiv_pos_as_xyz
  1  'x, y, z'
loop_
 _atom_site_type_symbol
 _atom_site_label
 _atom_site_symmetry_multiplicity
 _atom_site_fract_x
 _atom_site_fract_y
 _atom_site_fract_z
 _atom_site_occupancy
 _atom_site_hle17_bader_spin_density
 _atom_site_hle17_ddec_charge
 _atom_site_hle17_ddec_spin_density
 _atom_site_hle17_ddec_sum_bond_order
 _atom_site_hle17_magmom
 _atom_site_hse06_10hf_bader_spin_density
 _atom_site_hse06_10hf_ddec_charge
 _atom_site_hse06_10hf_ddec_spin_density
 _atom_site_hse06_10hf_ddec_sum_bond_order
 _atom_site_hse06_10hf_magmom
 _atom_site_hse06_bader_spin_density
 _atom_site_hse06_ddec_charge
 _atom_site_hse06_ddec_spin_density
 _atom_site_hse06_ddec_sum_bond_order
 _atom_site_hse06_magmom
 _atom_site_pbe_bader_spin_density
 _atom_site_pbe_cm5_charge
 _atom_site_pbe_ddec_charge
 _atom_site_pbe_ddec_spin_density
 _atom_site_pbe_ddec_sum_bond_order
 _atom_site_pbe_magmom
K  K0  1  0.17278041  0.33835827  0.90301285  1  0  0.912992  0  0.474419  0  0  0.852383  0  0.675528  0  0  0.865207  0  0.656313  0  0  0.818491  0.842918  0  0.689137  0
K  K1  1  0.32722334  0.33836009  0.40301292  1  0  0.913006  0  0.474428  0  0  0.852389  0  0.675555  0  0  0.865221  0  0.656327  0  0  0.818529  0.84294  0  0.689166  0
K  K2  1  0.82722259  0.66163502  0.09698728  1  0  0.912989  0  0.474399  0  0  0.852367  0  0.675535  0  0  0.865217  0  0.656273  0  0  0.818508  0.842918  0  0.689145  0
K  K3  1  0.67275627  0.66164764  0.59698338  1  0  0.912995  0  0.474425  0  0  0.852377  0  0.675547  0  0  0.865219  0  0.656301  0  0  0.818518  0.842931  0  0.68916  0
H  H4  1  0.01014305  0.61765533  0.73407456  1  0  0.343458  0  0.925852  0  0  0.323751  0  0.991045  0  0  0.332757  0  0.982998  0  0  0.300488  0.317394  0  0.996704  0
H  H5  1  0.48985943  0.61765751  0.23407406  1  0  0.343475  0  0.925858  0  0  0.323778  0  0.991043  0  0  0.332786  0  0.982991  0  0  0.300474  0.317414  0  0.996708  0
H  H6  1  0.98985995  0.38234038  0.26592669  1  0  0.343496  0  0.925791  0  0  0.32379  0  0.990991  0  0  0.332798  0  0.982939  0  0  0.30048  0.317428  0  0.996658  0
H  H7  1  0.51013837  0.38234058  0.76592356  1  0  0.343494  0  0.925863  0  0  0.323797  0  0.99105  0  0  0.332806  0  0.982996  0  0  0.300503  0.317438  0  0.996702  0
H  H8  1  0.93763161  0.82153242  0.75671623  1  0  0.329346  0  0.898932  0  0  0.314457  0  0.960218  0  0  0.320796  0  0.955855  0  0  0.30809  0.310031  0  0.963273  0
H  H9  1  0.56237126  0.82153365  0.25671688  1  0  0.329325  0  0.898972  0  0  0.31444  0  0.960253  0  0  0.320778  0  0.955889  0  0  0.308079  0.310014  0  0.963301  0
H  H10  1  0.06236099  0.17846210  0.24328604  1  0  0.329292  0  0.898976  0  0  0.314409  0  0.96026  0  0  0.320746  0  0.955898  0  0  0.30806  0.309985  0  0.963314  0
H  H11  1  0.43762134  0.17846322  0.74328019  1  0  0.329329  0  0.899003  0  0  0.314445  0  0.960263  0  0  0.320785  0  0.955895  0  0  0.30807  0.310017  0  0.963313  0
C  C12  1  0.43238877  0.74343899  0.93573757  1  0  0.356911  0  3.908279  0  0  0.33585  0  4.178655  0  0  0.35259  0  4.196008  0  0  0.187949  0.324455  0  4.166821  0
C  C13  1  0.06762932  0.74343660  0.43573706  1  0  0.357118  0  3.908156  0  0  0.336044  0  4.178503  0  0  0.352784  0  4.195848  0  0  0.188029  0.324656  0  4.166681  0
C  C14  1  0.56760903  0.25655675  0.06426527  1  0  0.356998  0  3.908294  0  0  0.33593  0  4.178651  0  0  0.352671  0  4.196005  0  0  0.18791  0.324528  0  4.166807  0
C  C15  1  0.93236588  0.25657599  0.56426199  1  0  0.35696  0  3.90807  0  0  0.33589  0  4.178429  0  0  0.352632  0  4.195765  0  0  0.188025  0.3245  0  4.166612  0
C  C16  1  0.63305880  0.95334060  0.86288789  1  0  0.338819  0  3.897753  0  0  0.324758  0  4.158224  0  0  0.340896  0  4.176024  0  0  0.18192  0.313728  0  4.146174  0
C  C17  1  0.86695774  0.95334013  0.36289052  1  0  0.338762  0  3.897442  0  0  0.324685  0  4.1579  0  0  0.340823  0  4.1757  0  0  0.181841  0.313656  0  4.145844  0
C  C18  1  0.36694679  0.04664548  0.13711469  1  0  0.338862  0  3.898086  0  0  0.324785  0  4.158538  0  0  0.340921  0  4.176337  0  0  0.181949  0.313769  0  4.146499  0
C  C19  1  0.13302706  0.04666762  0.63710789  1  0  0.338759  0  3.897455  0  0  0.324679  0  4.157938  0  0  0.340819  0  4.175736  0  0  0.181862  0.31365  0  4.145879  0
C  C20  1  0.59134801  0.79026486  0.87416445  1  0  -0.35465  0  3.958853  0  0  -0.330117  0  4.206671  0  0  -0.350024  0  4.225073  0  0  -0.058393  -0.316494  0  4.193755  0
C  C21  1  0.90866419  0.79026563  0.37416236  1  0  -0.354623  0  3.958943  0  0  -0.330039  0  4.206693  0  0  -0.349946  0  4.225104  0  0  -0.058311  -0.316415  0  4.19378  0
C  C22  1  0.40865759  0.20973086  0.12583733  1  0  -0.354685  0  3.95903  0  0  -0.330119  0  4.206768  0  0  -0.350025  0  4.225173  0  0  -0.05834  -0.316502  0  4.193857  0
C  C23  1  0.09133101  0.20973849  0.62583490  1  0  -0.354574  0  3.958935  0  0  -0.330024  0  4.20673  0  0  -0.349942  0  4.22517  0  0  -0.058339  -0.3164  0  4.193817  0
C  C24  1  0.72187590  0.66353691  0.82462664  1  0  0.654749  0  3.914488  0  0  0.602412  0  4.206573  0  0  0.633108  0  4.206327  0  0  0.231488  0.581599  0  4.206001  0
C  C25  1  0.77813532  0.66354102  0.32462520  1  0  0.654669  0  3.914555  0  0  0.602328  0  4.206607  0  0  0.633023  0  4.206361  0  0  0.231457  0.581513  0  4.206025  0
C  C26  1  0.27812970  0.33645520  0.17537662  1  0  0.654622  0  3.914763  0  0  0.602324  0  4.206763  0  0  0.633018  0  4.206524  0  0  0.231435  0.581513  0  4.206182  0
C  C27  1  0.22186508  0.33646189  0.67537255  1  0  0.654773  0  3.914588  0  0  0.602448  0  4.206632  0  0  0.633143  0  4.206382  0  0  0.231523  0.581632  0  4.206058  0
N  N28  1  0.30294907  0.69840808  0.98706571  1  0  -0.596482  0  2.683608  0  0  -0.565117  0  2.931084  0  0  -0.579566  0  2.93983  0  0  -0.488219  -0.555171  0  2.925227  0
N  N29  1  0.19706043  0.69840596  0.48706307  1  0  -0.596601  0  2.683707  0  0  -0.565247  0  2.931198  0  0  -0.57969  0  2.939941  0  0  -0.488283  -0.555298  0  2.925351  0
N  N30  1  0.69704872  0.30158882  0.01293399  1  0  -0.596546  0  2.6834  0  0  -0.565188  0  2.930887  0  0  -0.57963  0  2.939629  0  0  -0.488206  -0.555242  0  2.925032  0
N  N31  1  0.80293217  0.30160904  0.51293552  1  0  -0.596555  0  2.683611  0  0  -0.565187  0  2.931081  0  0  -0.57963  0  2.939821  0  0  -0.488308  -0.555241  0  2.925238  0
N  N32  1  0.67450182  0.08956699  0.85084173  1  0  -0.562456  0  2.662059  0  0  -0.53222  0  2.902968  0  0  -0.545152  0  2.911345  0  0  -0.450015  -0.523439  0  2.897492  0
N  N33  1  0.82551115  0.08957852  0.35084678  1  0  -0.562495  0  2.661615  0  0  -0.53225  0  2.902531  0  0  -0.545184  0  2.910905  0  0  -0.450017  -0.523464  0  2.89705  0
N  N34  1  0.32550898  0.91043232  0.14915751  1  0  -0.56243  0  2.662561  0  0  -0.532183  0  2.903465  0  0  -0.54512  0  2.911841  0  0  -0.450034  -0.523404  0  2.897996  0
N  N35  1  0.17447625  0.91043047  0.64915429  1  0  -0.562498  0  2.661522  0  0  -0.532249  0  2.902444  0  0  -0.545186  0  2.910813  0  0  -0.450037  -0.523463  0  2.896963  0
N  N36  1  0.88218411  0.70493031  0.76538691  1  0  -0.714664  0  3.123857  0  0  -0.676003  0  3.361984  0  0  -0.697726  0  3.35614  0  0  -0.591398  -0.660993  0  3.365755  0
N  N37  1  0.61782531  0.70493165  0.26538597  1  0  -0.714625  0  3.12393  0  0  -0.675999  0  3.362049  0  0  -0.697721  0  3.356205  0  0  -0.59136  -0.660972  0  3.365793  0
N  N38  1  0.11782409  0.29506422  0.23461642  1  0  -0.714545  0  3.123934  0  0  -0.675935  0  3.362056  0  0  -0.697654  0  3.356215  0  0  -0.591328  -0.660925  0  3.365818  0
N  N39  1  0.38217249  0.29506885  0.73461172  1  0  -0.714636  0  3.123955  0  0  -0.675994  0  3.362055  0  0  -0.697712  0  3.356203  0  0  -0.591359  -0.660966  0  3.365802  0
O  O40  1  0.68232254  0.51585868  0.83717086  1  0  -0.708017  0  1.965251  0  0  -0.650144  0  2.20301  0  0  -0.672888  0  2.194292  0  0  -0.440429  -0.634044  0  2.208478  0
O  O41  1  0.81768968  0.51585803  0.33716823  1  0  -0.708031  0  1.965159  0  0  -0.650151  0  2.202911  0  0  -0.672896  0  2.194194  0  0  -0.44044  -0.634048  0  2.208376  0
O  O42  1  0.31769085  0.48413585  0.16283194  1  0  -0.708047  0  1.965316  0  0  -0.650181  0  2.203046  0  0  -0.672933  0  2.194335  0  0  -0.440435  -0.634079  0  2.208512  0
O  O43  1  0.18231851  0.48414127  0.66282995  1  0  -0.70804  0  1.965243  0  0  -0.650171  0  2.20299  0  0  -0.672916  0  2.194273  0  0  -0.440426  -0.634069  0  2.208463  0
