# generated using pymatgen
data_CuH2C2NCl
_symmetry_space_group_name_H-M   'P 1'
_cell_length_a   3.67630626
_cell_length_b   13.13888594
_cell_length_c   14.39484009
_cell_angle_alpha   89.99922600
_cell_angle_beta   89.99968388
_cell_angle_gamma   90.00238423
_symmetry_Int_Tables_number   1
_chemical_formula_structural   CuH2C2NCl
_chemical_formula_sum   'Cu8 H16 C16 N8 Cl8'
_cell_volume   695.30775057
_cell_formula_units_Z   8
loop_
 _symmetry_equiv_pos_site_id
 _symmetry_equiv_pos_as_xyz
  1  'x, y, z'
loop_
 _atom_site_type_symbol
 _atom_site_label
 _atom_site_symmetry_multiplicity
 _atom_site_fract_x
 _atom_site_fract_y
 _atom_site_fract_z
 _atom_site_occupancy
 _atom_site_hle17_bader_spin_density
 _atom_site_hle17_ddec_charge
 _atom_site_hle17_ddec_spin_density
 _atom_site_hle17_ddec_sum_bond_order
 _atom_site_hle17_magmom
 _atom_site_hse06_10hf_bader_spin_density
 _atom_site_hse06_10hf_ddec_charge
 _atom_site_hse06_10hf_ddec_spin_density
 _atom_site_hse06_10hf_ddec_sum_bond_order
 _atom_site_hse06_10hf_magmom
 _atom_site_hse06_bader_spin_density
 _atom_site_hse06_ddec_charge
 _atom_site_hse06_ddec_spin_density
 _atom_site_hse06_ddec_sum_bond_order
 _atom_site_hse06_magmom
 _atom_site_pbe_bader_spin_density
 _atom_site_pbe_cm5_charge
 _atom_site_pbe_ddec_charge
 _atom_site_pbe_ddec_spin_density
 _atom_site_pbe_ddec_sum_bond_order
 _atom_site_pbe_magmom
Cu  Cu0  1  0.30420560  0.52958004  0.68606220  1  0  0.376186  0  2.014973  0  0  0.28331  0  2.513618  0  0  0.291892  0  2.456565  0  0  0.335503  0.28018  0  2.550747  0
Cu  Cu1  1  0.19584394  0.52965891  0.18606436  1  0  0.376243  0  2.015063  0  0  0.283254  0  2.513716  0  0  0.291878  0  2.456534  0  0  0.335405  0.280119  0  2.550836  0
Cu  Cu2  1  0.30423672  0.97035410  0.68605021  1  0  0.376224  0  2.015076  0  0  0.283267  0  2.513704  0  0  0.291878  0  2.456506  0  0  0.335495  0.280131  0  2.550853  0
Cu  Cu3  1  0.80419766  0.02961191  0.81392768  1  0  0.376116  0  2.015045  0  0  0.283255  0  2.513704  0  0  0.291876  0  2.456563  0  0  0.335434  0.28012  0  2.550825  0
Cu  Cu4  1  0.69583991  0.47038111  0.31392063  1  0  0.376078  0  2.015188  0  0  0.283148  0  2.513883  0  0  0.291765  0  2.456732  0  0  0.335418  0.280009  0  2.551034  0
Cu  Cu5  1  0.80416349  0.47037606  0.81396223  1  0  0.376283  0  2.015004  0  0  0.283376  0  2.513644  0  0  0.291935  0  2.456598  0  0  0.335514  0.280253  0  2.550779  0
Cu  Cu6  1  0.69585231  0.02960934  0.31395277  1  0  0.376077  0  2.01493  0  0  0.283141  0  2.513575  0  0  0.291707  0  2.456507  0  0  0.335358  0.279999  0  2.550734  0
Cu  Cu7  1  0.19578530  0.97042840  0.18605584  1  0  0.37623  0  2.015026  0  0  0.28336  0  2.513665  0  0  0.291941  0  2.456606  0  0  0.335541  0.280236  0  2.550779  0
H  H8  1  0.22134810  0.74996249  0.73095950  1  0  0.081158  0  0.92849  0  0  0.086204  0  0.996254  0  0  0.089564  0  0.992517  0  0  0.119655  0.08335  0  0.999455  0
H  H9  1  0.27854936  0.75003925  0.23097961  1  0  0.08117  0  0.928703  0  0  0.086299  0  0.996399  0  0  0.089635  0  0.992689  0  0  0.119686  0.083436  0  0.999613  0
H  H10  1  0.72141455  0.24998355  0.76903239  1  0  0.081177  0  0.928515  0  0  0.086316  0  0.996158  0  0  0.089645  0  0.992454  0  0  0.119697  0.083463  0  0.999359  0
H  H11  1  0.77859404  0.25000398  0.26903097  1  0  0.081143  0  0.928275  0  0  0.086214  0  0.99601  0  0  0.089573  0  0.992271  0  0  0.119683  0.083359  0  0.999217  0
H  H12  1  0.66742143  0.58582928  0.51126281  1  0  0.085431  0  0.944416  0  0  0.089761  0  1.01844  0  0  0.093769  0  1.012597  0  0  0.105574  0.086294  0  1.023307  0
H  H13  1  0.83267680  0.58587620  0.01128770  1  0  0.085434  0  0.944653  0  0  0.089775  0  1.018635  0  0  0.093855  0  1.012723  0  0  0.105596  0.086306  0  1.023509  0
H  H14  1  0.66731063  0.91412272  0.51124602  1  0  0.085402  0  0.944741  0  0  0.089862  0  1.018631  0  0  0.093867  0  1.012797  0  0  0.105615  0.086469  0  1.023429  0
H  H15  1  0.16746047  0.08583718  0.98872581  1  0  0.085422  0  0.9442  0  0  0.089718  0  1.01826  0  0  0.093779  0  1.012369  0  0  0.105552  0.08625  0  1.02313  0
H  H16  1  0.33261864  0.41415242  0.48872349  1  0  0.085391  0  0.94456  0  0  0.08971  0  1.01856  0  0  0.093765  0  1.012671  0  0  0.105598  0.086241  0  1.023432  0
H  H17  1  0.16740135  0.41414127  0.98874167  1  0  0.085454  0  0.944457  0  0  0.089825  0  1.018435  0  0  0.093835  0  1.012589  0  0  0.105578  0.086355  0  1.02331  0
H  H18  1  0.33266144  0.08584376  0.48874098  1  0  0.08536  0  0.944408  0  0  0.089767  0  1.018356  0  0  0.093774  0  1.012514  0  0  0.10559  0.08634  0  1.023193  0
H  H19  1  0.83252792  0.91417877  0.01126605  1  0  0.085465  0  0.944385  0  0  0.089769  0  1.018444  0  0  0.093841  0  1.012539  0  0  0.105636  0.086301  0  1.023313  0
H  H20  1  0.82286536  0.74997172  0.42954551  1  0  0.129884  0  0.954223  0  0  0.137943  0  1.013214  0  0  0.141278  0  1.013855  0  0  0.100875  0.135312  0  1.013235  0
H  H21  1  0.67704526  0.75002613  0.92956367  1  0  0.129921  0  0.954382  0  0  0.13803  0  1.013365  0  0  0.141372  0  1.013983  0  0  0.100944  0.135399  0  1.013391  0
H  H22  1  0.32292681  0.24998296  0.07043235  1  0  0.129794  0  0.954558  0  0  0.137888  0  1.013502  0  0  0.14124  0  1.014092  0  0  0.100861  0.135249  0  1.013558  0
H  H23  1  0.17712575  0.25000085  0.57044982  1  0  0.129942  0  0.954286  0  0  0.138004  0  1.013267  0  0  0.141361  0  1.013869  0  0  0.100889  0.13538  0  1.013271  0
C  C24  1  0.35384321  0.74995989  0.66318512  1  0  0.282624  0  3.641283  0  0  0.233221  0  3.900054  0  0  0.247917  0  3.911174  0  0  0.165631  0.223336  0  3.893554  0
C  C25  1  0.14609104  0.75004733  0.16320751  1  0  0.282735  0  3.641875  0  0  0.233149  0  3.900591  0  0  0.24786  0  3.911719  0  0  0.165662  0.223272  0  3.894073  0
C  C26  1  0.85392184  0.24999145  0.83680033  1  0  0.282711  0  3.641728  0  0  0.233348  0  3.900432  0  0  0.248087  0  3.91154  0  0  0.165715  0.223462  0  3.893932  0
C  C27  1  0.64613429  0.24999973  0.33681160  1  0  0.282997  0  3.641563  0  0  0.233643  0  3.900279  0  0  0.248347  0  3.911383  0  0  0.165761  0.223757  0  3.89379  0
C  C28  1  0.60054170  0.65955337  0.54127173  1  0  0.173143  0  3.640858  0  0  0.135046  0  3.897544  0  0  0.149543  0  3.907907  0  0  0.049708  0.124913  0  3.891953  0
C  C29  1  0.89941217  0.65961779  0.04128471  1  0  0.172998  0  3.640883  0  0  0.134799  0  3.897845  0  0  0.149232  0  3.908199  0  0  0.049602  0.124663  0  3.892261  0
C  C30  1  0.60049847  0.84039595  0.54126635  1  0  0.172968  0  3.640982  0  0  0.134594  0  3.898043  0  0  0.149084  0  3.908427  0  0  0.049498  0.124401  0  3.892434  0
C  C31  1  0.10057050  0.15957917  0.95872225  1  0  0.173321  0  3.640432  0  0  0.135262  0  3.897201  0  0  0.149712  0  3.907558  0  0  0.049825  0.125128  0  3.891616  0
C  C32  1  0.39948477  0.34042604  0.45872083  1  0  0.173357  0  3.641039  0  0  0.135232  0  3.897826  0  0  0.149689  0  3.908188  0  0  0.049728  0.125096  0  3.892253  0
C  C33  1  0.10060342  0.34041110  0.95873007  1  0  0.17318  0  3.640538  0  0  0.13501  0  3.897438  0  0  0.149519  0  3.907792  0  0  0.049819  0.124868  0  3.891869  0
C  C34  1  0.39947632  0.15957738  0.45873593  1  0  0.173311  0  3.640442  0  0  0.135105  0  3.897352  0  0  0.149603  0  3.907715  0  0  0.049626  0.124928  0  3.891776  0
C  C35  1  0.89939613  0.84045123  0.04128489  1  0  0.173294  0  3.640882  0  0  0.135191  0  3.897712  0  0  0.149637  0  3.908049  0  0  0.049804  0.125057  0  3.892123  0
C  C36  1  0.68738356  0.74997431  0.49671968  1  0  -0.145606  0  3.690259  0  0  -0.154842  0  3.935138  0  0  -0.167037  0  3.956603  0  0  -0.084235  -0.147716  0  3.922491  0
C  C37  1  0.81247941  0.75003786  0.99673487  1  0  -0.14563  0  3.69053  0  0  -0.155068  0  3.935632  0  0  -0.167267  0  3.957133  0  0  -0.084456  -0.147939  0  3.922974  0
C  C38  1  0.18746274  0.24998646  0.00326741  1  0  -0.145674  0  3.69087  0  0  -0.154991  0  3.935741  0  0  -0.167176  0  3.957211  0  0  -0.084459  -0.14787  0  3.923088  0
C  C39  1  0.31258851  0.25000663  0.50327357  1  0  -0.145974  0  3.690395  0  0  -0.155229  0  3.935252  0  0  -0.167437  0  3.95675  0  0  -0.084388  -0.148091  0  3.922598  0
N  N40  1  0.43168653  0.65927330  0.62492335  1  0  -0.323663  0  3.362711  0  0  -0.248493  0  3.662839  0  0  -0.263363  0  3.66663  0  0  -0.364452  -0.239934  0  3.660909  0
N  N41  1  0.06834068  0.65935682  0.12493335  1  0  -0.324066  0  3.363577  0  0  -0.248671  0  3.663625  0  0  -0.263548  0  3.667432  0  0  -0.364689  -0.240112  0  3.661695  0
N  N42  1  0.43159166  0.84065549  0.62491519  1  0  -0.32364  0  3.363031  0  0  -0.248404  0  3.663242  0  0  -0.263272  0  3.667032  0  0  -0.364518  -0.239854  0  3.661356  0
N  N43  1  0.93169907  0.15930510  0.87505904  1  0  -0.323856  0  3.363218  0  0  -0.248768  0  3.663453  0  0  -0.263655  0  3.66727  0  0  -0.364591  -0.240206  0  3.661527  0
N  N44  1  0.56836713  0.34069775  0.37506850  1  0  -0.323875  0  3.363216  0  0  -0.248675  0  3.663319  0  0  -0.263561  0  3.667134  0  0  -0.364479  -0.240117  0  3.661416  0
N  N45  1  0.93166131  0.34069338  0.87507449  1  0  -0.323895  0  3.362936  0  0  -0.248833  0  3.663261  0  0  -0.263719  0  3.667038  0  0  -0.364652  -0.240274  0  3.661356  0
N  N46  1  0.56840761  0.15931936  0.37508848  1  0  -0.323842  0  3.363156  0  0  -0.248759  0  3.663406  0  0  -0.263628  0  3.667169  0  0  -0.364479  -0.240197  0  3.66152  0
N  N47  1  0.06831924  0.84073673  0.12493282  1  0  -0.323674  0  3.36282  0  0  -0.248378  0  3.662892  0  0  -0.263249  0  3.666698  0  0  -0.364383  -0.239813  0  3.660942  0
Cl  Cl48  1  0.34071697  0.57681526  0.85006784  1  0  -0.485072  0  1.453316  0  0  -0.410738  0  1.841914  0  0  -0.427559  0  1.803325  0  0  -0.277161  -0.398444  0  1.867773  0
Cl  Cl49  1  0.15932004  0.57682598  0.35006798  1  0  -0.485017  0  1.453378  0  0  -0.410678  0  1.842041  0  0  -0.42752  0  1.803428  0  0  -0.277146  -0.398385  0  1.867896  0
Cl  Cl50  1  0.34067284  0.92316426  0.85005579  1  0  -0.485005  0  1.45324  0  0  -0.410687  0  1.841902  0  0  -0.42753  0  1.803291  0  0  -0.277151  -0.398396  0  1.867755  0
Cl  Cl51  1  0.84074240  0.07679454  0.64992621  1  0  -0.485045  0  1.453408  0  0  -0.410734  0  1.842116  0  0  -0.427569  0  1.803462  0  0  -0.277177  -0.398427  0  1.867941  0
Cl  Cl52  1  0.65927414  0.42321134  0.14992471  1  0  -0.484964  0  1.453348  0  0  -0.410639  0  1.842017  0  0  -0.42749  0  1.803399  0  0  -0.277124  -0.398318  0  1.867815  0
Cl  Cl53  1  0.84062754  0.42315724  0.64994611  1  0  -0.485047  0  1.453341  0  0  -0.410747  0  1.842031  0  0  -0.427571  0  1.803431  0  0  -0.277199  -0.398464  0  1.867895  0
Cl  Cl54  1  0.65932099  0.07685853  0.14994857  1  0  -0.48507  0  1.45341  0  0  -0.410776  0  1.8421  0  0  -0.427614  0  1.803532  0  0  -0.277198  -0.39848  0  1.867959  0
Cl  Cl55  1  0.15931671  0.92317270  0.35006426  1  0  -0.485011  0  1.453404  0  0  -0.410685  0  1.84208  0  0  -0.427488  0  1.803442  0  0  -0.277137  -0.398396  0  1.867976  0
