# generated using pymatgen
data_Zn2H14C30Br5N2Cl5O8
_symmetry_space_group_name_H-M   'P 1'
_cell_length_a   9.93970245
_cell_length_b   10.86484426
_cell_length_c   10.85712660
_cell_angle_alpha   104.71407596
_cell_angle_beta   110.91610671
_cell_angle_gamma   79.94620656
_symmetry_Int_Tables_number   1
_chemical_formula_structural   Zn2H14C30Br5N2Cl5O8
_chemical_formula_sum   'Zn2 H14 C30 Br5 N2 Cl5 O8'
_cell_volume   1054.73954469
_cell_formula_units_Z   1
loop_
 _symmetry_equiv_pos_site_id
 _symmetry_equiv_pos_as_xyz
  1  'x, y, z'
loop_
 _atom_site_type_symbol
 _atom_site_label
 _atom_site_symmetry_multiplicity
 _atom_site_fract_x
 _atom_site_fract_y
 _atom_site_fract_z
 _atom_site_occupancy
 _atom_site_pbe_bader_charge
 _atom_site_pbe_bader_spin_density
 _atom_site_pbe_cm5_charge
 _atom_site_pbe_ddec_charge
 _atom_site_pbe_ddec_spin_density
 _atom_site_pbe_ddec_sum_bond_order
 _atom_site_pbe_magmom
Zn  Zn0  1  0.32879372  0.54516694  0.46153633  1  1.301388  0  0.688654  0.893999  0  2.279999  0
Zn  Zn1  1  0.63754260  0.51746408  0.55141874  1  1.314047  0  0.689068  0.943229  0  2.195868  0
H  H2  1  0.37696503  0.37927215  0.02332254  1  0.070009  0  0.088273  0.105525  0  1.014896  0
H  H3  1  0.30755713  0.61494213  0.07671016  1  0.050072  0  0.094197  0.10878  0  0.988198  0
H  H4  1  0.31130010  0.61311383  0.86388897  1  0.097741  0  0.086527  0.062958  0  1.032616  0
H  H5  1  0.70336784  0.64122908  0.21741186  1  0.074893  0  0.095136  0.117458  0  0.976606  0
H  H6  1  0.75833640  0.47641708  0.19347182  1  0.059258  0  0.086645  0.091966  0  1.058366  0
H  H7  1  0.75651243  0.46820628  0.97747243  1  0.085318  0  0.099201  0.084268  0  0.984743  0
H  H8  1  0.44363669  0.72145692  0.15139109  1  0.070484  0  0.092642  0.109796  0  0.999548  0
H  H9  1  0.62164735  0.18328637  0.64575602  1  0.099326  0  0.105586  0.126618  0  0.995806  0
H  H10  1  0.09116350  0.82998734  0.08755455  1  0.076507  0  0.097545  0.114457  0  1.005982  0
H  H11  1  0.24096434  0.77544574  0.30476710  1  0.128116  0  0.10752  0.126963  0  1.033118  0
H  H12  1  0.55987923  0.31461245  0.07350671  1  0.062536  0  0.090341  0.106639  0  0.993897  0
H  H13  1  0.98688991  0.25935411  0.05865763  1  0.128756  0  0.103474  0.118222  0  1.010126  0
H  H14  1  0.11070518  0.45230744  0.20236659  1  0.118704  0  0.115198  0.131243  0  0.982673  0
H  H15  1  0.58359133  0.33262762  0.87460252  1  0.091911  0  0.102964  0.087114  0  0.975196  0
C  C16  1  0.45271639  0.29130949  0.45583388  1  1.588672  0  0.209798  0.58969  0  4.201858  0
C  C17  1  0.37137047  0.06156380  0.34726472  1  0.019599  0  -0.001824  0.011699  0  3.923843  0
C  C18  1  0.46053055  0.15095291  0.45145239  1  0.108876  0  -0.009038  -0.034392  0  3.92315  0
C  C19  1  0.52037444  0.51592382  0.27483480  1  1.572846  0  0.225095  0.600323  0  4.052  0
C  C20  1  0.55294879  0.11422984  0.56834080  1  -0.011292  0  -0.092703  -0.154152  0  3.996986  0
C  C21  1  0.55771124  0.99106303  0.58961203  1  -0.090556  0  -0.01113  0.099955  0  3.963718  0
C  C22  1  0.46132837  0.90542512  0.49886436  1  0.010922  0  -0.011809  -0.111145  0  3.866272  0
C  C23  1  0.89627564  0.27675895  0.33828756  1  0.119542  0  0.014343  0.016928  0  4.017643  0
C  C24  1  0.90460707  0.23381531  0.20863681  1  0.100898  0  0.011712  0.085548  0  4.046822  0
C  C25  1  0.98059442  0.29802684  0.15950648  1  -0.009676  0  -0.084762  -0.114978  0  3.987225  0
C  C26  1  0.04855885  0.40495344  0.23856839  1  0.006973  0  -0.080896  -0.133063  0  3.954721  0
C  C27  1  0.53300054  0.53898938  0.90076371  1  0.042454  0  -0.018175  -0.076282  0  3.749552  0
C  C28  1  0.03524089  0.45472345  0.36729738  1  0.46981  0  0.117098  0.191979  0  3.970262  0
C  C29  1  0.95490040  0.39350205  0.41663002  1  0.550319  0  0.115457  0.132997  0  3.980351  0
C  C30  1  0.98504878  0.55610662  0.60371268  1  0.631179  0  0.119555  0.148358  0  4.014555  0
C  C31  1  0.46584763  0.77270918  0.51906097  1  1.595236  0  0.219814  0.620774  0  4.133213  0
C  C32  1  0.06671003  0.61929677  0.55664047  1  0.593981  0  0.125771  0.178745  0  3.95232  0
C  C33  1  0.53363346  0.54008615  0.75945870  1  1.600627  0  0.210821  0.590669  0  4.119452  0
C  C34  1  0.48742261  0.39564058  0.03624512  1  -0.030259  0  -0.166471  -0.228291  0  3.852293  0
C  C35  1  0.49851708  0.40242154  0.89990576  1  -0.052946  0  -0.055875  0.053226  0  3.624372  0
C  C36  1  0.41581907  0.62995040  0.08167486  1  -0.028477  0  -0.16754  -0.235407  0  3.850221  0
C  C37  1  0.67738842  0.54886002  0.14887123  1  -0.038657  0  -0.176489  -0.239015  0  3.880669  0
C  C38  1  0.41544487  0.63582416  0.94126528  1  0.082423  0  -0.051274  0.086417  0  3.746468  0
C  C39  1  0.52607635  0.52247493  0.13701049  1  0.028871  0  -0.016987  0.05435  0  3.797496  0
C  C40  1  0.68439453  0.54820942  0.00960761  1  -0.020727  0  -0.063258  0.060422  0  3.649424  0
C  C41  1  0.29673449  0.08157505  0.21320441  1  0.05531  0  0.007067  0.031232  0  4.000685  0
C  C42  1  0.19702275  0.99894391  0.12163384  1  0.121269  0  0.00162  0.076128  0  4.090939  0
C  C43  1  0.17211141  0.89226410  0.15926123  1  -0.006977  0  -0.096682  -0.131745  0  4.032774  0
C  C44  1  0.25558487  0.86227316  0.28113410  1  -0.031309  0  -0.091148  -0.117137  0  3.963297  0
C  C45  1  0.36146543  0.94217507  0.37714327  1  0.036467  0  0.00501  0.08311  0  3.909584  0
Br  Br46  1  0.79023081  0.69538075  0.02698954  1  -0.143824  0  -0.032642  -0.12209  0  1.413102  0
Br  Br47  1  0.69580243  0.95669967  0.75382324  1  -0.033969  0  0.021163  -0.057995  0  1.571885  0
Br  Br48  1  0.94782843  0.62671189  0.76834933  1  0.024928  0  0.075271  -0.020333  0  1.690853  0
Br  Br49  1  0.12416876  0.78161645  0.64937802  1  0.089738  0  0.107231  0.044443  0  1.662044  0
Br  Br50  1  0.32096557  0.34167811  0.75437449  1  -0.121862  0  -0.001136  -0.079765  0  1.376591  0
N  N51  1  0.93421666  0.44677477  0.53694766  1  -1.193127  0  -0.29299  -0.260713  0  3.392772  0
N  N52  1  0.09898905  0.56341422  0.44599834  1  -1.216168  0  -0.306263  -0.277321  0  3.405141  0
Cl  Cl53  1  0.43262398  0.79673937  0.93604317  1  -0.252989  0  -0.061438  -0.136571  0  1.511525  0
Cl  Cl54  1  0.34278178  0.19877902  0.15865027  1  -0.184618  0  0.023094  -0.028212  0  1.727645  0
Cl  Cl55  1  0.10714557  0.01897862  0.95900424  1  -0.193151  0  -0.004692  -0.081805  0  1.691971  0
Cl  Cl56  1  0.81640416  0.19425689  0.40278937  1  -0.141323  0  0.028693  0.001623  0  1.674411  0
Cl  Cl57  1  0.81928701  0.10247530  0.10508470  1  -0.171457  0  0.012534  -0.049786  0  1.670148  0
O  O58  1  0.32832838  0.35447068  0.43048866  1  -1.153784  0  -0.311781  -0.550223  0  2.409789  0
O  O59  1  0.57266650  0.33825411  0.49717721  1  -1.172821  0  -0.313446  -0.559722  0  2.454246  0
O  O60  1  0.39714912  0.52347067  0.28822426  1  -1.178407  0  -0.313321  -0.56142  0  2.291285  0
O  O61  1  0.64274706  0.50418653  0.36662850  1  -1.152037  0  -0.309635  -0.527208  0  2.364853  0
O  O62  1  0.34413371  0.73078077  0.49149320  1  -1.155252  0  -0.311641  -0.542666  0  2.446529  0
O  O63  1  0.58890866  0.71095771  0.55676679  1  -1.16594  0  -0.312796  -0.557039  0  2.372593  0
O  O64  1  0.41301286  0.56180272  0.67238260  1  -1.184429  0  -0.311228  -0.564451  0  2.446637  0
O  O65  1  0.65580345  0.51439998  0.73978563  1  -1.14397  0  -0.315048  -0.534926  0  2.361688  0
