# generated using pymatgen
data_CoH16C21(NO3)2
_symmetry_space_group_name_H-M   'P 1'
_cell_length_a   9.46598133
_cell_length_b   9.59897539
_cell_length_c   11.44310213
_cell_angle_alpha   70.71498324
_cell_angle_beta   66.19817494
_cell_angle_gamma   83.58942249
_symmetry_Int_Tables_number   1
_chemical_formula_structural   CoH16C21(NO3)2
_chemical_formula_sum   'Co2 H32 C42 N4 O12'
_cell_volume   897.66436459
_cell_formula_units_Z   2
loop_
 _symmetry_equiv_pos_site_id
 _symmetry_equiv_pos_as_xyz
  1  'x, y, z'
loop_
 _atom_site_type_symbol
 _atom_site_label
 _atom_site_symmetry_multiplicity
 _atom_site_fract_x
 _atom_site_fract_y
 _atom_site_fract_z
 _atom_site_occupancy
 _atom_site_hle17_ddec_charge
 _atom_site_hle17_ddec_spin_density
 _atom_site_hle17_ddec_sum_bond_order
 _atom_site_hle17_magmom
 _atom_site_hse06_10hf_ddec_charge
 _atom_site_hse06_10hf_ddec_spin_density
 _atom_site_hse06_10hf_ddec_sum_bond_order
 _atom_site_hse06_10hf_magmom
 _atom_site_hse06_ddec_charge
 _atom_site_hse06_ddec_spin_density
 _atom_site_hse06_ddec_sum_bond_order
 _atom_site_hse06_magmom
 _atom_site_pbe_cm5_charge
 _atom_site_pbe_ddec_charge
 _atom_site_pbe_ddec_spin_density
 _atom_site_pbe_ddec_sum_bond_order
 _atom_site_pbe_magmom
Co  Co0  1  0.91167058  0.33983484  0.24930444  1  0.782389  -1.323309  2.419368  -1.107  0.774083  -1.114854  2.852001  -0.994  0.83014  -1.07809  2.781445  -0.974  0.67253  0.741404  -1.130583  2.894484  -0.994
Co  Co1  1  0.07937547  0.65574553  0.76476458  1  0.991372  3.045929  1.988921  2.593  0.953842  2.939787  2.396427  2.654  1.025075  2.951269  2.326961  2.721  0.672568  0.892714  2.921132  2.45803  2.594
H  H2  1  0.01844353  0.62120352  0.08735030  1  0.409459  -0.000257  0.906389  -0.001  0.380292  -0.00039  0.969958  -0.001  0.390723  -0.000268  0.954929  -0.001  0.283972  0.373038  -0.000491  0.980299  -0.001
H  H3  1  0.97201193  0.38371395  0.91993293  1  0.42782  -1.9e-05  0.884217  0.0  0.396142  0.00021  0.950343  0.001  0.408117  5.3e-05  0.933315  0.001  0.29116  0.387647  0.000363  0.962273  0.001
H  H4  1  0.14244142  0.52021603  0.02048962  1  0.421894  -0.000802  0.872411  -0.002  0.400733  -0.000838  0.924107  -0.002  0.410409  -0.000705  0.909974  -0.001  0.297321  0.393678  -0.000956  0.934331  -0.002
H  H5  1  0.85453100  0.49084711  0.98164620  1  0.430887  0.000316  0.84866  0.001  0.407815  0.000667  0.909948  0.002  0.419009  0.000512  0.893839  0.001  0.306308  0.399504  0.000789  0.921785  0.002
H  H6  1  0.68909462  0.59017633  0.21545593  1  0.087313  -0.000461  0.935293  -0.001  0.096214  0.000114  0.996608  0.0  0.099737  7.6e-05  0.991709  0.0  0.12137  0.093121  0.000117  1.0005  0.0
H  H7  1  0.31200116  0.38886073  0.77924853  1  0.080434  0.000878  0.93749  0.002  0.088589  0.000493  1.001506  0.001  0.092265  0.00034  0.997331  0.001  0.115676  0.085305  0.000669  1.005012  0.002
H  H8  1  0.54139241  0.74514215  0.36099767  1  0.09986  0.000211  0.970033  0.001  0.110938  -2e-05  1.030399  0.0  0.113742  -4e-06  1.030086  0.0  0.104916  0.10841  -2.7e-05  1.031935  0.0
H  H9  1  0.46480645  0.24386131  0.62420654  1  0.100544  0.000195  0.974617  0.0  0.111774  0.000373  1.034991  0.0  0.114609  0.000275  1.034832  0.0  0.104841  0.108955  0.000461  1.036877  0.0
H  H10  1  0.55195245  0.69398427  0.58615911  1  0.104793  -0.00066  0.956469  -0.001  0.11587  -4e-06  1.017167  0.0  0.118984  -4.5e-05  1.014159  0.0  0.107975  0.113225  5.3e-05  1.019246  0.0
H  H11  1  0.44835639  0.30507550  0.40031056  1  0.098201  0.000465  0.968609  0.001  0.108399  -2.5e-05  1.032264  0.0  0.111385  -2e-06  1.03039  0.0  0.106217  0.105793  -7.3e-05  1.033746  0.0
H  H12  1  0.66886261  0.52910520  0.75865704  1  0.10429  8.2e-05  0.941116  0.0  0.117107  -2e-06  0.998009  0.0  0.120078  -1e-05  0.997508  0.0  0.106046  0.114542  9e-06  0.999257  0.0
H  H13  1  0.33537792  0.47190721  0.23362871  1  0.101532  0.000192  0.942077  0.0  0.114303  0.000123  1.000217  0.0  0.117312  8.4e-05  0.999756  0.0  0.105299  0.111689  0.000186  1.001458  0.0
H  H14  1  0.84514964  0.33114487  0.80815564  1  0.115872  7.4e-05  0.951834  0.0  0.128956  8e-06  1.007877  0.0  0.132886  -2.8e-05  1.005621  0.0  0.110793  0.125789  5.9e-05  1.009741  0.0
H  H15  1  0.15746702  0.66946658  0.18611018  1  0.116807  -3.4e-05  0.9565  0.0  0.1289  2.5e-05  1.013397  0.0  0.132763  1.8e-05  1.011039  0.0  0.11096  0.125837  3.2e-05  1.015185  0.0
H  H16  1  0.05317632  0.14307000  0.72670775  1  0.114144  -0.00076  0.918089  -0.002  0.127487  4e-06  0.972781  0.0  0.13162  -2.5e-05  0.968158  0.0  0.11406  0.124048  4e-05  0.976779  0.0
H  H17  1  0.95095572  0.84967166  0.26744824  1  0.113517  0.000212  0.92403  0.0  0.125506  6e-06  0.981505  0.0  0.129402  2e-06  0.977938  0.0  0.113765  0.122326  1.6e-05  0.984556  0.0
H  H18  1  0.19722436  0.03505961  0.54161128  1  0.124916  0.000162  0.95504  0.001  0.133854  -0.000101  1.0143  0.0  0.137893  -0.000103  1.012801  0.0  0.109432  0.130774  -0.000123  1.015544  0.0
H  H19  1  0.80602351  0.96451497  0.44869565  1  0.125813  0.000413  0.962926  0.0  0.134215  0.000402  1.023374  0.0  0.138364  0.000318  1.022095  0.0  0.109769  0.131072  0.000501  1.024526  0.001
H  H20  1  0.15093326  0.12693731  0.32743896  1  0.084738  -0.000387  0.992496  -0.001  0.089919  8.5e-05  1.060014  0.0  0.092684  3e-05  1.057074  0.0  0.116023  0.087721  0.000119  1.062698  0.0
H  H21  1  0.86113796  0.88372962  0.65913539  1  0.083159  0.000644  0.970995  0.002  0.087622  0.00052  1.039927  0.001  0.08964  0.000344  1.038547  0.001  0.115899  0.086031  0.000683  1.041402  0.002
H  H22  1  0.59848301  0.36288901  0.02042131  1  0.096052  2.6e-05  0.944866  0.0  0.108635  7.2e-05  1.003098  0.0  0.111826  5.1e-05  1.000808  0.0  0.105708  0.106218  9e-05  1.004792  0.0
H  H23  1  0.40664996  0.63634346  0.98354758  1  0.09529  0.000159  0.94887  0.0  0.10656  0.000138  1.009165  0.0  0.11023  7.4e-05  1.006115  0.0  0.103709  0.103894  0.000196  1.011316  0.0
H  H24  1  0.41153896  0.25632655  0.97105288  1  0.107282  2.1e-05  0.953173  0.0  0.120114  1.8e-05  1.010839  0.0  0.123261  1.3e-05  1.009564  0.0  0.104172  0.117765  3.6e-05  1.012202  0.0
H  H25  1  0.58858651  0.74998630  0.03377205  1  0.10183  -5.6e-05  0.957562  0.0  0.114177  -2.3e-05  1.016823  0.0  0.117163  -2.4e-05  1.015768  0.0  0.101788  0.112067  -3.4e-05  1.017933  0.0
H  H26  1  0.33900798  0.87891307  0.32497753  1  0.111441  9e-06  0.956641  0.0  0.120835  -3.3e-05  1.01797  0.0  0.123137  -1.7e-05  1.01864  0.0  0.105289  0.119653  -5.7e-05  1.017045  0.0
H  H27  1  0.65896588  0.12182016  0.67639990  1  0.110774  7.2e-05  0.956766  0.0  0.119848  9.8e-05  1.018763  0.0  0.12242  5.3e-05  1.018841  0.0  0.103896  0.118657  0.000125  1.017905  0.0
H  H28  1  0.52558004  0.99108804  0.37606065  1  0.102348  -0.000217  0.947139  0.0  0.113303  -0.000227  1.006506  0.0  0.116448  -0.000153  1.004495  0.0  0.106633  0.111194  -0.000304  1.007513  0.0
H  H29  1  0.47379487  0.00527901  0.62723779  1  0.101979  0.000202  0.948119  0.0  0.112394  0.000176  1.009119  0.0  0.115969  0.000109  1.006288  0.0  0.105418  0.110027  0.00024  1.010702  0.0
H  H30  1  0.14802988  0.96641341  0.01946036  1  0.113126  0.000105  0.923079  0.0  0.122137  5.8e-05  0.987684  0.0  0.123488  4.3e-05  0.987089  0.0  0.118423  0.121181  6.8e-05  0.987863  0.0
H  H31  1  0.83959827  0.04779996  0.98811025  1  0.107731  5.8e-05  0.926047  0.0  0.118189  0.000169  0.990035  0.0  0.120302  0.000126  0.988742  0.0  0.115726  0.116895  0.00024  0.990667  0.0
H  H32  1  0.29953367  0.10171470  0.92756572  1  0.080258  0.000175  0.942792  0.0  0.088248  7e-05  1.014144  0.0  0.088191  3.4e-05  1.01518  0.0  0.105643  0.088831  4.8e-05  1.012875  0.0
H  H33  1  0.68501691  0.91584555  0.08036497  1  0.07544  -0.000111  0.953645  0.0  0.084511  -5e-06  1.024848  0.0  0.085057  -5e-06  1.025553  0.0  0.102258  0.084697  2.3e-05  1.02394  0.0
C  C34  1  0.69653196  0.57332180  0.31156516  1  0.135384  0.022511  3.655608  0.027  0.104488  0.007633  3.916356  0.009  0.120336  0.005014  3.924663  0.006  0.051029  0.094181  0.008952  3.912381  0.01
C  C35  1  0.30591890  0.41149128  0.68163904  1  0.151257  -0.016056  3.688927  -0.021  0.121432  -0.005421  3.951272  -0.007  0.132504  -0.00454  3.963523  -0.006  0.056435  0.113984  -0.006762  3.944552  -0.009
C  C36  1  0.61269786  0.65802590  0.39551749  1  -0.112537  -0.009103  3.73948  -0.013  -0.126244  -0.001059  3.993658  -0.002  -0.133192  -0.001422  4.009067  -0.002  -0.082939  -0.124118  -0.000246  3.986261  -0.001
C  C37  1  0.39200800  0.33185646  0.59355973  1  -0.12208  0.0118  3.739755  0.016  -0.136054  0.003735  3.993267  0.005  -0.14343  0.003524  4.012909  0.005  -0.088925  -0.133876  0.003736  3.984153  0.006
C  C38  1  0.61856694  0.62958601  0.52027401  1  -0.054291  0.024587  3.684985  0.029  -0.078444  0.00786  3.933982  0.009  -0.068905  0.00452  3.944681  0.005  -0.069501  -0.084375  0.010015  3.927179  0.012
C  C39  1  0.38362991  0.36660648  0.46930367  1  -0.048463  -0.017696  3.698088  -0.021  -0.07251  -0.006736  3.946432  -0.008  -0.067499  -0.004961  3.961995  -0.006  -0.068573  -0.07589  -0.009854  3.936599  -0.011
C  C40  1  0.71416946  0.51625987  0.56018436  1  0.02789  -0.00454  3.8151  -0.007  0.042434  -0.000616  4.047377  -0.002  0.038946  -0.000703  4.06969  -0.001  -0.000927  0.045254  -0.000262  4.033835  -0.001
C  C41  1  0.28857562  0.48235154  0.43289749  1  0.01737  0.006995  3.821725  0.01  0.032945  0.002207  4.051853  0.003  0.029525  0.001986  4.076935  0.003  -0.005653  0.035899  0.002568  4.036856  0.004
C  C42  1  0.73369942  0.47229323  0.68525424  1  -0.105602  -0.00171  3.710613  -0.001  -0.125691  -0.000487  3.964569  0.0  -0.129199  -0.000309  3.986097  0.0  -0.085328  -0.124486  -0.000345  3.9523  0.0
C  C43  1  0.27085718  0.52857724  0.30723342  1  -0.106737  -0.001656  3.727298  -0.002  -0.127629  0.0  3.982354  0.0  -0.132209  -0.000351  4.005354  -0.001  -0.08773  -0.125213  8.9e-05  3.968997  0.0
C  C44  1  0.83297223  0.36292768  0.71233942  1  -0.071904  -0.000783  3.692329  0.0  -0.101145  -0.000346  3.955012  0.0  -0.101594  -0.00042  3.973108  0.0  -0.077575  -0.101369  -0.000226  3.943955  0.0
C  C45  1  0.17192532  0.63802063  0.28088223  1  -0.071515  0.003987  3.70079  0.005  -0.101249  0.001072  3.962452  0.001  -0.101449  0.001149  3.981072  0.001  -0.079816  -0.101982  0.001326  3.951344  0.001
C  C46  1  0.92579612  0.29096629  0.61579667  1  0.029176  -0.005526  3.793401  -0.009  0.041483  -0.00078  4.034269  -0.002  0.038392  -0.000689  4.053594  -0.001  -0.000473  0.044356  -0.000452  4.02222  -0.002
C  C47  1  0.08110980  0.70910873  0.37838601  1  0.021947  0.001821  3.788005  0.003  0.037384  0.000854  4.02546  0.001  0.03461  0.000397  4.04692  0.001  -0.000631  0.040234  0.001115  4.012133  0.002
C  C48  1  0.03387473  0.18049343  0.63358384  1  -0.028615  0.027116  3.637342  0.032  -0.058796  0.008307  3.894768  0.01  -0.046779  0.004393  3.901323  0.005  -0.062461  -0.069271  0.011188  3.892487  0.013
C  C49  1  0.97151145  0.81762852  0.35995497  1  -0.017608  -0.006787  3.637808  -0.008  -0.048754  -0.002413  3.893799  -0.003  -0.042057  -0.001282  3.906065  -0.001  -0.057117  -0.055239  -0.003966  3.887371  -0.005
C  C50  1  0.11476054  0.12186343  0.52991997  1  -0.120087  -0.011053  3.711896  -0.015  -0.132414  -0.001586  3.966981  -0.003  -0.140349  -0.001633  3.981239  -0.002  -0.08138  -0.127282  -0.000916  3.960154  -0.002
C  C51  1  0.89022268  0.87964143  0.46095946  1  -0.122114  0.005475  3.701993  0.008  -0.134739  0.00222  3.957243  0.003  -0.142726  0.001659  3.975436  0.003  -0.082486  -0.129669  0.002389  3.947796  0.004
C  C52  1  0.08962210  0.17135372  0.40991644  1  0.132399  0.023855  3.648874  0.029  0.103857  0.007459  3.90411  0.009  0.119618  0.004473  3.913248  0.006  0.049298  0.092147  0.009317  3.902094  0.011
C  C53  1  0.92032265  0.83556195  0.57855946  1  0.146869  -0.006019  3.667507  -0.008  0.118803  -0.000793  3.924648  -0.001  0.129482  -0.000552  3.940206  -0.001  0.056676  0.110335  -0.001272  3.917153  -0.002
C  C54  1  0.90685658  0.33298489  0.49270499  1  0.105901  0.011466  3.786689  0.014  0.101612  0.004315  4.026327  0.005  0.108965  0.00234  4.043298  0.003  0.105923  0.096567  0.005002  4.016241  0.006
C  C55  1  0.10072301  0.66896065  0.50151409  1  0.120945  -0.002484  3.781242  -0.003  0.115181  -0.000825  4.022859  -0.001  0.120498  -0.000234  4.043873  0.0  0.112681  0.110973  -0.001659  4.00966  -0.001
C  C56  1  0.79973786  0.44088015  0.46723184  1  0.112477  0.010784  3.773596  0.013  0.107357  0.004431  4.011959  0.005  0.114846  0.002521  4.029081  0.003  0.108465  0.101666  0.005126  4.003279  0.006
C  C57  1  0.20414953  0.55481017  0.52921544  1  0.123031  -0.008868  3.775224  -0.012  0.11998  -0.003306  4.013697  -0.005  0.124863  -0.002532  4.034418  -0.004  0.113446  0.11533  -0.00449  4.002664  -0.006
C  C58  1  0.68963836  0.23876836  0.23439899  1  0.60916  0.002782  3.899684  0.004  0.565001  0.000482  4.202042  0.002  0.601264  0.000254  4.198571  0.001  0.194506  0.539296  0.000576  4.203347  0.003
C  C59  1  0.31225908  0.75081378  0.77546689  1  0.619738  -0.005562  3.926022  -0.01  0.575174  -0.000964  4.228238  -0.004  0.610776  -0.00075  4.224277  -0.003  0.192098  0.549467  -0.000959  4.228294  -0.005
C  C60  1  0.57482907  0.18354618  0.20152936  1  -0.108243  0.000379  3.807909  0.001  -0.088543  -9e-06  4.047715  0.0  -0.098719  -5e-05  4.07085  0.0  -0.035949  -0.082335  -6.9e-05  4.032453  0.0
C  C61  1  0.42759829  0.81355994  0.80258550  1  -0.105888  0.002377  3.810042  0.003  -0.085988  0.001106  4.048658  0.001  -0.096373  0.000661  4.072014  0.001  -0.037398  -0.079938  0.001684  4.033715  0.002
C  C62  1  0.54103453  0.25710898  0.08796168  1  -0.033127  0.00108  3.735384  0.001  -0.057708  0.000364  3.987863  0.0  -0.053171  0.000281  4.005295  0.0  -0.079385  -0.060341  0.000328  3.97612  0.0
C  C63  1  0.46241304  0.74275687  0.91604047  1  -0.036716  -0.001286  3.743994  -0.002  -0.060128  -5e-05  3.994368  0.0  -0.055536  -9.5e-05  4.011281  0.0  -0.081558  -0.063148  5.6e-05  3.983175  0.0
C  C64  1  0.43631498  0.19641538  0.05936948  1  -0.192659  -0.000518  3.730015  -0.001  -0.215237  -0.000114  3.987264  0.0  -0.22241  -0.000122  4.006217  0.0  -0.104351  -0.210778  -0.000119  3.975095  0.0
C  C65  1  0.56421751  0.80711069  0.94473841  1  -0.192885  0.000903  3.743218  0.001  -0.215058  7e-05  3.999346  0.0  -0.221922  7.5e-05  4.018072  0.0  -0.108868  -0.210748  0.000166  3.987317  0.0
C  C66  1  0.36491542  0.05864055  0.14463890  1  0.295062  0.000881  3.793166  0.001  0.282034  0.000355  4.058266  0.0  0.296662  0.000278  4.071591  0.0  0.09376  0.272023  0.000488  4.048974  0.001
C  C67  1  0.63355841  0.94545375  0.85858555  1  0.29482  -0.001441  3.793384  -0.002  0.282695  -0.000454  4.055679  -0.001  0.297311  -0.000376  4.06892  0.0  0.093008  0.27281  -0.000364  4.046478  0.0
C  C68  1  0.39820769  0.98423048  0.25879021  1  -0.197847  -0.000657  3.749678  -0.001  -0.217903  -0.000184  4.010658  0.0  -0.225815  -0.000189  4.030484  0.0  -0.104416  -0.212139  -0.000161  3.996418  0.0
C  C69  1  0.60090242  0.01624672  0.74347810  1  -0.200455  0.001013  3.748208  0.001  -0.220076  0.000286  4.007386  0.0  -0.227595  0.000239  4.026331  0.0  -0.105809  -0.214317  0.000449  3.993028  0.001
C  C70  1  0.50027416  0.04687347  0.28715855  1  -0.049639  0.000702  3.767323  0.001  -0.074161  -0.000118  4.017393  0.0  -0.071527  -8.1e-05  4.037319  0.0  -0.083034  -0.075728  -0.000171  4.003423  0.0
C  C71  1  0.49949307  0.95092238  0.71616137  1  -0.051729  -0.000853  3.769658  -0.001  -0.075783  0.000217  4.019365  0.0  -0.072383  7.5e-05  4.037971  0.0  -0.084797  -0.077317  0.000199  4.005856  0.0
C  C72  1  0.20492620  0.05566206  0.02607857  1  -0.073057  0.001625  3.630625  0.002  -0.136078  0.000528  3.901941  0.001  -0.133858  0.000351  3.905492  0.0  -0.066971  -0.137199  0.000629  3.898468  0.001
C  C73  1  0.78340242  0.95683137  0.98332741  1  -0.074625  0.004  3.628716  0.006  -0.135577  0.002343  3.89532  0.003  -0.132757  0.001683  3.897107  0.002  -0.070651  -0.137515  0.002968  3.893518  0.004
C  C74  1  0.08501053  0.17495707  0.05301042  1  0.655071  0.002664  3.851663  0.003  0.612964  0.001269  4.158576  0.001  0.648115  0.000865  4.152198  0.001  0.21517  0.58862  0.001587  4.162212  0.002
C  C75  1  0.90056000  0.83400546  0.96397261  1  0.658722  -0.001999  3.898027  -0.003  0.614764  0.000745  4.203837  0.001  0.649105  0.0006  4.19575  0.001  0.204095  0.590749  0.000825  4.207601  0.001
N  N76  1  0.78857190  0.46561006  0.34637480  1  -0.266255  0.008489  3.358899  0.01  -0.225831  0.00594  3.645565  0.009  -0.248986  0.003661  3.658516  0.006  -0.33784  -0.213696  0.006792  3.637927  0.01
N  N77  1  0.21309634  0.51974477  0.65125479  1  -0.336329  0.045319  3.300128  0.076  -0.294615  0.030248  3.581047  0.05  -0.314708  0.025866  3.594192  0.043  -0.322989  -0.281546  0.033599  3.572967  0.055
N  N78  1  0.98699664  0.27488263  0.39030083  1  -0.276961  0.00169  3.342154  0.001  -0.2399  0.001176  3.635113  0.003  -0.261941  -0.000508  3.645054  0.001  -0.332941  -0.227234  0.001964  3.629237  0.004
N  N79  1  0.02333502  0.73348127  0.59859494  1  -0.339855  0.044789  3.304213  0.067  -0.298633  0.032499  3.594354  0.045  -0.322302  0.026364  3.609323  0.036  -0.326869  -0.280492  0.037729  3.584087  0.052
O  O80  1  0.76783348  0.36100574  0.15609838  1  -0.598864  0.008692  2.097829  0.015  -0.56482  0.002033  2.363951  0.005  -0.606444  0.002634  2.358731  0.006  -0.308512  -0.535375  0.000438  2.366074  0.002
O  O81  1  0.25400521  0.61963011  0.84720935  1  -0.652402  0.04479  2.035371  0.07  -0.612049  0.032822  2.289156  0.051  -0.64835  0.024094  2.280258  0.037  -0.321723  -0.580923  0.042374  2.292252  0.065
O  O82  1  0.71448615  0.16572352  0.33856493  1  -0.5853  -0.033576  1.935988  -0.052  -0.554569  -0.02967  2.175904  -0.047  -0.587205  -0.022793  2.169991  -0.036  -0.303821  -0.528488  -0.037625  2.177383  -0.059
O  O83  1  0.26750975  0.82653589  0.68259387  1  -0.607714  0.037157  1.941099  0.061  -0.578033  0.027645  2.186675  0.046  -0.612405  0.020312  2.180456  0.034  -0.313872  -0.548412  0.035757  2.188104  0.058
O  O84  1  0.26199184  0.98653764  0.12864338  1  -0.260753  0.00026  2.409444  0.0  -0.18993  0.000117  2.647417  0.0  -0.209937  7e-05  2.65424  0.0  -0.169429  -0.17528  0.000147  2.641767  0.0
O  O85  1  0.73237258  0.02139426  0.87584850  1  -0.264173  -9.4e-05  2.399406  0.0  -0.193428  4.3e-05  2.636698  0.0  -0.213319  -2.7e-05  2.642789  0.0  -0.172301  -0.178983  -1e-06  2.631727  0.0
O  O86  1  0.05146461  0.20569303  0.16147475  1  -0.555424  0.008117  2.157107  0.013  -0.525271  0.002436  2.434213  0.005  -0.562894  0.002205  2.426886  0.004  -0.29807  -0.499227  0.002055  2.438618  0.004
O  O87  1  0.93148383  0.79259205  0.86190489  1  -0.625461  0.034241  2.111909  0.055  -0.583443  0.026757  2.381289  0.039  -0.617036  0.021472  2.369748  0.031  -0.317555  -0.555381  0.032262  2.387966  0.047
O  O88  1  0.03298640  0.22733512  0.96206153  1  -0.617522  0.001491  1.979146  0.003  -0.570709  0.000777  2.206471  0.001  -0.597418  0.000465  2.197101  0.001  -0.316362  -0.550771  0.001221  2.211681  0.002
O  O89  1  0.95452434  0.78657138  0.05445519  1  -0.635879  -0.000663  1.957406  -0.001  -0.586839  -0.000321  2.182943  0.0  -0.6118  -0.000443  2.172854  -0.001  -0.324283  -0.567577  -4.4e-05  2.188237  0.0
O  O90  1  0.06416894  0.52022181  0.10890597  1  -0.826334  -0.027527  1.976733  -0.043  -0.794444  -0.023719  2.176448  -0.037  -0.82092  -0.019542  2.145123  -0.03  -0.581984  -0.773385  -0.027915  2.196462  -0.043
O  O91  1  0.92820692  0.48588257  0.89359159  1  -0.832876  0.038455  1.987729  0.058  -0.802672  0.032526  2.21467  0.047  -0.833025  0.025782  2.178034  0.037  -0.578898  -0.776553  0.039118  2.239884  0.057
