# generated using pymatgen
data_SrH18C20(N6O)2
_symmetry_space_group_name_H-M   'P 1'
_cell_length_a   8.05062818
_cell_length_b   8.06709576
_cell_length_c   8.98489057
_cell_angle_alpha   101.77141821
_cell_angle_beta   91.75402492
_cell_angle_gamma   108.13108385
_symmetry_Int_Tables_number   1
_chemical_formula_structural   SrH18C20(N6O)2
_chemical_formula_sum   'Sr1 H18 C20 N12 O2'
_cell_volume   540.10534478
_cell_formula_units_Z   1
loop_
 _symmetry_equiv_pos_site_id
 _symmetry_equiv_pos_as_xyz
  1  'x, y, z'
loop_
 _atom_site_type_symbol
 _atom_site_label
 _atom_site_symmetry_multiplicity
 _atom_site_fract_x
 _atom_site_fract_y
 _atom_site_fract_z
 _atom_site_occupancy
 _atom_site_hle17_bader_spin_density
 _atom_site_hle17_ddec_charge
 _atom_site_hle17_ddec_spin_density
 _atom_site_hle17_ddec_sum_bond_order
 _atom_site_hle17_magmom
 _atom_site_hse06_10hf_bader_spin_density
 _atom_site_hse06_10hf_ddec_charge
 _atom_site_hse06_10hf_ddec_spin_density
 _atom_site_hse06_10hf_ddec_sum_bond_order
 _atom_site_hse06_10hf_magmom
 _atom_site_hse06_bader_spin_density
 _atom_site_hse06_ddec_charge
 _atom_site_hse06_ddec_spin_density
 _atom_site_hse06_ddec_sum_bond_order
 _atom_site_hse06_magmom
 _atom_site_pbe_bader_spin_density
 _atom_site_pbe_cm5_charge
 _atom_site_pbe_ddec_charge
 _atom_site_pbe_ddec_spin_density
 _atom_site_pbe_ddec_sum_bond_order
 _atom_site_pbe_magmom
Sr  Sr0  1  0.49999566  0.49999674  0.49999965  1  0  1.522004  0  1.129223  0  0  1.357421  0  1.498915  0  0  1.392451  0  1.461262  0  0  0.996654  1.331097  0  1.527138  0
H  H1  1  0.15030260  0.24234366  0.61710889  1  0  0.387943  0  0.933071  0  0  0.348934  0  1.012195  0  0  0.359936  0  0.996312  0  0  0.280113  0.340895  0  1.02386  0
H  H2  1  0.84968592  0.75765655  0.38289150  1  0  0.387801  0  0.933236  0  0  0.348841  0  1.012288  0  0  0.359841  0  0.996406  0  0  0.280101  0.340803  0  1.023954  0
H  H3  1  0.25567780  0.11989105  0.53751249  1  0  0.384856  0  0.935887  0  0  0.340926  0  1.021543  0  0  0.352221  0  1.005266  0  0  0.28318  0.332866  0  1.0332  0
H  H4  1  0.74431423  0.88010904  0.46249146  1  0  0.384852  0  0.935884  0  0  0.340924  0  1.021537  0  0  0.35222  0  1.00526  0  0  0.283216  0.332865  0  1.033193  0
H  H5  1  0.14595035  0.46062201  0.89807883  1  0  0.092938  0  0.966253  0  0  0.103283  0  1.030258  0  0  0.105353  0  1.030131  0  0  0.103138  0.10178  0  1.030227  0
H  H6  1  0.85404837  0.53937427  0.10191595  1  0  0.092906  0  0.966271  0  0  0.103222  0  1.030318  0  0  0.105287  0  1.030183  0  0  0.103129  0.101714  0  1.030301  0
H  H7  1  0.32293384  0.75836631  0.05155248  1  0  0.101149  0  0.953264  0  0  0.111734  0  1.015458  0  0  0.114315  0  1.015018  0  0  0.104969  0.110242  0  1.014958  0
H  H8  1  0.67707138  0.24162721  0.94844336  1  0  0.101154  0  0.953258  0  0  0.111762  0  1.015418  0  0  0.114341  0  1.01498  0  0  0.104975  0.110269  0  1.014918  0
H  H9  1  0.05310718  0.00547314  0.78674879  1  0  0.105206  0  0.960494  0  0  0.112278  0  1.029417  0  0  0.115575  0  1.027359  0  0  0.10593  0.109642  0  1.031416  0
H  H10  1  0.94689519  0.99452823  0.21325612  1  0  0.105214  0  0.960477  0  0  0.11229  0  1.029394  0  0  0.115587  0  1.027337  0  0  0.105935  0.109654  0  1.031392  0
H  H11  1  0.88798787  0.71110737  0.62870602  1  0  0.083677  0  0.990091  0  0  0.092175  0  1.059557  0  0  0.095317  0  1.057242  0  0  0.109911  0.090196  0  1.06048  0
H  H12  1  0.11200683  0.28889679  0.37129666  1  0  0.083695  0  0.99005  0  0  0.09216  0  1.059543  0  0  0.095314  0  1.057202  0  0  0.109904  0.090173  0  1.060493  0
H  H13  1  0.35968892  0.01717660  0.23670495  1  0  0.095997  0  0.951433  0  0  0.09693  0  1.027864  0  0  0.100074  0  1.023815  0  0  0.138002  0.094811  0  1.030483  0
H  H14  1  0.64032154  0.98282216  0.76329558  1  0  0.09596  0  0.951557  0  0  0.096865  0  1.028  0  0  0.100007  0  1.023955  0  0  0.137989  0.094748  0  1.030617  0
H  H15  1  0.42907718  0.51020545  0.11769837  1  0  0.091861  0  0.972536  0  0  0.102554  0  1.033392  0  0  0.104646  0  1.032993  0  0  0.119222  0.101121  0  1.033703  0
H  H16  1  0.57092619  0.48979351  0.88229613  1  0  0.091822  0  0.972561  0  0  0.102519  0  1.033416  0  0  0.10461  0  1.033018  0  0  0.11923  0.101086  0  1.033726  0
H  H17  1  0.27939336  0.23762664  0.86041781  1  0  0.118121  0  0.983926  0  0  0.125928  0  1.050409  0  0  0.129748  0  1.046679  0  0  0.122805  0.122892  0  1.053362  0
H  H18  1  0.72060858  0.76236825  0.13957805  1  0  0.11815  0  0.983949  0  0  0.125957  0  1.050413  0  0  0.12978  0  1.046685  0  0  0.122833  0.122923  0  1.053364  0
C  C19  1  0.89473820  0.38980433  0.66042324  1  0  0.280127  0  3.825967  0  0  0.252884  0  4.097804  0  0  0.263605  0  4.114917  0  0  0.213042  0.246533  0  4.083558  0
C  C20  1  0.10525825  0.61019720  0.33957683  1  0  0.279999  0  3.826138  0  0  0.252773  0  4.097961  0  0  0.263494  0  4.115076  0  0  0.213001  0.246414  0  4.083726  0
C  C21  1  0.00416799  0.56365523  0.75166074  1  0  -0.003862  0  3.791651  0  0  0.014133  0  4.026772  0  0  0.011336  0  4.049148  0  0  -0.003097  0.01573  0  4.011096  0
C  C22  1  0.99583081  0.43634622  0.24834172  1  0  -0.00388  0  3.791733  0  0  0.014109  0  4.026838  0  0  0.011308  0  4.049215  0  0  -0.003129  0.015711  0  4.011161  0
C  C23  1  0.12825445  0.58020563  0.87169711  1  0  -0.072255  0  3.730645  0  0  -0.091124  0  3.975218  0  0  -0.091304  0  3.995613  0  0  -0.079439  -0.090742  0  3.960811  0
C  C24  1  0.87174747  0.41979325  0.12830061  1  0  -0.072164  0  3.73061  0  0  -0.09102  0  3.97523  0  0  -0.091185  0  3.995614  0  0  -0.079415  -0.090641  0  3.960819  0
C  C25  1  0.22574527  0.74781926  0.96003355  1  0  -0.145434  0  3.746884  0  0  -0.169553  0  4.006893  0  0  -0.174072  0  4.028258  0  0  -0.092462  -0.166262  0  3.990796  0
C  C26  1  0.77425585  0.25218096  0.03996437  1  0  -0.145438  0  3.746872  0  0  -0.169557  0  4.006861  0  0  -0.174076  0  4.028221  0  0  -0.092434  -0.166266  0  3.990764  0
C  C27  1  0.19944097  0.90164501  0.92989684  1  0  0.181707  0  3.776154  0  0  0.173788  0  4.023934  0  0  0.180255  0  4.045761  0  0  0.096863  0.169316  0  4.009174  0
C  C28  1  0.80055980  0.09835506  0.07010661  1  0  0.181644  0  3.77621  0  0  0.173762  0  4.024008  0  0  0.18023  0  4.045835  0  0  0.096866  0.169286  0  4.009258  0
C  C29  1  0.07641170  0.88710655  0.81058331  1  0  -0.133559  0  3.723271  0  0  -0.156111  0  3.979412  0  0  -0.160434  0  3.999997  0  0  -0.087504  -0.153578  0  3.966063  0
C  C30  1  0.92359102  0.11289498  0.18941609  1  0  -0.133602  0  3.723371  0  0  -0.156161  0  3.979504  0  0  -0.160485  0  4.000089  0  0  -0.087516  -0.153626  0  3.966153  0
C  C31  1  0.98155512  0.71986742  0.72218339  1  0  -0.05796  0  3.73637  0  0  -0.082826  0  3.986766  0  0  -0.083368  0  4.008218  0  0  -0.07742  -0.082095  0  3.971411  0
C  C32  1  0.01844492  0.28013402  0.27781915  1  0  -0.05793  0  3.736335  0  0  -0.082757  0  3.986713  0  0  -0.083295  0  4.008169  0  0  -0.077395  -0.082029  0  3.971354  0
C  C33  1  0.36106223  0.11589457  0.17063617  1  0  0.18861  0  3.643904  0  0  0.127984  0  3.923405  0  0  0.142338  0  3.933268  0  0  0.153181  0.118172  0  3.91719  0
C  C34  1  0.63894980  0.88410833  0.82936080  1  0  0.188494  0  3.643966  0  0  0.127965  0  3.923461  0  0  0.142322  0  3.933312  0  0  0.153178  0.118153  0  3.917248  0
C  C35  1  0.39209817  0.36653452  0.10438763  1  0  0.000219  0  3.804193  0  0  -0.029501  0  4.070584  0  0  -0.027957  0  4.090707  0  0  0.000333  -0.030688  0  4.057059  0
C  C36  1  0.60790499  0.63346435  0.89561019  1  0  0.000331  0  3.804234  0  0  -0.029391  0  4.070613  0  0  -0.027846  0  4.090734  0  0  0.00036  -0.03058  0  4.05709  0
C  C37  1  0.31466861  0.23435514  0.97701819  1  0  -0.078612  0  3.668797  0  0  -0.117539  0  3.927522  0  0  -0.115877  0  3.944255  0  0  -0.003125  -0.118125  0  3.916128  0
C  C38  1  0.68533586  0.76564375  0.02297860  1  0  -0.07873  0  3.668734  0  0  -0.117604  0  3.927486  0  0  -0.115946  0  3.944219  0  0  -0.003142  -0.118189  0  3.91609  0
N  N39  1  0.92938608  0.23435579  0.64386841  1  0  -0.347392  0  3.007729  0  0  -0.307739  0  3.277618  0  0  -0.320503  0  3.290737  0  0  -0.224695  -0.298553  0  3.266276  0
N  N40  1  0.07060913  0.76564575  0.35613158  1  0  -0.347329  0  3.007768  0  0  -0.307711  0  3.277656  0  0  -0.320472  0  3.290769  0  0  -0.224683  -0.298524  0  3.26632  0
N  N41  1  0.79132496  0.11095990  0.55122969  1  0  -0.110725  0  3.087012  0  0  -0.07483  0  3.371628  0  0  -0.07917  0  3.384143  0  0  -0.089064  -0.071671  0  3.362251  0
N  N42  1  0.20866895  0.88904161  0.44877132  1  0  -0.110769  0  3.087118  0  0  -0.074868  0  3.371746  0  0  -0.079208  0  3.384261  0  0  -0.08906  -0.071707  0  3.362368  0
N  N43  1  0.67845635  0.18739479  0.51368801  1  0  -0.088598  0  2.986434  0  0  -0.086567  0  3.276257  0  0  -0.08492  0  3.289315  0  0  -0.101277  -0.087368  0  3.266896  0
N  N44  1  0.32153930  0.81260809  0.48631226  1  0  -0.088599  0  2.986549  0  0  -0.086584  0  3.276391  0  0  -0.084936  0  3.289452  0  0  -0.101275  -0.087385  0  3.267029  0
N  N45  1  0.73987639  0.36313094  0.58032673  1  0  -0.421537  0  3.073494  0  0  -0.36912  0  3.357308  0  0  -0.384471  0  3.37241  0  0  -0.29628  -0.358835  0  3.346164  0
N  N46  1  0.26012180  0.63687195  0.41967261  1  0  -0.42145  0  3.073498  0  0  -0.369028  0  3.357294  0  0  -0.384381  0  3.372399  0  0  -0.296254  -0.35874  0  3.346152  0
N  N47  1  0.29372778  0.07409462  0.02065264  1  0  -0.091025  0  3.591957  0  0  -0.002148  0  3.803027  0  0  -0.017379  0  3.828871  0  0  -0.22266  0.007892  0  3.785602  0
N  N48  1  0.70627698  0.92590555  0.97934664  1  0  -0.090778  0  3.59167  0  0  -0.002055  0  3.802908  0  0  -0.017284  0  3.828752  0  0  -0.222699  0.007983  0  3.785483  0
N  N49  1  0.42080577  0.29188401  0.22407577  1  0  -0.448878  0  3.172806  0  0  -0.387505  0  3.450354  0  0  -0.404011  0  3.466114  0  0  -0.415263  -0.376145  0  3.440536  0
N  N50  1  0.57919994  0.70811487  0.77592111  1  0  -0.448874  0  3.172784  0  0  -0.387508  0  3.450317  0  0  -0.40401  0  3.466073  0  0  -0.415266  -0.37615  0  3.440503  0
O  O51  1  0.27114399  0.24728336  0.58986778  1  0  -0.873603  0  1.834757  0  0  -0.807703  0  2.029449  0  0  -0.827518  0  1.996966  0  0  -0.636745  -0.793587  0  2.053085  0
O  O52  1  0.72884630  0.75271537  0.41013690  1  0  -0.873456  0  1.834924  0  0  -0.80759  0  2.02956  0  0  -0.827402  0  1.997086  0  0  -0.636764  -0.793479  0  2.053185  0
