# generated using pymatgen
data_Cu2H14C20N4O7
_symmetry_space_group_name_H-M   'P 1'
_cell_length_a   7.22155048
_cell_length_b   9.95430676
_cell_length_c   13.77844860
_cell_angle_alpha   93.59008523
_cell_angle_beta   99.11262440
_cell_angle_gamma   103.76542202
_symmetry_Int_Tables_number   1
_chemical_formula_structural   Cu2H14C20N4O7
_chemical_formula_sum   'Cu4 H28 C40 N8 O14'
_cell_volume   944.67146659
_cell_formula_units_Z   2
loop_
 _symmetry_equiv_pos_site_id
 _symmetry_equiv_pos_as_xyz
  1  'x, y, z'
loop_
 _atom_site_type_symbol
 _atom_site_label
 _atom_site_symmetry_multiplicity
 _atom_site_fract_x
 _atom_site_fract_y
 _atom_site_fract_z
 _atom_site_occupancy
 _atom_site_hle17_ddec_charge
 _atom_site_hle17_ddec_spin_density
 _atom_site_hle17_ddec_sum_bond_order
 _atom_site_hle17_magmom
 _atom_site_hse06_10hf_ddec_charge
 _atom_site_hse06_10hf_ddec_spin_density
 _atom_site_hse06_10hf_ddec_sum_bond_order
 _atom_site_hse06_10hf_magmom
 _atom_site_hse06_ddec_charge
 _atom_site_hse06_ddec_spin_density
 _atom_site_hse06_ddec_sum_bond_order
 _atom_site_hse06_magmom
 _atom_site_pbe_cm5_charge
 _atom_site_pbe_ddec_charge
 _atom_site_pbe_ddec_spin_density
 _atom_site_pbe_ddec_sum_bond_order
 _atom_site_pbe_magmom
Cu  Cu0  1  0.66235030  0.38525202  0.11943982  1  0.854748  -0.666993  1.815203  -0.476  0.83367  -0.779374  2.21536  -0.605  0.925479  -0.866093  2.146375  -0.696  0.726489  0.771744  -0.685984  2.267354  -0.525
Cu  Cu1  1  0.33766631  0.61473854  0.88055016  1  0.854777  -0.666978  1.815038  -0.476  0.833724  -0.779372  2.215119  -0.605  0.92553  -0.866102  2.146175  -0.696  0.726472  0.771741  -0.685949  2.267188  -0.525
Cu  Cu2  1  0.89146925  0.33012396  0.81205616  1  0.859228  0.667399  1.843596  0.473  0.829016  0.784822  2.248367  0.61  0.912893  0.869124  2.182893  0.699  0.759652  0.779901  0.681728  2.292463  0.517
Cu  Cu3  1  0.10853612  0.66987072  0.18793095  1  0.859196  0.667361  1.843674  0.473  0.828965  0.78481  2.248443  0.61  0.912841  0.869115  2.18295  0.699  0.759645  0.779862  0.681663  2.292523  0.517
H  H4  1  0.78716357  0.80188840  0.82846373  1  0.119339  0.000838  0.933465  0.001  0.1273  0.000814  0.99522  0.001  0.1306  0.000579  0.993704  0.001  0.114734  0.125458  0.000849  0.995682  0.001
H  H5  1  0.21284621  0.19810907  0.17157975  1  0.119334  0.000838  0.93366  0.001  0.127227  0.000814  0.995456  0.001  0.130522  0.000579  0.993952  0.001  0.114682  0.125384  0.000849  0.995918  0.001
H  H6  1  0.91186248  0.87486223  0.67336413  1  0.097499  0.000124  0.965479  0.0  0.110068  -4.1e-05  1.019623  0.0  0.111563  -5e-05  1.020034  0.0  0.109646  0.108905  -4e-06  1.019536  0.0
H  H7  1  0.08816197  0.12518198  0.32669081  1  0.097511  0.000124  0.96546  0.0  0.110125  -4.1e-05  1.019603  0.0  0.111639  -5e-05  1.019964  0.0  0.109644  0.108956  -4e-06  1.019534  0.0
H  H8  1  0.02145008  0.70347369  0.57026355  1  0.106378  0.000554  0.941926  0.001  0.117043  0.00055  0.999651  0.001  0.119289  0.000407  1.000346  0.0  0.111513  0.115334  0.000588  0.99946  0.001
H  H9  1  0.97855771  0.29659658  0.42976232  1  0.106282  0.000553  0.942046  0.001  0.116993  0.00055  0.999699  0.001  0.119242  0.000407  1.000394  0.0  0.111548  0.11528  0.000588  0.99951  0.001
H  H10  1  0.00734479  0.46484838  0.62706260  1  0.090831  0.001013  0.921215  0.002  0.10167  0.001066  0.977503  0.002  0.103623  0.000799  0.97591  0.001  0.124208  0.100283  0.001177  0.978803  0.002
H  H11  1  0.99266714  0.53520239  0.37292779  1  0.090807  0.001012  0.921196  0.002  0.101623  0.001065  0.977483  0.002  0.103575  0.000799  0.975892  0.001  0.124116  0.100234  0.001176  0.978782  0.002
H  H12  1  0.82699184  0.95980764  0.99763035  1  0.121445  -0.000537  0.937194  -0.001  0.12964  -0.000471  0.9994  -0.001  0.133579  -0.000348  0.996757  -0.001  0.113695  0.12654  -0.000328  1.001253  -0.001
H  H13  1  0.17296865  0.04014514  0.00237724  1  0.12137  -0.000537  0.937281  -0.001  0.129548  -0.000471  0.999484  -0.001  0.133484  -0.000348  0.996858  -0.001  0.113635  0.126451  -0.000328  1.001338  -0.001
H  H14  1  0.73226088  0.81835820  0.13459721  1  0.11258  -0.000631  0.955249  -0.001  0.126602  -0.000529  1.007732  0.0  0.129639  -0.000349  1.00529  0.0  0.116318  0.124622  -0.000839  1.009163  0.0
H  H15  1  0.26766117  0.18162135  0.86541661  1  0.112712  -0.00063  0.955132  -0.001  0.126631  -0.00053  1.007727  0.0  0.129679  -0.00035  1.005268  0.0  0.116278  0.124655  -0.00084  1.009155  0.0
H  H16  1  0.55811510  0.91378710  0.25781805  1  0.13429  -0.000709  0.96103  -0.001  0.140596  -0.000678  1.025512  -0.001  0.144326  -0.000502  1.023084  -0.001  0.11639  0.136883  -0.000529  1.028571  -0.001
H  H17  1  0.44185768  0.08624255  0.74219648  1  0.134302  -0.000711  0.960918  -0.001  0.140711  -0.000678  1.025314  -0.001  0.144449  -0.000503  1.022877  -0.001  0.116397  0.136996  -0.00053  1.028378  -0.001
H  H18  1  0.52993859  0.15919799  0.25097287  1  0.096402  -0.00115  0.93361  -0.002  0.106173  -0.001082  0.992448  -0.002  0.108726  -0.000778  0.989616  -0.002  0.125475  0.1035  -0.001032  0.995279  -0.002
H  H19  1  0.47008282  0.84083930  0.74902270  1  0.096395  -0.00115  0.933632  -0.002  0.10625  -0.001083  0.992379  -0.002  0.108729  -0.000778  0.989641  -0.002  0.125506  0.103573  -0.001032  0.995215  -0.002
H  H20  1  0.22118985  0.17101011  0.63269392  1  0.110658  0.000432  0.974039  0.0  0.116172  0.000294  1.042438  0.0  0.119987  0.00019  1.040059  0.0  0.101877  0.113727  0.000395  1.043882  0.0
H  H21  1  0.77881342  0.82898663  0.36729312  1  0.110654  0.00043  0.974092  0.0  0.116112  0.000294  1.042564  0.0  0.119928  0.000189  1.040185  0.0  0.101856  0.113661  0.000395  1.044028  0.0
H  H22  1  0.64261448  0.95915319  0.48763746  1  0.109366  -1e-05  0.962606  0.0  0.116399  -1e-06  1.028086  0.0  0.120541  0.0  1.024922  0.0  0.102489  0.113489  6e-06  1.030233  0.0
H  H23  1  0.35738563  0.04083832  0.51235197  1  0.109283  -1.1e-05  0.962529  0.0  0.116381  -1e-06  1.027966  0.0  0.120495  -0.0  1.024832  0.0  0.102489  0.113472  6e-06  1.030114  0.0
H  H24  1  0.46635917  0.70390071  0.40908692  1  0.113463  -8e-06  0.975692  0.0  0.119707  -2.8e-05  1.043549  0.0  0.122844  -2.5e-05  1.041876  0.0  0.105262  0.117085  -2.9e-05  1.045367  0.0
H  H25  1  0.53362688  0.29609492  0.59089724  1  0.113567  -1e-05  0.975439  0.0  0.119801  -2.8e-05  1.043319  0.0  0.122942  -2.5e-05  1.041646  0.0  0.105254  0.117181  -2.9e-05  1.045141  0.0
H  H26  1  0.60362895  0.30638598  0.41940791  1  0.099344  -0.000283  0.946232  0.0  0.111321  -0.000216  1.003618  0.0  0.114883  -0.00013  1.001333  0.0  0.103428  0.108539  -0.000281  1.005777  0.0
H  H27  1  0.39636271  0.69360968  0.58057597  1  0.099364  -0.000284  0.946279  0.0  0.111369  -0.000216  1.003644  0.0  0.114933  -0.00013  1.001353  0.0  0.103467  0.108587  -0.000282  1.005801  0.0
H  H28  1  0.67847016  0.61816139  0.17595607  1  0.415051  0.000331  0.900675  0.002  0.385391  -0.000182  0.967155  0.0  0.398959  -1.8e-05  0.948255  0.001  0.287712  0.376324  -0.000351  0.979696  0.0
H  H29  1  0.32154439  0.38182705  0.82403945  1  0.415175  0.000332  0.900527  0.002  0.385439  -0.000182  0.967075  0.0  0.39903  -1.8e-05  0.948149  0.001  0.287761  0.376365  -0.000351  0.97962  0.0
H  H30  1  0.71067261  0.60874934  0.05424017  1  0.419443  0.000248  0.89794  0.002  0.390767  -0.000149  0.959073  0.0  0.40397  6e-06  0.940491  0.001  0.287992  0.381747  -0.000292  0.971677  0.0
H  H31  1  0.28933594  0.39123388  0.94575388  1  0.419521  0.000248  0.897828  0.002  0.390846  -0.000149  0.958946  0.0  0.404045  6e-06  0.940369  0.001  0.288025  0.381827  -0.000291  0.971549  0.0
C  C32  1  0.76054400  0.54734197  0.89651288  1  0.446593  -0.007221  3.875167  -0.007  0.407362  -0.001774  4.166506  -0.003  0.435938  -0.002274  4.170997  -0.003  0.216978  0.387834  -0.001536  4.162654  -0.002
C  C33  1  0.23945091  0.45263803  0.10348718  1  0.446712  -0.007227  3.875303  -0.007  0.407465  -0.001773  4.166625  -0.003  0.436039  -0.002274  4.171123  -0.003  0.217028  0.387942  -0.001535  4.162771  -0.002
C  C34  1  0.83486163  0.59866402  0.80718436  1  0.111756  -0.00272  3.777115  -0.003  0.108042  0.000209  4.034912  -0.001  0.112218  -0.000527  4.054954  -0.001  0.111109  0.105007  0.000682  4.02174  0.0
C  C35  1  0.16515138  0.40133572  0.19282901  1  0.111791  -0.00272  3.777191  -0.003  0.108133  0.000209  4.034845  -0.001  0.112311  -0.000525  4.054886  -0.001  0.111221  0.105098  0.000683  4.021666  0.0
C  C36  1  0.83886472  0.73213082  0.78145739  1  -0.104639  0.004251  3.679331  0.004  -0.128235  0.00211  3.931539  0.002  -0.133094  0.001961  3.950206  0.002  -0.072903  -0.124383  0.002231  3.917715  0.002
C  C37  1  0.16115654  0.26788031  0.21857099  1  -0.104856  0.004252  3.679335  0.004  -0.128413  0.002111  3.931556  0.002  -0.133276  0.001962  3.950226  0.002  -0.072932  -0.124558  0.002231  3.917732  0.002
C  C38  1  0.90742598  0.77136301  0.69565876  1  0.009853  -0.006228  3.681672  -0.006  -0.006342  -0.002522  3.926076  -0.002  -0.00211  -0.002689  3.943921  -0.003  -0.058595  -0.008581  -0.002295  3.912953  -0.002
C  C39  1  0.09259866  0.22867402  0.30438133  1  0.010407  -0.006231  3.680982  -0.006  -0.005853  -0.002523  3.925338  -0.002  -0.001617  -0.002689  3.94319  -0.003  -0.058348  -0.008094  -0.002295  3.912216  -0.002
C  C40  1  0.96864912  0.67608081  0.63799364  1  -0.099206  0.006852  3.683044  0.007  -0.113756  0.00364  3.935592  0.004  -0.120101  0.003316  3.955206  0.004  -0.072208  -0.109205  0.003641  3.921306  0.004
C  C41  1  0.03137436  0.32397398  0.36202836  1  -0.099436  0.006853  3.683283  0.007  -0.114038  0.003639  3.935887  0.004  -0.120389  0.003314  3.955509  0.004  -0.072389  -0.109485  0.003639  3.921596  0.004
C  C42  1  0.96111829  0.54408805  0.66837564  1  0.155869  -0.004871  3.67839  -0.006  0.123102  -0.000495  3.942782  -0.002  0.133393  -0.001516  3.959437  -0.003  0.059325  0.116715  0.000243  3.930916  -0.001
C  C43  1  0.03890009  0.45595226  0.33163218  1  0.156  -0.004873  3.678402  -0.006  0.123263  -0.000497  3.942769  -0.002  0.133551  -0.001516  3.959432  -0.003  0.059481  0.116873  0.000241  3.930903  -0.001
C  C44  1  0.77908437  0.22286092  0.97632870  1  0.414083  0.004348  3.895087  0.001  0.377883  0.003109  4.186433  0.001  0.405981  0.003518  4.193449  0.002  0.205775  0.360748  0.002847  4.179541  0.0
C  C45  1  0.22091988  0.77711401  0.02365952  1  0.414101  0.004368  3.89534  0.001  0.377985  0.003111  4.186594  0.001  0.406083  0.003519  4.19361  0.002  0.205892  0.360851  0.002848  4.179698  0.0
C  C46  1  0.72937006  0.13202299  0.05378995  1  0.11267  0.007546  3.795795  0.008  0.116258  0.0033  4.03966  0.004  0.119434  0.003389  4.061403  0.004  0.109444  0.113965  0.003449  4.024971  0.004
C  C47  1  0.27062340  0.86795703  0.94620564  1  0.112645  0.007527  3.795817  0.008  0.116132  0.0033  4.039734  0.004  0.11932  0.003388  4.061472  0.004  0.109438  0.113843  0.003449  4.025042  0.004
C  C48  1  0.76015063  0.99924220  0.05497434  1  -0.104952  -0.005513  3.670004  -0.006  -0.127123  -0.002499  3.917647  -0.003  -0.130796  -0.002215  3.934199  -0.003  -0.07229  -0.125335  -0.002209  3.907214  -0.003
C  C49  1  0.23981797  0.00073037  0.94503052  1  -0.104714  -0.005493  3.67033  -0.006  -0.126839  -0.0025  3.917933  -0.003  -0.130516  -0.002214  3.934484  -0.003  -0.072097  -0.125058  -0.002208  3.907504  -0.003
C  C50  1  0.70402175  0.92039068  0.13043821  1  0.019065  0.005582  3.648362  0.005  0.001259  0.001691  3.892677  0.001  0.006208  0.002147  3.906905  0.002  -0.056881  -0.002787  0.001604  3.883237  0.001
C  C51  1  0.29593190  0.07959943  0.86957284  1  0.018954  0.005562  3.64865  0.005  0.001241  0.001692  3.892944  0.001  0.006196  0.002145  3.907162  0.002  -0.056874  -0.002805  0.001603  3.883504  0.001
C  C52  1  0.61353561  0.97385089  0.20048839  1  -0.093836  -0.008212  3.65832  -0.009  -0.109549  -0.004316  3.907783  -0.005  -0.11534  -0.003707  3.925718  -0.004  -0.067703  -0.105649  -0.004157  3.896998  -0.005
C  C53  1  0.38643739  0.02615907  0.79952011  1  -0.093928  -0.008187  3.658138  -0.009  -0.109759  -0.004317  3.907625  -0.005  -0.115557  -0.003706  3.925556  -0.004  -0.067744  -0.105855  -0.004156  3.896846  -0.005
C  C54  1  0.59203884  0.10913334  0.19612419  1  0.14398  0.004253  3.659389  0.005  0.117405  3.9e-05  3.912498  0.001  0.127566  0.001169  3.928784  0.002  0.057377  0.110283  -0.00031  3.902304  0.0
C  C55  1  0.40796078  0.89088095  0.80387793  1  0.144006  0.004231  3.659481  0.005  0.117329  3.9e-05  3.912642  0.001  0.127551  0.001167  3.928948  0.002  0.057294  0.110207  -0.00031  3.902447  0.0
C  C56  1  0.84134329  0.14511758  0.64352706  1  0.610766  -0.002685  3.942159  -0.006  0.57157  0.000317  4.241846  -0.002  0.60818  8e-06  4.234673  -0.002  0.194706  0.546434  0.000629  4.245944  -0.002
C  C57  1  0.15866140  0.85487916  0.35646082  1  0.610672  -0.00268  3.941884  -0.006  0.571475  0.000315  4.241554  -0.002  0.608082  8e-06  4.234389  -0.002  0.194706  0.546342  0.000629  4.245641  -0.002
C  C58  1  0.92405744  0.07241994  0.56810991  1  -0.072954  0.00718  3.776214  0.008  -0.049289  0.004055  4.003453  0.005  -0.055697  0.002845  4.02446  0.003  -0.024342  -0.045053  0.004869  3.989325  0.005
C  C59  1  0.07594656  0.92757470  0.43188144  1  -0.07295  0.007124  3.776064  0.008  -0.049301  0.004056  4.003289  0.005  -0.05571  0.002844  4.024288  0.003  -0.024346  -0.045059  0.004871  3.989157  0.005
C  C60  1  0.12544281  0.09558795  0.57447990  1  -0.086783  0.00013  3.728108  0.0  -0.10976  0.000361  3.979405  0.0  -0.110503  0.000187  3.999695  0.0  -0.091811  -0.108884  0.000534  3.964877  0.0
C  C61  1  0.87456364  0.90440568  0.42551014  1  -0.086636  0.000193  3.728232  0.0  -0.109569  0.00036  3.979496  0.0  -0.110316  0.000189  3.999799  0.0  -0.09164  -0.108708  0.000534  3.964965  0.0
C  C62  1  0.79892235  0.97663078  0.49291638  1  -0.082968  0.000384  3.730915  0.001  -0.10487  0.000441  3.978592  0.001  -0.106977  0.000267  3.999438  0.0  -0.08785  -0.103086  0.000602  3.963793  0.001
C  C63  1  0.20108235  0.02336178  0.50707565  1  -0.082701  0.000449  3.730567  0.001  -0.104669  0.000441  3.978279  0.001  -0.106751  0.000268  3.999133  0.0  -0.087744  -0.102891  0.000602  3.963479  0.001
C  C64  1  0.58163491  0.51483342  0.30126519  1  0.635106  0.001676  3.865521  0.005  0.590034  -0.001127  4.157935  0.001  0.627476  -0.000645  4.151016  0.001  0.210411  0.564413  -0.001404  4.163108  0.001
C  C65  1  0.41836978  0.48516332  0.69872342  1  0.634735  0.001675  3.86609  0.005  0.58967  -0.001128  4.158431  0.001  0.627114  -0.000645  4.151507  0.001  0.210274  0.564045  -0.001404  4.163604  0.001
C  C66  1  0.54144969  0.50647158  0.40430323  1  -0.065696  -0.006514  3.759198  -0.007  -0.043487  -0.00456  3.988759  -0.005  -0.050839  -0.003276  4.011703  -0.004  -0.020153  -0.038802  -0.005046  3.973562  -0.006
C  C67  1  0.45854514  0.49352513  0.59568168  1  -0.065654  -0.006538  3.759454  -0.007  -0.043242  -0.00456  3.988712  -0.005  -0.050593  -0.003275  4.01166  -0.004  -0.020098  -0.038559  -0.005045  3.973525  -0.006
C  C68  1  0.48243592  0.61556056  0.44964632  1  -0.074724  -0.000626  3.724557  -0.001  -0.098599  -0.000665  3.973631  -0.001  -0.100561  -0.000442  3.996329  -0.001  -0.084446  -0.097593  -0.000774  3.959056  -0.001
C  C69  1  0.51755611  0.38443613  0.55033910  1  -0.074956  -0.000596  3.724384  -0.001  -0.098888  -0.000664  3.973397  -0.001  -0.100858  -0.000443  3.9961  -0.001  -0.084482  -0.097888  -0.000773  3.958838  -0.001
C  C70  1  0.55869368  0.39110441  0.45518449  1  -0.077213  -2.1e-05  3.736407  0.0  -0.097439  -0.000234  3.980971  0.0  -0.098305  -9.9e-05  4.001292  0.0  -0.086127  -0.0968  -0.000346  3.967686  0.0
C  C71  1  0.44129975  0.60889229  0.54480031  1  -0.077297  5e-06  3.73684  0.0  -0.09763  -0.000234  3.981397  0.0  -0.098497  -0.0001  4.001714  0.0  -0.086174  -0.096995  -0.000347  3.968113  0.0
N  N72  1  0.79607634  0.42494686  0.91385250  1  -0.299238  0.066387  3.34918  0.086  -0.279409  0.05177  3.687555  0.071  -0.3147  0.046552  3.714822  0.067  -0.288388  -0.25373  0.048969  3.669204  0.065
N  N73  1  0.20392548  0.57502908  0.08613775  1  -0.299178  0.066386  3.348641  0.086  -0.279402  0.051774  3.687086  0.071  -0.314696  0.046557  3.714363  0.067  -0.288368  -0.253725  0.048965  3.668731  0.065
N  N74  1  0.74350416  0.34869550  0.98814935  1  -0.325578  -0.077075  3.232323  -0.099  -0.306092  -0.057041  3.566451  -0.078  -0.340742  -0.048799  3.592238  -0.071  -0.28495  -0.286168  -0.056901  3.551766  -0.076
N  N75  1  0.25649553  0.65127836  0.01183991  1  -0.325585  -0.07709  3.231826  -0.099  -0.306098  -0.057045  3.56591  -0.078  -0.340749  -0.048801  3.591705  -0.071  -0.285072  -0.286168  -0.0569  3.551232  -0.076
N  N76  1  0.89629349  0.50744072  0.75106847  1  -0.334234  0.075503  3.366097  0.094  -0.299074  0.059795  3.677344  0.079  -0.329366  0.050696  3.698297  0.07  -0.344462  -0.279047  0.060745  3.663743  0.077
N  N77  1  0.10372820  0.49257266  0.24892957  1  -0.334357  0.075494  3.366257  0.094  -0.299171  0.059785  3.677438  0.079  -0.329477  0.050688  3.698424  0.07  -0.344608  -0.27914  0.060729  3.663825  0.077
N  N78  1  0.65076332  0.18643808  0.12527396  1  -0.339987  -0.069008  3.373901  -0.086  -0.297816  -0.053076  3.674006  -0.07  -0.328287  -0.04556  3.696111  -0.063  -0.353981  -0.279387  -0.05237  3.660957  -0.067
N  N79  1  0.34924388  0.81355759  0.87472060  1  -0.340177  -0.068979  3.373976  -0.086  -0.2979  -0.053074  3.674029  -0.07  -0.328388  -0.045557  3.696122  -0.063  -0.354005  -0.279461  -0.052363  3.660983  -0.067
O  O80  1  0.67444248  0.62002853  0.94466233  1  -0.591107  0.007237  2.054517  0.008  -0.550159  0.004291  2.303321  0.005  -0.579659  0.002497  2.291817  0.002  -0.316057  -0.527451  0.005771  2.309123  0.006
O  O81  1  0.32554535  0.37993897  0.05533655  1  -0.591235  0.007235  2.054601  0.007  -0.550211  0.004292  2.303315  0.005  -0.579707  0.002497  2.291812  0.002  -0.316098  -0.527512  0.005773  2.309119  0.006
O  O82  1  0.84880640  0.17965611  0.90359709  1  -0.534151  0.060905  2.010248  0.081  -0.49633  0.045649  2.268152  0.065  -0.53114  0.037963  2.260737  0.057  -0.313358  -0.473962  0.05009  2.272268  0.069
O  O83  1  0.15119259  0.82031982  0.09639148  1  -0.534124  0.060925  2.010613  0.081  -0.496359  0.045654  2.268555  0.065  -0.531183  0.037967  2.261152  0.057  -0.313387  -0.473978  0.050095  2.272636  0.069
O  O84  1  0.97168499  0.23408318  0.70778456  1  -0.593425  0.087316  2.085399  0.114  -0.568943  0.051041  2.377605  0.073  -0.611283  0.038849  2.36923  0.058  -0.344309  -0.538481  0.05765  2.381841  0.079
O  O85  1  0.02831964  0.76593858  0.29218785  1  -0.593502  0.087305  2.085217  0.114  -0.568938  0.051042  2.377304  0.073  -0.611286  0.03885  2.368945  0.058  -0.344314  -0.538478  0.057648  2.381528  0.079
O  O86  1  0.66273851  0.11789456  0.64193287  1  -0.599972  -0.000554  1.931467  0.0  -0.565213  -0.000666  2.162365  0.0  -0.588481  -0.001131  2.151774  -0.001  -0.317058  -0.5483  -7.3e-05  2.169295  0.001
O  O87  1  0.33726870  0.88208028  0.35807155  1  -0.599911  -0.000561  1.931426  0.0  -0.565111  -0.000666  2.162254  0.0  -0.588377  -0.00113  2.15167  -0.001  -0.317061  -0.548199  -7.4e-05  2.169178  0.001
O  O88  1  0.57972969  0.62620403  0.26193648  1  -0.580108  0.000769  2.001072  0.001  -0.528483  0.000321  2.229949  0.001  -0.553421  0.000676  2.219115  0.001  -0.298468  -0.512408  -7e-05  2.238031  0.0
O  O89  1  0.42027602  0.37379170  0.73804853  1  -0.580006  0.000767  2.001318  0.001  -0.528392  0.000321  2.230249  0.001  -0.553332  0.000676  2.219411  0.001  -0.298431  -0.512309  -7e-05  2.23833  0.0
O  O90  1  0.61422364  0.40546565  0.25875642  1  -0.6228  -0.077934  2.095315  -0.103  -0.589778  -0.054918  2.383563  -0.079  -0.633331  -0.042671  2.378792  -0.065  -0.328311  -0.56232  -0.058238  2.388857  -0.081
O  O91  1  0.38578316  0.59453317  0.74123246  1  -0.62261  -0.077928  2.09518  -0.103  -0.589639  -0.054914  2.383376  -0.079  -0.633176  -0.042669  2.378593  -0.065  -0.32829  -0.562172  -0.058227  2.38867  -0.081
O  O92  1  0.75551133  0.58741943  0.12449801  1  -0.836249  -0.071796  2.062392  -0.092  -0.804838  -0.053037  2.326282  -0.072  -0.842641  -0.043294  2.285687  -0.062  -0.587446  -0.782183  -0.053889  2.355053  -0.071
O  O93  1  0.24450567  0.41256383  0.87549890  1  -0.836446  -0.071791  2.062337  -0.092  -0.80488  -0.053035  2.326114  -0.072  -0.842783  -0.043293  2.285641  -0.062  -0.587512  -0.782214  -0.053884  2.354923  -0.071
