# generated using pymatgen
data_Cu3H7C10S(IN)2
_symmetry_space_group_name_H-M   'P 1'
_cell_length_a   7.67883075
_cell_length_b   7.67885726
_cell_length_c   11.98668299
_cell_angle_alpha   76.77429079
_cell_angle_beta   76.77390460
_cell_angle_gamma   75.19392174
_symmetry_Int_Tables_number   1
_chemical_formula_structural   Cu3H7C10S(IN)2
_chemical_formula_sum   'Cu6 H14 C20 S2 I4 N4'
_cell_volume   654.21391794
_cell_formula_units_Z   2
loop_
 _symmetry_equiv_pos_site_id
 _symmetry_equiv_pos_as_xyz
  1  'x, y, z'
loop_
 _atom_site_type_symbol
 _atom_site_label
 _atom_site_symmetry_multiplicity
 _atom_site_fract_x
 _atom_site_fract_y
 _atom_site_fract_z
 _atom_site_occupancy
 _atom_site_pbe_bader_spin_density
 _atom_site_pbe_cm5_charge
 _atom_site_pbe_ddec_charge
 _atom_site_pbe_ddec_spin_density
 _atom_site_pbe_ddec_sum_bond_order
 _atom_site_pbe_magmom
Cu  Cu0  1  0.37781018  0.98683886  0.59972142  1  0  0.335984  0.250677  0  2.562347  0
Cu  Cu1  1  0.01316075  0.62219105  0.40028036  1  0  0.33601  0.250753  0  2.562377  0
Cu  Cu2  1  0.62219237  0.01315961  0.40028000  1  0  0.335991  0.250738  0  2.562372  0
Cu  Cu3  1  0.98683912  0.37780738  0.59971897  1  0  0.335981  0.250673  0  2.562444  0
Cu  Cu4  1  0.03374480  0.03374401  0.59223595  1  0  0.150536  0.089839  0  2.840608  0
Cu  Cu5  1  0.96625417  0.96625853  0.40776456  1  0  0.150485  0.089754  0  2.840639  0
H  H6  1  0.42390017  0.88632422  0.84071450  1  0  0.107309  0.083887  0  1.046681  0
H  H7  1  0.11368419  0.57609898  0.15928601  1  0  0.107312  0.083859  0  1.046688  0
H  H8  1  0.57610918  0.11367980  0.15928509  1  0  0.107294  0.083901  0  1.046709  0
H  H9  1  0.88631568  0.42389945  0.84071332  1  0  0.107326  0.083907  0  1.046707  0
H  H10  1  0.86818005  0.40510519  0.01048375  1  0  0.094265  0.096385  0  1.037227  0
H  H11  1  0.59488803  0.13180328  0.98952461  1  0  0.0943  0.096372  0  1.037125  0
H  H12  1  0.13181789  0.59489597  0.98951796  1  0  0.094305  0.096466  0  1.037187  0
H  H13  1  0.40510620  0.86819647  0.01047620  1  0  0.094276  0.096383  0  1.037089  0
H  H14  1  0.83349558  0.37370850  0.22143012  1  0  0.07976  0.08285  0  1.062146  0
H  H15  1  0.62627846  0.16649015  0.77857966  1  0  0.079824  0.082897  0  1.06211  0
H  H16  1  0.16650236  0.62629267  0.77857159  1  0  0.079771  0.082836  0  1.062112  0
H  H17  1  0.37372007  0.83350826  0.22141904  1  0  0.0798  0.082832  0  1.062149  0
H  H18  1  0.58892120  0.58893396  0.32945277  1  0  0.074185  0.094335  0  1.055841  0
H  H19  1  0.41107922  0.41107409  0.67054755  1  0  0.074194  0.094334  0  1.055848  0
C  C20  1  0.69824013  0.69823667  0.62715404  1  0  0.214643  0.348843  0  3.966114  0
C  C21  1  0.30175563  0.30175625  0.37284923  1  0  0.214725  0.348956  0  3.965978  0
C  C22  1  0.54043801  0.79239630  0.80033647  1  0  0.062799  0.098005  0  3.855967  0
C  C23  1  0.20760513  0.45955816  0.19966511  1  0  0.062824  0.098195  0  3.856069  0
C  C24  1  0.45956279  0.20759803  0.19966500  1  0  0.062891  0.098164  0  3.855786  0
C  C25  1  0.79239463  0.54043479  0.80033589  1  0  0.062775  0.098062  0  3.856023  0
C  C26  1  0.65967656  0.65966758  0.86493068  1  0  -0.003554  -0.015872  0  3.974668  0
C  C27  1  0.34033103  0.34033230  0.13506812  1  0  -0.003626  -0.016001  0  3.974752  0
C  C28  1  0.64192640  0.64192815  0.99174820  1  0  -0.01176  0.066934  0  4.012327  0
C  C29  1  0.35807687  0.35807305  0.00825104  1  0  -0.011801  0.06692  0  4.012316  0
C  C30  1  0.76078815  0.50295279  0.05439717  1  0  -0.093636  -0.132261  0  3.956715  0
C  C31  1  0.49704524  0.23920967  0.94560453  1  0  -0.09361  -0.132189  0  3.956512  0
C  C32  1  0.23921689  0.49705256  0.94560286  1  0  -0.09365  -0.132414  0  3.95666  0
C  C33  1  0.50295639  0.76079290  0.05439475  1  0  -0.09363  -0.132321  0  3.956604  0
C  C34  1  0.74206100  0.48473928  0.17464019  1  0  -0.100653  -0.075611  0  4.016587  0
C  C35  1  0.51526268  0.25793322  0.82535979  1  0  -0.100735  -0.07566  0  4.016419  0
C  C36  1  0.25793900  0.51526465  0.82535997  1  0  -0.100635  -0.075414  0  4.016428  0
C  C37  1  0.48473894  0.74206933  0.17463782  1  0  -0.100657  -0.075424  0  4.016411  0
C  C38  1  0.60439849  0.60440061  0.23525259  1  0  -0.106227  -0.08177  0  3.980456  0
C  C39  1  0.39559810  0.39560054  0.76474682  1  0  -0.106242  -0.081784  0  3.980473  0
S  S40  1  0.72662989  0.72662784  0.47736975  1  0  -0.243544  -0.314701  0  3.546355  0
S  S41  1  0.27337030  0.27336924  0.52263224  1  0  -0.243551  -0.314689  0  3.546352  0
I  I42  1  0.23946830  0.76053169  0.50000045  1  0  -0.110278  -0.177377  0  2.522543  0
I  I43  1  0.76052994  0.23946810  0.49999975  1  0  -0.110263  -0.177347  0  2.522571  0
I  I44  1  0.04484851  0.04484829  0.80242804  1  0  -0.193695  -0.315301  0  1.662567  0
I  I45  1  0.95514722  0.95514459  0.19756940  1  0  -0.193666  -0.315297  0  1.662544  0
N  N46  1  0.55840054  0.81217714  0.68425602  1  0  -0.371017  -0.251492  0  3.633863  0
N  N47  1  0.18782028  0.44160268  0.31574595  1  0  -0.371067  -0.251664  0  3.633857  0
N  N48  1  0.44160367  0.18781998  0.31574703  1  0  -0.371085  -0.251662  0  3.633856  0
N  N49  1  0.81218360  0.55839579  0.68425445  1  0  -0.370983  -0.251505  0  3.63373  0
