# generated using pymatgen
data_CuBH20(C2N)8
_symmetry_space_group_name_H-M   'P 1'
_cell_length_a   15.94461646
_cell_length_b   15.94461463
_cell_length_c   15.94465737
_cell_angle_alpha   89.99998286
_cell_angle_beta   90.00001213
_cell_angle_gamma   89.99997103
_symmetry_Int_Tables_number   1
_chemical_formula_structural   CuBH20(C2N)8
_chemical_formula_sum   'Cu6 B6 H120 C96 N48'
_cell_volume   4053.62243914
_cell_formula_units_Z   6
loop_
 _symmetry_equiv_pos_site_id
 _symmetry_equiv_pos_as_xyz
  1  'x, y, z'
loop_
 _atom_site_type_symbol
 _atom_site_label
 _atom_site_symmetry_multiplicity
 _atom_site_fract_x
 _atom_site_fract_y
 _atom_site_fract_z
 _atom_site_occupancy
 _atom_site_pbe_bader_charge
 _atom_site_pbe_bader_spin_density
 _atom_site_pbe_cm5_charge
 _atom_site_pbe_ddec_charge
 _atom_site_pbe_ddec_spin_density
 _atom_site_pbe_ddec_sum_bond_order
 _atom_site_pbe_magmom
Cu  Cu0  1  0.49999988  0.99999955  0.25000026  1  0.682827  0  0.53956  0.275728  0  2.609091  0
Cu  Cu1  1  0.49999994  0.99999947  0.74999971  1  0.682825  0  0.539664  0.275736  0  2.609064  0
Cu  Cu2  1  0.24999909  0.49999996  0.99999949  1  0.682762  0  0.539878  0.275947  0  2.60923  0
Cu  Cu3  1  0.75000098  0.49999998  0.00000063  1  0.682761  0  0.539873  0.275931  0  2.609226  0
Cu  Cu4  1  0.00000021  0.25000007  0.50000015  1  0.682775  0  0.539651  0.27581  0  2.609222  0
Cu  Cu5  1  0.00000009  0.74999898  0.50000008  1  0.682775  0  0.539747  0.275845  0  2.609237  0
B  B6  1  0.24999703  0.99999957  0.49999996  1  2.199341  0  0.107464  0.569907  0  3.243628  0
B  B7  1  0.75000279  0.99999945  0.50000001  1  2.199339  0  0.107449  0.569833  0  3.243694  0
B  B8  1  0.50000005  0.25000341  0.00000002  1  2.19934  0  0.107443  0.569848  0  3.243691  0
B  B9  1  0.50000003  0.74999653  0.00000011  1  2.199343  0  0.107452  0.569861  0  3.243611  0
B  B10  1  0.00000012  0.49999988  0.24999976  1  2.199344  0  0.106989  0.569597  0  3.243951  0
B  B11  1  0.00000017  0.49999980  0.75000047  1  2.199346  0  0.106986  0.569598  0  3.243934  0
H  H12  1  0.25828844  0.15557842  0.40633548  1  0.099699  0  0.118404  0.109692  0  1.035203  0
H  H13  1  0.74171225  0.84442091  0.40633606  1  0.099655  0  0.118401  0.109679  0  1.035234  0
H  H14  1  0.74171181  0.15557827  0.59366474  1  0.099681  0  0.118406  0.109698  0  1.035174  0
H  H15  1  0.25828766  0.84442101  0.59366459  1  0.099658  0  0.118389  0.10965  0  1.035205  0
H  H16  1  0.40633396  0.25829273  0.15557688  1  0.099796  0  0.118401  0.109687  0  1.035257  0
H  H17  1  0.40633329  0.74170726  0.84442259  1  0.099844  0  0.118402  0.10971  0  1.035244  0
H  H18  1  0.59366666  0.74170794  0.15557683  1  0.099844  0  0.118413  0.109714  0  1.035229  0
H  H19  1  0.59366623  0.25829320  0.84442268  1  0.099852  0  0.118404  0.109717  0  1.035231  0
H  H20  1  0.15557720  0.40633398  0.25829149  1  0.099765  0  0.11841  0.109702  0  1.035233  0
H  H21  1  0.84442292  0.40633374  0.74170803  1  0.099827  0  0.118426  0.109733  0  1.035208  0
H  H22  1  0.15557720  0.59366613  0.74170856  1  0.099762  0  0.118427  0.109736  0  1.035216  0
H  H23  1  0.84442282  0.59366602  0.25829153  1  0.099765  0  0.118428  0.109738  0  1.035201  0
H  H24  1  0.65557855  0.75828833  0.90633552  1  0.09967  0  0.118396  0.109685  0  1.035187  0
H  H25  1  0.34442099  0.24171148  0.90633494  1  0.099697  0  0.118394  0.109689  0  1.035195  0
H  H26  1  0.65557859  0.24171153  0.09366464  1  0.099691  0  0.118406  0.109679  0  1.035199  0
H  H27  1  0.34442203  0.75828853  0.09366515  1  0.09971  0  0.118399  0.109672  0  1.035211  0
H  H28  1  0.75829215  0.90633331  0.65557753  1  0.099833  0  0.118437  0.109757  0  1.035163  0
H  H29  1  0.24170835  0.90633349  0.34442310  1  0.099778  0  0.118398  0.109684  0  1.035255  0
H  H30  1  0.24170733  0.09366595  0.65557697  1  0.099778  0  0.118408  0.109704  0  1.035229  0
H  H31  1  0.75829232  0.09366587  0.34442327  1  0.099778  0  0.118414  0.109716  0  1.035204  0
H  H32  1  0.90633341  0.65557712  0.75829161  1  0.09983  0  0.118433  0.109736  0  1.035211  0
H  H33  1  0.90633344  0.34442324  0.24170922  1  0.099826  0  0.11843  0.109748  0  1.035189  0
H  H34  1  0.09366658  0.65557678  0.24170783  1  0.099838  0  0.118439  0.109745  0  1.035204  0
H  H35  1  0.09366672  0.34442274  0.75829095  1  0.099826  0  0.118431  0.109748  0  1.035188  0
H  H36  1  0.37637781  0.15559848  0.27901009  1  0.086536  0  0.109599  0.104477  0  1.018125  0
H  H37  1  0.62362347  0.84440215  0.27901001  1  0.086541  0  0.109628  0.10452  0  1.018134  0
H  H38  1  0.62362244  0.15559773  0.72099014  1  0.086545  0  0.109603  0.104493  0  1.018129  0
H  H39  1  0.37637706  0.84440214  0.72099063  1  0.086529  0  0.109621  0.104499  0  1.018141  0
H  H40  1  0.27900757  0.37638028  0.15559755  1  0.086477  0  0.109626  0.104533  0  1.018242  0
H  H41  1  0.27900696  0.62361977  0.84440127  1  0.086463  0  0.109612  0.104519  0  1.018229  0
H  H42  1  0.72099306  0.62362039  0.15559818  1  0.086468  0  0.109619  0.104529  0  1.018226  0
H  H43  1  0.72099319  0.37638006  0.84440198  1  0.086468  0  0.109618  0.10453  0  1.01822  0
H  H44  1  0.15559794  0.27900759  0.37637997  1  0.086485  0  0.109628  0.104528  0  1.018247  0
H  H45  1  0.84440162  0.27900800  0.62362022  1  0.086476  0  0.109622  0.104523  0  1.01826  0
H  H46  1  0.15559786  0.72099252  0.62362071  1  0.086486  0  0.109638  0.104538  0  1.018224  0
H  H47  1  0.84440148  0.72099238  0.37637935  1  0.086482  0  0.109627  0.104531  0  1.018241  0
H  H48  1  0.65559794  0.87637775  0.77901009  1  0.086537  0  0.109595  0.104489  0  1.018139  0
H  H49  1  0.34440219  0.12362147  0.77901017  1  0.086542  0  0.109599  0.104456  0  1.018126  0
H  H50  1  0.65559808  0.12362211  0.22099006  1  0.086533  0  0.109591  0.104464  0  1.018142  0
H  H51  1  0.34440131  0.87637854  0.22098992  1  0.086533  0  0.109615  0.104494  0  1.018129  0
H  H52  1  0.87637969  0.77900691  0.65559826  1  0.086467  0  0.109616  0.104523  0  1.018229  0
H  H53  1  0.12362088  0.77900714  0.34440241  1  0.08648  0  0.109632  0.104542  0  1.018223  0
H  H54  1  0.12361979  0.22099298  0.65559826  1  0.086466  0  0.109617  0.104527  0  1.018233  0
H  H55  1  0.87637979  0.22099221  0.34440131  1  0.086475  0  0.109617  0.104533  0  1.018259  0
H  H56  1  0.77900769  0.65559846  0.87638006  1  0.086467  0  0.109613  0.104507  0  1.018267  0
H  H57  1  0.77900706  0.34440196  0.12362075  1  0.086479  0  0.109633  0.104539  0  1.018227  0
H  H58  1  0.22099231  0.65559808  0.12362002  1  0.086475  0  0.10962  0.104519  0  1.018255  0
H  H59  1  0.22099309  0.34440199  0.87637942  1  0.086474  0  0.109643  0.104577  0  1.018217  0
H  H60  1  0.45415373  0.88588389  0.37256860  1  0.070371  0  0.097056  0.143724  0  1.02453  0
H  H61  1  0.54584632  0.11411608  0.37256872  1  0.07038  0  0.097054  0.143724  0  1.024537  0
H  H62  1  0.54584615  0.88588320  0.62743203  1  0.070356  0  0.09705  0.143709  0  1.024529  0
H  H63  1  0.45415333  0.11411606  0.62743214  1  0.070363  0  0.09705  0.143709  0  1.024549  0
H  H64  1  0.37256648  0.45415688  0.88588229  1  0.070264  0  0.097021  0.143599  0  1.024551  0
H  H65  1  0.37256700  0.54584312  0.11411718  1  0.070273  0  0.097028  0.143615  0  1.02458  0
H  H66  1  0.62743305  0.54584357  0.88588293  1  0.070286  0  0.097028  0.143624  0  1.024561  0
H  H67  1  0.62743299  0.45415693  0.11411722  1  0.070274  0  0.097034  0.143617  0  1.024569  0
H  H68  1  0.88588266  0.37256751  0.45415592  1  0.070315  0  0.097047  0.143657  0  1.024576  0
H  H69  1  0.11411748  0.37256706  0.54584423  1  0.070314  0  0.097039  0.14364  0  1.024554  0
H  H70  1  0.88588261  0.62743286  0.54584428  1  0.070317  0  0.097033  0.143645  0  1.024531  0
H  H71  1  0.11411740  0.62743307  0.45415580  1  0.070312  0  0.097037  0.143639  0  1.024555  0
H  H72  1  0.38588370  0.95415391  0.87256804  1  0.070362  0  0.097049  0.143694  0  1.024544  0
H  H73  1  0.61411645  0.04584654  0.87256820  1  0.070362  0  0.097052  0.143718  0  1.024539  0
H  H74  1  0.38588385  0.04584608  0.12743143  1  0.070378  0  0.097054  0.143712  0  1.024539  0
H  H75  1  0.61411614  0.95415396  0.12743132  1  0.070379  0  0.097054  0.143713  0  1.024541  0
H  H76  1  0.95415636  0.87256704  0.38588283  1  0.070286  0  0.097036  0.143626  0  1.024551  0
H  H77  1  0.04584353  0.87256724  0.61411655  1  0.070288  0  0.097035  0.143626  0  1.024553  0
H  H78  1  0.04584370  0.12743293  0.38588285  1  0.070287  0  0.097039  0.143624  0  1.024549  0
H  H79  1  0.95415657  0.12743329  0.61411739  1  0.07028  0  0.097039  0.14362  0  1.024571  0
H  H80  1  0.87256662  0.38588290  0.95415600  1  0.070306  0  0.097032  0.143618  0  1.024561  0
H  H81  1  0.87256709  0.61411684  0.04584420  1  0.070312  0  0.097037  0.143634  0  1.024555  0
H  H82  1  0.12743289  0.38588260  0.04584415  1  0.070308  0  0.097031  0.14363  0  1.024564  0
H  H83  1  0.12743230  0.61411689  0.95415589  1  0.07032  0  0.09705  0.143663  0  1.024566  0
H  H84  1  0.35534108  0.85459121  0.41520921  1  0.057812  0  0.092917  0.133514  0  1.021421  0
H  H85  1  0.64465898  0.14540875  0.41520934  1  0.057819  0  0.092924  0.133535  0  1.021405  0
H  H86  1  0.64465944  0.85459049  0.58479143  1  0.057797  0  0.092907  0.133496  0  1.021414  0
H  H87  1  0.35534065  0.14540879  0.58479151  1  0.057811  0  0.09292  0.133519  0  1.021405  0
H  H88  1  0.41520786  0.35534294  0.85459095  1  0.057831  0  0.092857  0.133393  0  1.021418  0
H  H89  1  0.41520771  0.64465703  0.14540790  1  0.057856  0  0.092866  0.133421  0  1.021371  0
H  H90  1  0.58479229  0.64465689  0.85459218  1  0.057858  0  0.092863  0.133418  0  1.021361  0
H  H91  1  0.58479229  0.35534301  0.14540859  1  0.057841  0  0.092858  0.1334  0  1.021384  0
H  H92  1  0.85459120  0.41520826  0.35534225  1  0.057825  0  0.092859  0.133402  0  1.021398  0
H  H93  1  0.14540892  0.41520777  0.64465789  1  0.05782  0  0.092854  0.133385  0  1.021404  0
H  H94  1  0.85459119  0.58479212  0.64465794  1  0.057822  0  0.092887  0.133455  0  1.021428  0
H  H95  1  0.14540884  0.58479234  0.35534215  1  0.057823  0  0.092856  0.13339  0  1.0214  0
H  H96  1  0.35459104  0.85534061  0.91520866  1  0.057814  0  0.092888  0.133444  0  1.021403  0
H  H97  1  0.64540913  0.14465983  0.91520880  1  0.057803  0  0.092923  0.133519  0  1.021402  0
H  H98  1  0.35459113  0.14465940  0.08479080  1  0.05781  0  0.092917  0.133508  0  1.021429  0
H  H99  1  0.64540886  0.85534066  0.08479072  1  0.057811  0  0.092917  0.13351  0  1.02142  0
H  H100  1  0.85534305  0.91520780  0.35459208  1  0.05785  0  0.092864  0.133407  0  1.021382  0
H  H101  1  0.14465681  0.91520794  0.64540729  1  0.057858  0  0.092861  0.133409  0  1.021393  0
H  H102  1  0.14465699  0.08479218  0.35459150  1  0.05784  0  0.09286  0.133394  0  1.021392  0
H  H103  1  0.85534329  0.08479195  0.64540874  1  0.057837  0  0.092858  0.133402  0  1.021388  0
H  H104  1  0.91520734  0.35459147  0.85534235  1  0.057834  0  0.092855  0.133386  0  1.021381  0
H  H105  1  0.91520782  0.64540763  0.14465786  1  0.057838  0  0.092877  0.133415  0  1.021379  0
H  H106  1  0.08479218  0.35459115  0.14465782  1  0.057826  0  0.092856  0.133391  0  1.0214  0
H  H107  1  0.08479156  0.64540774  0.85534222  1  0.057838  0  0.092879  0.133432  0  1.021369  0
H  H108  1  0.42909575  0.90576583  0.47974995  1  0.056133  0  0.098294  0.147918  0  1.004681  0
H  H109  1  0.57090432  0.09423348  0.47975009  1  0.056125  0  0.098286  0.147916  0  1.004686  0
H  H110  1  0.57090475  0.90576579  0.52025005  1  0.05639  0  0.098293  0.147893  0  1.004706  0
H  H111  1  0.42909533  0.09423414  0.52025016  1  0.056388  0  0.098293  0.147899  0  1.004702  0
H  H112  1  0.47974812  0.42909760  0.90576482  1  0.056419  0  0.098302  0.147891  0  1.004724  0
H  H113  1  0.47974863  0.57090234  0.09423404  1  0.056152  0  0.09831  0.147903  0  1.004719  0
H  H114  1  0.52025078  0.57090221  0.90576481  1  0.056138  0  0.098286  0.147882  0  1.004735  0
H  H115  1  0.52025136  0.42909709  0.09423469  1  0.056403  0  0.098303  0.147902  0  1.004708  0
H  H116  1  0.90576520  0.47974915  0.42909673  1  0.056149  0  0.098299  0.147904  0  1.004712  0
H  H117  1  0.09423488  0.47974871  0.57090339  1  0.056154  0  0.098302  0.147902  0  1.004707  0
H  H118  1  0.90576521  0.52025121  0.57090347  1  0.056398  0  0.098309  0.147927  0  1.004704  0
H  H119  1  0.09423486  0.52025143  0.42909664  1  0.056402  0  0.098304  0.147906  0  1.004705  0
H  H120  1  0.40576567  0.92909527  0.97975003  1  0.056384  0  0.098287  0.147872  0  1.004724  0
H  H121  1  0.59423451  0.07090515  0.97975017  1  0.056386  0  0.098289  0.14789  0  1.004716  0
H  H122  1  0.40576578  0.07090409  0.02024945  1  0.056123  0  0.098292  0.147909  0  1.004671  0
H  H123  1  0.59423419  0.92909599  0.02024934  1  0.056119  0  0.098288  0.147905  0  1.004678  0
H  H124  1  0.92909709  0.97974869  0.40576596  1  0.056145  0  0.098293  0.147886  0  1.004729  0
H  H125  1  0.07090212  0.97974951  0.59423527  1  0.056129  0  0.098296  0.147902  0  1.00474  0
H  H126  1  0.07090297  0.02025127  0.40576539  1  0.056414  0  0.098306  0.147902  0  1.004701  0
H  H127  1  0.92909735  0.02025103  0.59423488  1  0.056396  0  0.098297  0.147892  0  1.004718  0
H  H128  1  0.97974824  0.40576546  0.92909683  1  0.056399  0  0.098307  0.147889  0  1.004728  0
H  H129  1  0.97974936  0.59423549  0.07090276  1  0.056386  0  0.09829  0.147875  0  1.004731  0
H  H130  1  0.02025125  0.40576520  0.07090332  1  0.056159  0  0.098307  0.147911  0  1.004701  0
H  H131  1  0.02025067  0.59423560  0.92909733  1  0.056132  0  0.098297  0.147897  0  1.004747  0
C  C132  1  0.30181097  0.10742987  0.38647179  1  0.310854  0  -0.008213  -0.081176  0  4.030577  0
C  C133  1  0.69819096  0.89257010  0.38647171  1  0.310838  0  -0.008191  -0.081127  0  4.030489  0
C  C134  1  0.69819055  0.10742911  0.61352908  1  0.310855  0  -0.008247  -0.081207  0  4.030502  0
C  C135  1  0.30180954  0.89257079  0.61352829  1  0.310842  0  -0.008197  -0.081056  0  4.030458  0
C  C136  1  0.38646956  0.30181402  0.10742846  1  0.310868  0  -0.008252  -0.081239  0  4.030751  0
C  C137  1  0.38647080  0.69818598  0.89257101  1  0.310787  0  -0.008239  -0.081282  0  4.030686  0
C  C138  1  0.61353043  0.69818666  0.10742905  1  0.310794  0  -0.008264  -0.081262  0  4.030656  0
C  C139  1  0.61352936  0.30181447  0.89257110  1  0.310797  0  -0.008234  -0.081262  0  4.030645  0
C  C140  1  0.10742867  0.38647023  0.30181265  1  0.310854  0  -0.008279  -0.081307  0  4.030658  0
C  C141  1  0.89257083  0.38647122  0.69818688  1  0.310783  0  -0.008284  -0.081311  0  4.030638  0
C  C142  1  0.10742866  0.61352865  0.69818739  1  0.310845  0  -0.008294  -0.081361  0  4.030684  0
C  C143  1  0.89257136  0.61352914  0.30181270  1  0.310849  0  -0.008282  -0.081324  0  4.030647  0
C  C144  1  0.60742937  0.80180900  0.88647117  1  0.310848  0  -0.008227  -0.081188  0  4.030585  0
C  C145  1  0.39257079  0.19819020  0.88647061  1  0.310857  0  -0.008225  -0.081236  0  4.030538  0
C  C146  1  0.60743006  0.19818963  0.11352834  1  0.310855  0  -0.008198  -0.081111  0  4.030492  0
C  C147  1  0.39257056  0.80181105  0.11352823  1  0.310857  0  -0.008174  -0.081104  0  4.03057  0
C  C148  1  0.80181342  0.88647080  0.60742912  1  0.310787  0  -0.008267  -0.081292  0  4.03067  0
C  C149  1  0.19818709  0.88646973  0.39257151  1  0.310859  0  -0.008242  -0.08123  0  4.030752  0
C  C150  1  0.19818668  0.11352973  0.60742917  1  0.310852  0  -0.00825  -0.081232  0  4.030716  0
C  C151  1  0.80181297  0.11352961  0.39257106  1  0.310847  0  -0.008275  -0.081256  0  4.030643  0
C  C152  1  0.88647092  0.60742857  0.80181278  1  0.310794  0  -0.008278  -0.081307  0  4.030622  0
C  C153  1  0.88647092  0.39257117  0.19818680  1  0.310794  0  -0.008292  -0.081354  0  4.03067  0
C  C154  1  0.11352910  0.60742886  0.19818668  1  0.31079  0  -0.008275  -0.081309  0  4.030616  0
C  C155  1  0.11352921  0.39257127  0.80181336  1  0.310804  0  -0.008286  -0.081328  0  4.030672  0
C  C156  1  0.36101716  0.10708617  0.32416440  1  0.357145  0  -0.023141  -0.06291  0  4.083333  0
C  C157  1  0.63898539  0.89291444  0.32416306  1  0.357152  0  -0.023181  -0.063037  0  4.083349  0
C  C158  1  0.63898500  0.10708480  0.67583772  1  0.357151  0  -0.023187  -0.062987  0  4.083469  0
C  C159  1  0.36101449  0.89291509  0.67583820  1  0.35717  0  -0.023226  -0.063089  0  4.083486  0
C  C160  1  0.32416074  0.36101709  0.10708663  1  0.356867  0  -0.02321  -0.06298  0  4.083578  0
C  C161  1  0.32416076  0.63898356  0.89291282  1  0.356867  0  -0.023221  -0.062995  0  4.083437  0
C  C162  1  0.67583925  0.63898296  0.10708726  1  0.356863  0  -0.023235  -0.06306  0  4.083436  0
C  C163  1  0.67583940  0.36101689  0.89291290  1  0.356862  0  -0.023253  -0.063031  0  4.083476  0
C  C164  1  0.10708688  0.32416141  0.36101619  1  0.35712  0  -0.023199  -0.063006  0  4.083445  0
C  C165  1  0.89291265  0.32416117  0.63898399  1  0.357118  0  -0.023205  -0.063039  0  4.083477  0
C  C166  1  0.10708683  0.67583873  0.63898448  1  0.357135  0  -0.023192  -0.062994  0  4.083385  0
C  C167  1  0.89291316  0.67583857  0.36101622  1  0.35713  0  -0.023199  -0.063022  0  4.083429  0
C  C168  1  0.60708565  0.86101520  0.82416252  1  0.357151  0  -0.023148  -0.062978  0  4.083366  0
C  C169  1  0.39291512  0.13898464  0.82416260  1  0.357145  0  -0.023151  -0.062805  0  4.083355  0
C  C170  1  0.60708640  0.13898280  0.17583637  1  0.357146  0  -0.023146  -0.062932  0  4.083329  0
C  C171  1  0.39291424  0.86101723  0.17583624  1  0.357146  0  -0.023165  -0.062961  0  4.083381  0
C  C172  1  0.86101649  0.82416072  0.60708733  1  0.35687  0  -0.023238  -0.063044  0  4.083474  0
C  C173  1  0.13898342  0.82416094  0.39291269  1  0.357103  0  -0.023235  -0.063057  0  4.083495  0
C  C174  1  0.13898298  0.17583918  0.60708735  1  0.356869  0  -0.023233  -0.063085  0  4.083447  0
C  C175  1  0.86101663  0.17583903  0.39291287  1  0.356877  0  -0.0232  -0.063047  0  4.083484  0
C  C176  1  0.82416087  0.60708740  0.86101630  1  0.356878  0  -0.023202  -0.063  0  4.083469  0
C  C177  1  0.82416148  0.39291300  0.13898389  1  0.357125  0  -0.023214  -0.063045  0  4.083436  0
C  C178  1  0.17583915  0.60708704  0.13898379  1  0.356877  0  -0.023203  -0.062994  0  4.083472  0
C  C179  1  0.17583865  0.39291243  0.86101627  1  0.357116  0  -0.023213  -0.063092  0  4.083476  0
C  C180  1  0.37095509  0.98706353  0.38906376  1  0.971068  0  0.209742  0.358978  0  3.917498  0
C  C181  1  0.62904496  0.01293644  0.38906456  1  0.971035  0  0.20974  0.358973  0  3.917491  0
C  C182  1  0.62904536  0.98706280  0.61093622  1  0.971058  0  0.209737  0.358981  0  3.917571  0
C  C183  1  0.37095411  0.01293647  0.61093634  1  0.971033  0  0.209752  0.358965  0  3.917587  0
C  C184  1  0.38906174  0.37095761  0.98706227  1  0.971075  0  0.209749  0.358998  0  3.917529  0
C  C185  1  0.38906157  0.62904238  0.01293657  1  0.971048  0  0.209748  0.358941  0  3.917551  0
C  C186  1  0.61093844  0.62904281  0.98706351  1  0.971108  0  0.209796  0.358991  0  3.917509  0
C  C187  1  0.61093840  0.37095770  0.01293663  1  0.971106  0  0.209774  0.359007  0  3.917524  0
C  C188  1  0.98706288  0.38906209  0.37095628  1  0.971089  0  0.20976  0.35892  0  3.917485  0
C  C189  1  0.01293725  0.38906167  0.62904388  1  0.971093  0  0.209752  0.358891  0  3.917494  0
C  C190  1  0.98706285  0.61093822  0.62904395  1  0.971091  0  0.209756  0.358905  0  3.917488  0
C  C191  1  0.01293717  0.61093788  0.37095614  1  0.97109  0  0.209749  0.358905  0  3.917497  0
C  C192  1  0.48706333  0.87095463  0.88906387  1  0.971054  0  0.209732  0.358952  0  3.917509  0
C  C193  1  0.51293683  0.12904519  0.88906335  1  0.971071  0  0.209753  0.359042  0  3.917504  0
C  C194  1  0.48706344  0.12904531  0.11093625  1  0.971034  0  0.209736  0.358978  0  3.917528  0
C  C195  1  0.51293656  0.87095537  0.11093614  1  0.971026  0  0.209742  0.358983  0  3.91756  0
C  C196  1  0.87095775  0.88906165  0.48706342  1  0.971083  0  0.209773  0.359003  0  3.9174  0
C  C197  1  0.12904213  0.88906246  0.51293596  1  0.971071  0  0.209745  0.35891  0  3.917495  0
C  C198  1  0.12904232  0.11093829  0.48706346  1  0.971076  0  0.209759  0.358922  0  3.917455  0
C  C199  1  0.87095732  0.11093810  0.51293678  1  0.971105  0  0.209783  0.35899  0  3.917482  0
C  C200  1  0.88906118  0.48706316  0.87095633  1  0.971094  0  0.20971  0.35885  0  3.917535  0
C  C201  1  0.88906298  0.51293658  0.12904324  1  0.971086  0  0.209753  0.358902  0  3.917492  0
C  C202  1  0.11093828  0.48706284  0.12904379  1  0.97109  0  0.209774  0.358945  0  3.917464  0
C  C203  1  0.11093709  0.51293667  0.87095688  1  0.971089  0  0.209741  0.358908  0  3.917475  0
C  C204  1  0.40366271  0.90366921  0.41571282  1  -0.071303  0  -0.236183  -0.46678  0  3.950065  0
C  C205  1  0.59633672  0.09633074  0.41571296  1  -0.07131  0  -0.236184  -0.466809  0  3.950095  0
C  C206  1  0.59633716  0.90366851  0.58428780  1  -0.071299  0  -0.236163  -0.46672  0  3.950092  0
C  C207  1  0.40366293  0.09633077  0.58428791  1  -0.071294  0  -0.236176  -0.466744  0  3.950066  0
C  C208  1  0.41571021  0.40366646  0.90366757  1  -0.071327  0  -0.236102  -0.466493  0  3.949958  0
C  C209  1  0.41571071  0.59633352  0.09633128  1  -0.071312  0  -0.236128  -0.466546  0  3.949921  0
C  C210  1  0.58428869  0.59633335  0.90366881  1  -0.0713  0  -0.236116  -0.46655  0  3.94987  0
C  C211  1  0.58428928  0.40366654  0.09633196  1  -0.07132  0  -0.236104  -0.466508  0  3.949861  0
C  C212  1  0.90366796  0.41571123  0.40366565  1  -0.071315  0  -0.236126  -0.466589  0  3.949956  0
C  C213  1  0.09633216  0.41571141  0.59633449  1  -0.071315  0  -0.236121  -0.46654  0  3.949904  0
C  C214  1  0.90366794  0.58428850  0.59633455  1  -0.071316  0  -0.236156  -0.46666  0  3.949993  0
C  C215  1  0.09633210  0.58428873  0.40366554  1  -0.071317  0  -0.236123  -0.466557  0  3.949911  0
C  C216  1  0.40366966  0.90366287  0.91571228  1  -0.071287  0  -0.236134  -0.466621  0  3.950043  0
C  C217  1  0.59633113  0.09633694  0.91571242  1  -0.071298  0  -0.236177  -0.466758  0  3.950051  0
C  C218  1  0.40366915  0.09633711  0.08428720  1  -0.071291  0  -0.236163  -0.466734  0  3.950085  0
C  C219  1  0.59633084  0.90366294  0.08428710  1  -0.071291  0  -0.236164  -0.466738  0  3.950086  0
C  C220  1  0.90366658  0.91571140  0.40366809  1  -0.071311  0  -0.236109  -0.466526  0  3.949852  0
C  C221  1  0.09633329  0.91571158  0.59633191  1  -0.071305  0  -0.236118  -0.466533  0  3.949848  0
C  C222  1  0.09633410  0.08428919  0.40366813  1  -0.071327  0  -0.23611  -0.466505  0  3.949849  0
C  C223  1  0.90366618  0.08428896  0.59633212  1  -0.071303  0  -0.236114  -0.466524  0  3.949871  0
C  C224  1  0.91571095  0.40366822  0.90366574  1  -0.071309  0  -0.236104  -0.466477  0  3.949872  0
C  C225  1  0.91571144  0.59633151  0.09633384  1  -0.071313  0  -0.236107  -0.466518  0  3.949923  0
C  C226  1  0.08428917  0.40366792  0.09633441  1  -0.071319  0  -0.236121  -0.466549  0  3.949893  0
C  C227  1  0.08428796  0.59633160  0.90366625  1  -0.071317  0  -0.236132  -0.466597  0  3.949994  0
N  N228  1  0.40370996  0.03172090  0.32577813  1  -1.202071  0  -0.386504  -0.328322  0  3.630353  0
N  N229  1  0.59629134  0.96827908  0.32577801  1  -1.201982  0  -0.386485  -0.328282  0  3.630318  0
N  N230  1  0.59629161  0.03172018  0.67422276  1  -1.20204  0  -0.386448  -0.32825  0  3.630454  0
N  N231  1  0.40370788  0.96827971  0.67422323  1  -1.202009  0  -0.386449  -0.328193  0  3.630357  0
N  N232  1  0.32577444  0.40371177  0.03171969  1  -1.201883  0  -0.386587  -0.328528  0  3.630416  0
N  N233  1  0.32577449  0.59628825  0.96827914  1  -1.20186  0  -0.38652  -0.328384  0  3.630357  0
N  N234  1  0.67422491  0.59628768  0.03172033  1  -1.2019  0  -0.386528  -0.328367  0  3.630334  0
N  N235  1  0.67422506  0.40371217  0.96827983  1  -1.201905  0  -0.386597  -0.328551  0  3.630466  0
N  N236  1  0.03172038  0.32577576  0.40371073  1  -1.202096  0  -0.386461  -0.328275  0  3.630205  0
N  N237  1  0.96827978  0.32577549  0.59628944  1  -1.202095  0  -0.386464  -0.328244  0  3.630199  0
N  N238  1  0.03171969  0.67422441  0.59628929  1  -1.202106  0  -0.386478  -0.328237  0  3.630111  0
N  N239  1  0.96827967  0.67422421  0.40371078  1  -1.202103  0  -0.386469  -0.328228  0  3.630118  0
N  N240  1  0.53172039  0.90370863  0.82577746  1  -1.202032  0  -0.386466  -0.328215  0  3.630183  0
N  N241  1  0.46827975  0.09629120  0.82577758  1  -1.202057  0  -0.386536  -0.32847  0  3.630626  0
N  N242  1  0.53172116  0.09629066  0.17422141  1  -1.20201  0  -0.386473  -0.328296  0  3.630369  0
N  N243  1  0.46827885  0.90371000  0.17422128  1  -1.20204  0  -0.386514  -0.328336  0  3.630418  0
N  N244  1  0.90371114  0.82577443  0.53172040  1  -1.201877  0  -0.386533  -0.328423  0  3.630372  0
N  N245  1  0.09628814  0.82577590  0.46827963  1  -1.202094  0  -0.386511  -0.328357  0  3.630379  0
N  N246  1  0.09628831  0.17422487  0.53172041  1  -1.201891  0  -0.386486  -0.328297  0  3.630199  0
N  N247  1  0.90371130  0.17422467  0.46827981  1  -1.201882  0  -0.386481  -0.328286  0  3.630194  0
N  N248  1  0.82577523  0.53172025  0.90371149  1  -1.201881  0  -0.386528  -0.328337  0  3.630348  0
N  N249  1  0.82577579  0.46827952  0.09628870  1  -1.202104  0  -0.386481  -0.328197  0  3.630046  0
N  N250  1  0.17422483  0.53171991  0.09628862  1  -1.201871  0  -0.386536  -0.328389  0  3.630375  0
N  N251  1  0.17422367  0.46827956  0.90371143  1  -1.202091  0  -0.386476  -0.328197  0  3.63007  0
N  N252  1  0.30695004  0.03086106  0.42727293  1  -1.456866  0  -0.233831  -0.270643  0  3.650069  0
N  N253  1  0.69305002  0.96913889  0.42727346  1  -1.456886  0  -0.233809  -0.270541  0  3.649987  0
N  N254  1  0.69305028  0.03086032  0.57272733  1  -1.456868  0  -0.233832  -0.270622  0  3.650009  0
N  N255  1  0.30694981  0.96913960  0.57272715  1  -1.4569  0  -0.233826  -0.270648  0  3.650079  0
N  N256  1  0.42727204  0.30695431  0.03085924  1  -1.456834  0  -0.233594  -0.270278  0  3.650059  0
N  N257  1  0.42727204  0.69304566  0.96913961  1  -1.456825  0  -0.233607  -0.27025  0  3.650047  0
N  N258  1  0.57272793  0.69304576  0.03086045  1  -1.456849  0  -0.233599  -0.27026  0  3.650007  0
N  N259  1  0.57272813  0.30695476  0.96913969  1  -1.456852  0  -0.233591  -0.270232  0  3.650018  0
N  N260  1  0.03085987  0.42727274  0.30695229  1  -1.45684  0  -0.233604  -0.270301  0  3.649909  0
N  N261  1  0.96914024  0.42727244  0.69304786  1  -1.456826  0  -0.233562  -0.270273  0  3.649912  0
N  N262  1  0.03085987  0.57272743  0.69304774  1  -1.456838  0  -0.233607  -0.270297  0  3.649936  0
N  N263  1  0.96914016  0.57272788  0.30695174  1  -1.456836  0  -0.23356  -0.270268  0  3.649925  0
N  N264  1  0.53086058  0.80694993  0.92727292  1  -1.456865  0  -0.233828  -0.270605  0  3.650021  0
N  N265  1  0.46913959  0.19305050  0.92727300  1  -1.456858  0  -0.233827  -0.270625  0  3.650046  0
N  N266  1  0.53086064  0.19305062  0.07272658  1  -1.45687  0  -0.233847  -0.270668  0  3.650057  0
N  N267  1  0.46913934  0.80694945  0.07272774  1  -1.45686  0  -0.233838  -0.270641  0  3.650114  0
N  N268  1  0.80695432  0.92727205  0.53086052  1  -1.456826  0  -0.233594  -0.270255  0  3.650002  0
N  N269  1  0.19304616  0.92727284  0.46913947  1  -1.456848  0  -0.233606  -0.27028  0  3.650106  0
N  N270  1  0.19304576  0.07272788  0.53086059  1  -1.456817  0  -0.233588  -0.270265  0  3.650038  0
N  N271  1  0.80695390  0.07272773  0.46914029  1  -1.456843  0  -0.233637  -0.270379  0  3.650155  0
N  N272  1  0.92727155  0.53085976  0.80695245  1  -1.456824  0  -0.233546  -0.27023  0  3.649878  0
N  N273  1  0.92727275  0.46913996  0.19304714  1  -1.456848  0  -0.233602  -0.270307  0  3.649936  0
N  N274  1  0.07272788  0.53085944  0.19304766  1  -1.456831  0  -0.233615  -0.2703  0  3.649913  0
N  N275  1  0.07272734  0.46914008  0.80695237  1  -1.456855  0  -0.233618  -0.270332  0  3.649933  0
