# generated using pymatgen
data_CoH28C26(NO)4
_symmetry_space_group_name_H-M   'P 1'
_cell_length_a   9.59200208
_cell_length_b   11.82514564
_cell_length_c   12.54894883
_cell_angle_alpha   64.04406365
_cell_angle_beta   67.21038376
_cell_angle_gamma   79.07241929
_symmetry_Int_Tables_number   1
_chemical_formula_structural   CoH28C26(NO)4
_chemical_formula_sum   'Co2 H56 C52 N8 O8'
_cell_volume   1179.55638457
_cell_formula_units_Z   2
loop_
 _symmetry_equiv_pos_site_id
 _symmetry_equiv_pos_as_xyz
  1  'x, y, z'
loop_
 _atom_site_type_symbol
 _atom_site_label
 _atom_site_symmetry_multiplicity
 _atom_site_fract_x
 _atom_site_fract_y
 _atom_site_fract_z
 _atom_site_occupancy
 _atom_site_hle17_ddec_charge
 _atom_site_hle17_ddec_spin_density
 _atom_site_hle17_ddec_sum_bond_order
 _atom_site_hle17_magmom
 _atom_site_hse06_10hf_ddec_charge
 _atom_site_hse06_10hf_ddec_spin_density
 _atom_site_hse06_10hf_ddec_sum_bond_order
 _atom_site_hse06_10hf_magmom
 _atom_site_hse06_ddec_charge
 _atom_site_hse06_ddec_spin_density
 _atom_site_hse06_ddec_sum_bond_order
 _atom_site_hse06_magmom
 _atom_site_pbe_cm5_charge
 _atom_site_pbe_ddec_charge
 _atom_site_pbe_ddec_spin_density
 _atom_site_pbe_ddec_sum_bond_order
 _atom_site_pbe_magmom
Co  Co0  1  0.78057222  0.73555592  0.20555767  1  0.944491  -2.812473  2.039085  -2.523  0.885976  -2.819621  2.501212  -2.581  0.980292  -2.867163  2.411061  -2.673  0.663897  0.811359  -2.773933  2.569308  -2.495
Co  Co1  1  0.21942774  0.26444795  0.79444183  1  0.94453  -2.81247  2.039107  -2.523  0.886023  -2.819613  2.501212  -2.581  0.980367  -2.867163  2.411025  -2.673  0.663929  0.81141  -2.773928  2.569318  -2.495
H  H2  1  0.78663568  0.94843958  0.94521559  1  0.107869  4.8e-05  0.962952  0.0  0.115307  -8.1e-05  1.029158  0.0  0.118042  -4.6e-05  1.025599  0.0  0.139974  0.113055  -0.000108  1.032051  0.0
H  H3  1  0.21335788  0.05155204  0.05478609  1  0.107823  4.2e-05  0.96302  0.0  0.115314  -8.1e-05  1.029156  0.0  0.118048  -4.6e-05  1.025598  0.0  0.139984  0.113061  -0.000108  1.032051  0.0
H  H4  1  0.71418619  0.52199960  0.48451203  1  0.107843  9.5e-05  0.933583  -0.001  0.119243  -1e-05  0.990765  0.0  0.12201  2e-05  0.986869  0.0  0.145722  0.11686  -3.4e-05  0.994101  0.0
H  H5  1  0.28580811  0.47800518  0.51549197  1  0.10788  8.6e-05  0.933452  -0.001  0.119319  -1e-05  0.9906  0.0  0.122086  2e-05  0.986703  0.0  0.145735  0.116924  -3.4e-05  0.993937  0.0
H  H6  1  0.80006775  0.33704693  0.64402588  1  0.069436  1e-05  0.959287  0.0  0.085845  1.5e-05  1.022685  0.0  0.085475  1.3e-05  1.025834  0.0  0.090791  0.086067  4e-06  1.020625  0.0
H  H7  1  0.19993206  0.66296165  0.35597412  1  0.069399  3e-06  0.95934  0.0  0.085809  1.5e-05  1.022752  0.0  0.085442  1.3e-05  1.0259  0.0  0.090805  0.086031  4e-06  1.020697  0.0
H  H8  1  0.62347812  0.41108296  0.69640608  1  0.075154  -0.000143  0.972618  0.0  0.091553  -6.4e-05  1.035948  0.0  0.093306  1.8e-05  1.035521  0.0  0.091673  0.090042  -0.00011  1.036489  0.0
H  H9  1  0.37651865  0.58891619  0.30360110  1  0.075129  -0.000147  0.972667  0.0  0.091552  -6.4e-05  1.035983  0.0  0.093307  1.8e-05  1.035554  0.0  0.091692  0.090042  -0.00011  1.036523  0.0
H  H10  1  0.81754713  0.25701073  0.85977942  1  0.089514  2.5e-05  0.966559  0.0  0.104708  0.000123  1.029604  0.0  0.106862  0.00018  1.029345  0.0  0.094245  0.102985  6.9e-05  1.029838  0.0
H  H11  1  0.18245634  0.74298939  0.14021898  1  0.089548  3.1e-05  0.966544  0.0  0.104676  0.000123  1.029618  0.0  0.10683  0.00018  1.029358  0.0  0.094244  0.102971  6.9e-05  1.02983  0.0
H  H12  1  0.64515875  0.33569379  0.90931338  1  0.065933  1.2e-05  0.939975  0.0  0.084654  6e-06  1.002801  0.0  0.085027  1e-06  1.003563  0.0  0.092384  0.084255  4e-06  1.002363  0.0
H  H13  1  0.35484486  0.66430351  0.09069171  1  0.065977  2.1e-05  0.940057  0.0  0.084674  6e-06  1.002835  0.0  0.08505  0.0  1.003599  0.0  0.09241  0.084275  4e-06  1.002402  0.0
H  H14  1  0.02274309  0.68839039  0.62995470  1  0.126943  -0.000146  0.969005  0.0  0.135206  -0.000114  1.031177  0.0  0.13947  -6.7e-05  1.027814  0.0  0.110808  0.132066  -0.000169  1.033593  0.0
H  H15  1  0.97726020  0.31161444  0.37004021  1  0.126955  -0.000143  0.968912  0.0  0.135199  -0.000114  1.03112  0.0  0.139464  -6.7e-05  1.027755  0.0  0.110813  0.132062  -0.000169  1.033538  0.0
H  H16  1  0.94569461  0.94614165  0.21140221  1  0.112364  -2.6e-05  0.938656  0.0  0.123697  -0.000187  0.996085  0.0  0.126615  -9.8e-05  0.994986  0.0  0.109004  0.121597  -0.000288  0.996883  0.0
H  H17  1  0.05430776  0.05385752  0.78859770  1  0.112358  -3.8e-05  0.938674  0.0  0.123707  -0.000187  0.996081  0.0  0.126625  -9.7e-05  0.994984  0.0  0.109016  0.121607  -0.000288  0.996879  0.0
H  H18  1  0.50420733  0.20512685  0.88005346  1  0.088651  0.000313  0.939236  0.0  0.101655  0.000204  1.004959  0.0  0.102468  0.000226  1.004666  0.0  0.113186  0.100853  0.000117  1.005489  0.0
H  H19  1  0.49579710  0.79487798  0.11994192  1  0.088631  0.000308  0.939274  0.0  0.101657  0.000204  1.004973  0.0  0.102461  0.000226  1.004674  0.0  0.113198  0.100846  0.000117  1.005497  0.0
H  H20  1  0.67395973  0.13451134  0.80911392  1  0.075498  6.1e-05  0.926942  0.0  0.091577  3.5e-05  0.989824  0.0  0.091303  3.2e-05  0.991903  0.0  0.111031  0.091755  3.6e-05  0.988449  0.0
H  H21  1  0.32604251  0.86549160  0.19088368  1  0.075473  3.9e-05  0.926933  0.0  0.091516  3.4e-05  0.989885  0.0  0.091231  3.2e-05  0.991958  0.0  0.111011  0.091685  3.6e-05  0.988503  0.0
H  H22  1  0.25598141  0.19035387  0.31853959  1  0.084419  5.5e-05  0.978275  0.0  0.094751  1.2e-05  1.039876  0.0  0.096994  1.2e-05  1.039952  0.0  0.095943  0.093191  1.4e-05  1.039795  0.0
H  H23  1  0.74402410  0.80965191  0.68145347  1  0.0844  5e-05  0.978342  0.0  0.094765  1.2e-05  1.039906  0.0  0.097006  1.2e-05  1.039985  0.0  0.09594  0.093203  1.4e-05  1.039826  0.0
H  H24  1  0.76692743  0.21931039  0.09982276  1  0.064046  0.000215  0.926225  0.0  0.076987  -5e-05  0.984403  0.0  0.078088  -2.5e-05  0.985384  0.0  0.093082  0.076289  -7.6e-05  0.983852  0.0
H  H25  1  0.23307411  0.78068125  0.90018529  1  0.064025  0.000214  0.926075  0.0  0.076939  -5e-05  0.984267  0.0  0.078043  -2.6e-05  0.985243  0.0  0.093079  0.076242  -7.6e-05  0.983716  0.0
H  H26  1  0.49916803  0.41568210  0.31257480  1  0.05713  9.5e-05  0.947356  0.0  0.069235  -0.0001  1.007827  0.0  0.070334  -6.9e-05  1.007942  0.0  0.092285  0.068532  -0.000116  1.008028  0.0
H  H27  1  0.50083103  0.58431518  0.68742769  1  0.057129  0.000102  0.94733  0.0  0.069205  -0.0001  1.007813  0.0  0.070326  -6.9e-05  1.0079  0.0  0.0923  0.068503  -0.000116  1.008012  0.0
H  H28  1  0.67497359  0.25207823  0.41198416  1  0.059121  -5.2e-05  0.947545  0.0  0.076886  -5e-05  1.01102  0.0  0.077291  -1.8e-05  1.011719  0.0  0.084318  0.076735  -8.6e-05  1.010375  0.0
H  H29  1  0.32502555  0.74791716  0.58802146  1  0.059113  -5e-05  0.947501  0.0  0.076901  -5e-05  1.01099  0.0  0.077304  -1.7e-05  1.011687  0.0  0.084276  0.07675  -8.6e-05  1.010344  0.0
H  H30  1  0.59140523  0.20800955  0.33267397  1  0.054844  -0.000127  0.956331  0.0  0.072064  -8e-05  1.022413  0.0  0.071949  -3.9e-05  1.024508  0.0  0.080084  0.072385  -0.00014  1.020714  0.0
H  H31  1  0.40859607  0.79198867  0.66732984  1  0.054845  -0.000125  0.956314  0.0  0.072094  -8e-05  1.022403  0.0  0.071978  -3.9e-05  1.024493  0.0  0.080073  0.072415  -0.00014  1.020704  0.0
H  H32  1  0.80231693  0.44069582  0.94520654  1  0.065991  -0.0  0.952912  0.0  0.083305  6e-06  1.016849  0.0  0.084502  2.7e-05  1.016716  0.0  0.088742  0.082492  -3e-05  1.016944  0.0
H  H33  1  0.19768681  0.55929677  0.05479726  1  0.066048  -9e-06  0.952987  0.0  0.083367  6e-06  1.016911  0.0  0.084566  2.8e-05  1.016783  0.0  0.088765  0.082555  -3e-05  1.017006  0.0
H  H34  1  0.87283868  0.47717790  0.03651368  1  0.076085  4.2e-05  0.932045  0.0  0.096009  5.5e-05  0.988981  0.0  0.096614  5.4e-05  0.989873  0.0  0.093253  0.095343  5.6e-05  0.988645  0.0
H  H35  1  0.12716511  0.52281375  0.96349209  1  0.076066  3.9e-05  0.932026  0.0  0.096006  5.5e-05  0.988967  0.0  0.096633  5.4e-05  0.989831  0.0  0.093271  0.095341  5.6e-05  0.98863  0.0
H  H36  1  0.36854140  0.23815731  0.08840193  1  0.126252  -0.000126  0.94233  0.0  0.137207  -8.2e-05  1.000146  0.0  0.141029  -4.5e-05  0.997495  0.0  0.113539  0.134216  -0.000118  1.002496  0.0
H  H37  1  0.63145851  0.76184657  0.91159121  1  0.126299  -0.000126  0.942333  0.0  0.137168  -8.2e-05  1.000238  0.0  0.140996  -4.5e-05  0.997578  0.0  0.113525  0.134182  -0.000118  1.002584  0.0
H  H38  1  0.13433723  0.90071296  0.49046769  1  0.086427  6.5e-05  0.973005  0.0  0.097898  7e-06  1.035  0.0  0.099768  8e-06  1.035935  0.0  0.097275  0.096503  6e-06  1.034441  0.0
H  H39  1  0.86567296  0.09928813  0.50952430  1  0.086449  7e-05  0.973039  0.0  0.097904  7e-06  1.035036  0.0  0.099776  8e-06  1.035975  0.0  0.09726  0.096509  6e-06  1.034476  0.0
H  H40  1  0.55375102  0.38302542  0.12310878  1  0.055976  -8e-06  0.948694  0.0  0.070931  -1e-05  1.020158  0.0  0.071481  -4e-06  1.020955  0.0  0.082008  0.070752  -1.7e-05  1.019357  0.0
H  H41  1  0.44624909  0.61697469  0.87689462  1  0.055971  -4e-06  0.948729  0.0  0.070925  -1e-05  1.02018  0.0  0.071474  -4e-06  1.020977  0.0  0.082007  0.070744  -1.7e-05  1.01938  0.0
H  H42  1  0.59924391  0.53993266  0.07835627  1  0.067494  -1.9e-05  0.945622  0.0  0.085361  7e-06  1.00814  0.0  0.086676  3.4e-05  1.007814  0.0  0.087791  0.084508  -2.3e-05  1.008195  0.0
H  H43  1  0.40076420  0.46006465  0.92164508  1  0.067518  -1.6e-05  0.945602  0.0  0.085366  7e-06  1.008124  0.0  0.086683  3.4e-05  1.007796  0.0  0.087787  0.084513  -2.3e-05  1.008178  0.0
H  H44  1  0.55227583  0.86421033  0.40524728  1  0.106894  5e-05  0.957968  0.0  0.115414  -0.000122  1.021856  0.0  0.118124  -5.4e-05  1.021161  0.0  0.105048  0.113506  -0.000185  1.02232  0.0
H  H45  1  0.44772084  0.13578976  0.59475236  1  0.106863  5.4e-05  0.957938  0.0  0.115418  -0.000122  1.021786  0.0  0.118127  -5.4e-05  1.021092  0.0  0.10505  0.113486  -0.000185  1.022278  0.0
H  H46  1  0.09754529  0.02699387  0.28584640  1  0.095957  1.1e-05  0.965158  0.0  0.104475  2.4e-05  1.030914  0.0  0.107249  2.6e-05  1.030087  0.0  0.099949  0.102462  2.1e-05  1.031535  0.0
H  H47  1  0.90245922  0.97300814  0.71414692  1  0.095867  1.5e-05  0.965251  0.0  0.104411  2.4e-05  1.030982  0.0  0.107185  2.6e-05  1.030155  0.0  0.099931  0.102398  2.1e-05  1.031601  0.0
H  H48  1  0.91715217  0.29259883  0.23462052  1  0.07361  8.2e-05  0.960237  0.0  0.089855  3e-05  1.023511  0.0  0.091795  3.3e-05  1.02199  0.0  0.088251  0.088425  1.4e-05  1.024552  0.0
H  H49  1  0.08284913  0.70739940  0.76538250  1  0.073642  7.6e-05  0.960252  0.0  0.089876  3e-05  1.023541  0.0  0.091818  3.3e-05  1.022017  0.0  0.088248  0.088444  1.4e-05  1.024583  0.0
H  H50  1  0.85855485  0.14041846  0.28103756  1  0.054488  5.7e-05  0.966235  0.0  0.071772  2.4e-05  1.033778  0.0  0.071668  2.6e-05  1.03541  0.0  0.080748  0.071992  1.5e-05  1.032501  0.0
H  H51  1  0.14144763  0.85957882  0.71896868  1  0.054444  5.1e-05  0.966238  0.0  0.071737  2.4e-05  1.033782  0.0  0.071633  2.7e-05  1.035416  0.0  0.080749  0.071957  1.5e-05  1.032505  0.0
H  H52  1  0.34778190  0.00990531  0.47337310  1  0.090328  2.6e-05  0.950902  0.0  0.103972  3.6e-05  1.007587  0.0  0.106146  2.8e-05  1.007645  0.0  0.101475  0.102254  4.7e-05  1.007887  0.0
H  H53  1  0.65222131  0.99010234  0.52662148  1  0.090297  2.8e-05  0.950856  0.0  0.103924  3.7e-05  1.007572  0.0  0.106098  2.8e-05  1.007631  0.0  0.101467  0.102207  4.7e-05  1.007872  0.0
H  H54  1  0.75268615  0.53880892  0.74798588  1  0.068813  0.000124  0.908794  0.0  0.090388  -1e-06  0.96429  0.0  0.090554  -3e-06  0.964435  0.0  0.112009  0.089801  3e-06  0.964761  0.0
H  H55  1  0.24730589  0.46119586  0.25201960  1  0.068853  0.00014  0.90886  0.0  0.090395  -1e-06  0.964381  0.0  0.090562  -3e-06  0.964523  0.0  0.112059  0.089796  3e-06  0.964842  0.0
H  H56  1  0.92881692  0.46816094  0.69008141  1  0.09587  3e-05  0.912099  0.0  0.111086  2.8e-05  0.97298  0.0  0.111793  6.4e-05  0.973067  0.0  0.118228  0.110307  -7e-06  0.973239  0.0
H  H57  1  0.07118067  0.53184668  0.30992044  1  0.095784  3.3e-05  0.912203  0.0  0.111025  2.8e-05  0.973055  0.0  0.111732  6.3e-05  0.97314  0.0  0.118204  0.110233  -7e-06  0.973306  0.0
C  C58  1  0.91467526  0.70384487  0.49993798  1  0.088095  -0.002378  3.789956  -0.004  0.0787  -0.001405  4.030532  -0.002  0.082081  -0.001051  4.052277  -0.002  0.089101  0.076452  -0.001802  4.016184  -0.003
C  C59  1  0.08532014  0.29615992  0.50006170  1  0.087879  -0.002357  3.790284  -0.004  0.078612  -0.001405  4.030714  -0.002  0.081978  -0.001051  4.052479  -0.002  0.089067  0.076361  -0.001802  4.016373  -0.003
C  C60  1  0.70994220  0.97615950  0.02036855  1  0.207649  0.008173  3.637713  0.005  0.143707  -0.001536  3.916486  -0.002  0.164454  -0.001376  3.924294  -0.002  0.162187  0.129297  -0.001296  3.911424  -0.002
C  C61  1  0.29005222  0.02384059  0.97963258  1  0.207744  0.008202  3.637581  0.005  0.143778  -0.001536  3.916356  -0.002  0.164524  -0.001376  3.924168  -0.002  0.162192  0.129369  -0.001296  3.911298  -0.002
C  C62  1  0.52996121  0.08031638  0.11904159  1  0.095762  -0.002016  3.778322  -0.003  0.086016  -0.001226  4.022158  -0.002  0.089672  -0.000876  4.044236  -0.001  0.093065  0.083439  -0.001612  4.007971  -0.002
C  C63  1  0.47003314  0.91968559  0.88095798  1  0.095664  -0.001983  3.778585  -0.003  0.085966  -0.001227  4.022304  -0.002  0.089618  -0.000876  4.044385  -0.001  0.093096  0.083391  -0.001612  4.008123  -0.002
C  C64  1  0.77617376  0.59816176  0.46974246  1  0.206846  0.011922  3.647623  0.007  0.144077  -0.000294  3.925891  -0.002  0.164999  -0.000672  3.933634  -0.002  0.162165  0.129143  0.000693  3.921277  -0.001
C  C65  1  0.22382410  0.40183740  0.53025961  1  0.206746  0.012045  3.647528  0.007  0.143941  -0.000294  3.925811  -0.002  0.164863  -0.000674  3.933557  -0.002  0.16213  0.129023  0.000693  3.921185  -0.001
C  C66  1  0.89476448  0.77407330  0.38179466  1  0.147538  0.001947  3.820792  0.001  0.150416  -0.00098  4.06502  -0.001  0.15442  -0.000499  4.089953  -0.001  0.087055  0.147193  -0.001346  4.048234  -0.002
C  C67  1  0.10523332  0.22592774  0.61820666  1  0.147457  0.001908  3.820895  0.001  0.150284  -0.00098  4.065141  -0.001  0.15429  -0.000498  4.090081  -0.001  0.087031  0.147061  -0.001347  4.048357  -0.002
C  C68  1  0.73404008  0.38262633  0.70898758  1  -0.136509  -0.000104  3.696729  0.0  -0.176177  -0.000109  3.955379  0.0  -0.178417  -4e-05  3.969553  0.0  -0.166633  -0.174431  -0.000252  3.945766  0.0
C  C69  1  0.26595874  0.61737847  0.29101507  1  -0.136421  -8.1e-05  3.696855  0.0  -0.176176  -0.000109  3.955507  0.0  -0.178417  -4e-05  3.969681  0.0  -0.166692  -0.174454  -0.000252  3.945891  0.0
C  C70  1  0.57936747  0.97311386  0.20759086  1  0.142328  0.000737  3.828685  0.0  0.143104  -0.001743  4.076266  -0.002  0.147149  -0.001246  4.101127  -0.002  0.085027  0.14004  -0.002176  4.059421  -0.003
C  C71  1  0.42062463  0.02688717  0.79240579  1  0.142411  0.000675  3.82874  0.0  0.14322  -0.001741  4.076242  -0.002  0.147275  -0.001243  4.101085  -0.002  0.085039  0.140145  -0.002176  4.059413  -0.003
C  C72  1  0.70129457  0.50353972  0.26226992  1  0.647116  0.00488  3.825693  0.005  0.607771  -0.001857  4.125105  -0.001  0.642005  -0.001062  4.1233  0.0  0.203365  0.583457  -0.002789  4.124626  -0.001
C  C73  1  0.29870562  0.49645850  0.73773662  1  0.647163  0.004873  3.825568  0.005  0.607746  -0.001856  4.125044  -0.001  0.641976  -0.00106  4.123248  0.0  0.203343  0.583432  -0.002789  4.124567  -0.001
C  C74  1  0.70872128  0.28902133  0.84478568  1  -0.129938  -0.000181  3.676203  0.0  -0.169413  -0.000235  3.934589  0.0  -0.171003  -0.000112  3.947117  0.0  -0.166875  -0.168059  -0.000405  3.9261  -0.001
C  C75  1  0.29127894  0.71097502  0.15521763  1  -0.130133  -0.000205  3.676597  0.0  -0.169389  -0.000235  3.934746  0.0  -0.171018  -0.000111  3.947315  0.0  -0.166912  -0.16806  -0.000405  3.926243  -0.001
C  C76  1  0.00152611  0.74592825  0.54198098  1  -0.147582  0.001088  3.749289  0.001  -0.166618  3.5e-05  4.002462  0.0  -0.168424  0.000214  4.019204  0.0  -0.091966  -0.165669  -4.5e-05  3.99157  0.0
C  C77  1  0.99847615  0.25407469  0.45801901  1  -0.147503  0.000997  3.749323  0.001  -0.166568  3.5e-05  4.002461  0.0  -0.168367  0.000214  4.019207  0.0  -0.091973  -0.165625  -4.5e-05  3.991575  0.0
C  C78  1  0.96062628  0.89166371  0.30243759  1  -0.141568  -0.001632  3.738724  -0.002  -0.161363  -0.000895  3.990012  -0.001  -0.164667  -0.000712  4.010197  -0.001  -0.090078  -0.1588  -0.001144  3.976269  -0.001
C  C79  1  0.03937145  0.10833921  0.69756297  1  -0.141493  -0.001564  3.738726  -0.002  -0.161296  -0.000895  3.990018  -0.001  -0.164602  -0.000713  4.01021  -0.001  -0.090047  -0.158733  -0.001144  3.976276  -0.001
C  C80  1  0.00267530  0.25484216  0.02040817  1  0.652312  0.005489  3.835824  0.005  0.611815  -0.001577  4.138806  0.0  0.64687  -0.000908  4.135462  0.0  0.205113  0.58697  -0.002374  4.139436  -0.001
C  C81  1  0.99732615  0.74515136  0.97959594  1  0.652125  0.005503  3.835905  0.005  0.611621  -0.001577  4.138834  0.0  0.646694  -0.00091  4.135466  0.0  0.20502  0.586776  -0.002374  4.139457  -0.001
C  C82  1  0.62046216  0.17663863  0.87849642  1  0.010412  -0.000327  3.612831  0.0  -0.052272  -0.000283  3.871119  0.0  -0.047778  -0.000168  3.882311  0.0  -0.051687  -0.055298  -0.000407  3.863686  0.0
C  C83  1  0.37953903  0.82336148  0.12150027  1  0.010482  -0.000286  3.61292  0.0  -0.052274  -0.000282  3.871254  0.0  -0.047725  -0.000169  3.882381  0.0  -0.051694  -0.055251  -0.000407  3.863757  0.0
C  C84  1  0.34932394  0.13197588  0.28476411  1  -0.067432  -0.000725  3.777381  -0.001  -0.081658  -0.000112  4.030037  0.0  -0.083326  -6.3e-05  4.051234  0.0  -0.094834  -0.080543  -0.000246  4.015897  0.0
C  C85  1  0.65068392  0.86802802  0.71523061  1  -0.067457  -0.000687  3.77737  -0.001  -0.081715  -0.000113  4.030029  0.0  -0.083381  -6.3e-05  4.051221  0.0  -0.094825  -0.080601  -0.000245  4.015889  0.0
C  C86  1  0.84309914  0.27729919  0.10168119  1  -0.109467  -0.003116  3.638861  -0.005  -0.1068  -0.001607  3.873821  -0.002  -0.112605  -0.000886  3.887909  -0.001  -0.09169  -0.102769  -0.00242  3.864183  -0.003
C  C87  1  0.15689883  0.72269715  0.89832440  1  -0.109355  -0.003131  3.638424  -0.005  -0.106562  -0.001606  3.87321  -0.002  -0.112374  -0.000884  3.887297  -0.001  -0.091657  -0.102531  -0.00242  3.863573  -0.003
C  C88  1  0.61953079  0.40694131  0.25838108  1  -0.111191  -0.002125  3.638232  -0.003  -0.107355  -0.001083  3.87181  -0.001  -0.112903  -0.000517  3.886226  -0.001  -0.091304  -0.103584  -0.001727  3.862191  -0.002
C  C89  1  0.38047056  0.59305597  0.74162470  1  -0.111  -0.002132  3.638067  -0.003  -0.107029  -0.001083  3.871507  -0.001  -0.112588  -0.000516  3.885922  -0.001  -0.091206  -0.103258  -0.001726  3.861887  -0.002
C  C90  1  0.67437271  0.27104301  0.31816378  1  -0.111437  -0.001162  3.682724  -0.002  -0.155584  -0.000855  3.938907  -0.001  -0.155986  -0.000511  3.95337  -0.001  -0.169433  -0.155074  -0.001295  3.928237  -0.002
C  C91  1  0.32562863  0.72895427  0.68184120  1  -0.11152  -0.001167  3.682721  -0.002  -0.155812  -0.000856  3.939042  -0.001  -0.156206  -0.000513  3.953497  -0.001  -0.169425  -0.155298  -0.001295  3.928368  -0.002
C  C92  1  0.79398751  0.41615691  0.04251851  1  -0.11263  0.000328  3.647407  0.0  -0.155218  -4.9e-05  3.902082  0.0  -0.155513  3e-06  3.915009  0.0  -0.163136  -0.155007  -0.000112  3.893362  0.0
C  C93  1  0.20601861  0.58383287  0.95748734  1  -0.112688  0.000375  3.647334  0.0  -0.155355  -4.9e-05  3.902021  0.0  -0.155666  0.0  3.914948  0.0  -0.163208  -0.155143  -0.000112  3.8933  0.0
C  C94  1  0.41262684  0.16039857  0.15575054  1  -0.146958  0.000597  3.7449  0.0  -0.167907  -8.4e-05  4.002089  0.0  -0.16983  1.2e-05  4.019379  0.0  -0.091554  -0.167049  -0.000146  3.99148  0.0
C  C95  1  0.58737318  0.83960248  0.84424532  1  -0.146966  0.000534  3.744953  0.0  -0.167867  -8.3e-05  4.002148  0.0  -0.169793  1.1e-05  4.019432  0.0  -0.091566  -0.167015  -0.000146  3.991546  0.0
C  C96  1  0.06606619  0.86329966  0.46186415  1  -0.06726  -0.001175  3.774581  -0.001  -0.083187  -0.000348  4.026771  0.0  -0.085464  -0.000303  4.049347  0.0  -0.093223  -0.081513  -0.000453  4.011608  -0.001
C  C97  1  0.93393714  0.13670423  0.53813194  1  -0.067352  -0.001148  3.774752  -0.001  -0.083269  -0.000348  4.026954  0.0  -0.08555  -0.000302  4.049533  0.0  -0.093243  -0.081595  -0.000453  4.011792  -0.001
C  C98  1  0.63325871  0.44079404  0.12117667  1  -0.111274  0.000191  3.662989  0.0  -0.156623  -0.000104  3.923151  0.0  -0.156688  -3.6e-05  3.936373  0.0  -0.164446  -0.156444  -0.000204  3.913785  0.0
C  C99  1  0.36674375  0.55920325  0.87882638  1  -0.111333  0.000165  3.663112  0.0  -0.156652  -0.000104  3.923194  0.0  -0.156724  -3.6e-05  3.936433  0.0  -0.164424  -0.156477  -0.000204  3.913836  0.0
C  C100  1  0.51480284  0.94625467  0.33672939  1  -0.142361  -0.001366  3.748334  -0.002  -0.16191  -0.000782  3.998791  -0.001  -0.165373  -0.000533  4.019514  -0.001  -0.090768  -0.159209  -0.001029  3.984419  -0.001
C  C101  1  0.48519161  0.05374447  0.66327211  1  -0.142371  -0.001345  3.748421  -0.002  -0.161952  -0.000783  3.998832  -0.001  -0.165417  -0.000533  4.019554  -0.001  -0.090776  -0.159225  -0.001029  3.984474  -0.001
C  C102  1  0.04566021  0.93517514  0.34466766  1  -0.089859  0.002088  3.796905  0.001  -0.104837  0.000487  4.052243  0.0  -0.106191  0.000545  4.073613  0.0  -0.098237  -0.103973  0.000638  4.037915  0.0
C  C103  1  0.95433639  0.06482684  0.65532885  1  -0.089734  0.001971  3.796901  0.001  -0.104729  0.000487  4.052245  0.0  -0.106086  0.000545  4.073619  0.0  -0.09822  -0.103865  0.000639  4.037917  0.0
C  C104  1  0.83099828  0.24103218  0.23771767  1  -0.122801  -0.000848  3.692393  -0.001  -0.168572  -0.00064  3.947272  -0.001  -0.16911  -0.00038  3.961035  -0.001  -0.174792  -0.167927  -0.000996  3.937334  -0.001
C  C105  1  0.16900305  0.75896511  0.76228572  1  -0.122814  -0.00083  3.692368  -0.001  -0.168606  -0.00064  3.947262  -0.001  -0.169152  -0.00038  3.96103  -0.001  -0.174817  -0.167958  -0.000996  3.937323  -0.001
C  C106  1  0.40050856  0.02779814  0.37345251  1  -0.082038  0.00135  3.796479  0.001  -0.097352  7.6e-05  4.051393  0.0  -0.098828  0.000112  4.07297  0.0  -0.096261  -0.096643  0.000166  4.036971  0.0
C  C107  1  0.59949130  0.97220855  0.62654506  1  -0.081923  0.00129  3.796373  0.001  -0.097231  7.8e-05  4.051296  0.0  -0.098709  0.000114  4.072876  0.0  -0.096219  -0.09652  0.000166  4.036862  0.0
C  C108  1  0.81682583  0.49578527  0.68017426  1  0.017231  -0.000367  3.616312  -0.001  -0.047381  -0.00033  3.883064  0.0  -0.042315  -0.000232  3.893543  0.0  -0.046838  -0.050648  -0.000473  3.876516  -0.001
C  C109  1  0.18316732  0.50421951  0.31982770  1  0.017285  -0.000395  3.616435  -0.001  -0.047315  -0.000331  3.883191  0.0  -0.042241  -0.000231  3.893657  0.0  -0.046822  -0.050513  -0.000473  3.876558  -0.001
N  N110  1  0.61628844  0.07884302  0.00148218  1  -0.116765  -0.002006  3.530671  -0.004  -0.0288  -0.002526  3.755897  -0.004  -0.045156  -0.001912  3.778972  -0.003  -0.239994  -0.018119  -0.003066  3.74057  -0.005
N  N111  1  0.38370941  0.92115521  0.99851549  1  -0.116723  -0.002026  3.530639  -0.004  -0.028772  -0.002525  3.755895  -0.004  -0.045144  -0.001911  3.778961  -0.003  -0.240019  -0.018104  -0.003066  3.740553  -0.005
N  N112  1  0.80842201  0.70435395  0.36560334  1  -0.435676  -0.037497  3.303302  -0.059  -0.397698  -0.028591  3.628113  -0.035  -0.427848  -0.022826  3.635236  -0.027  -0.368064  -0.375839  -0.033679  3.624177  -0.042
N  N113  1  0.19157803  0.29564804  0.63439850  1  -0.43563  -0.037531  3.303375  -0.059  -0.397647  -0.02859  3.628203  -0.035  -0.427801  -0.022825  3.635335  -0.027  -0.368093  -0.375792  -0.033678  3.624266  -0.042
N  N114  1  0.83679011  0.59325328  0.55336881  1  -0.11724  -0.00046  3.506987  -0.002  -0.030266  -0.001562  3.734811  -0.003  -0.04598  -0.001208  3.757103  -0.002  -0.240231  -0.020166  -0.001812  3.720139  -0.003
N  N115  1  0.16320304  0.40675150  0.44663315  1  -0.117043  -0.000467  3.506983  -0.002  -0.030123  -0.001562  3.734788  -0.003  -0.045834  -0.001209  3.757082  -0.002  -0.240161  -0.020042  -0.001813  3.720096  -0.003
N  N116  1  0.69092783  0.90895306  0.14235934  1  -0.442975  -0.036716  3.293479  -0.057  -0.40358  -0.02837  3.617983  -0.034  -0.434188  -0.022595  3.625399  -0.027  -0.366344  -0.381344  -0.033469  3.613444  -0.041
N  N117  1  0.30906436  0.09104608  0.85764204  1  -0.44308  -0.036705  3.293464  -0.057  -0.40371  -0.028371  3.61797  -0.034  -0.434329  -0.022597  3.625394  -0.027  -0.366379  -0.381474  -0.03347  3.613441  -0.041
O  O118  1  0.64021313  0.61692025  0.23292801  1  -0.647856  -0.057419  2.040228  -0.095  -0.612427  -0.041421  2.326468  -0.062  -0.657268  -0.030169  2.315309  -0.044  -0.3414  -0.576747  -0.052302  2.331977  -0.077
O  O119  1  0.35978706  0.38307797  0.76707933  1  -0.647894  -0.057421  2.040253  -0.095  -0.612438  -0.041422  2.326504  -0.062  -0.657287  -0.030172  2.31535  -0.044  -0.341419  -0.57676  -0.052303  2.332013  -0.077
O  O120  1  0.01400787  0.26191682  0.91056541  1  -0.640095  -0.061516  2.071906  -0.104  -0.607518  -0.043815  2.364102  -0.068  -0.653555  -0.031893  2.353554  -0.049  -0.338244  -0.570905  -0.055252  2.36879  -0.084
O  O121  1  0.98599088  0.73808987  0.08943488  1  -0.640109  -0.061522  2.071945  -0.104  -0.607514  -0.043815  2.364094  -0.068  -0.653564  -0.031894  2.353568  -0.049  -0.338282  -0.570919  -0.055253  2.368823  -0.084
O  O122  1  0.11348010  0.23382944  0.05625218  1  -0.620615  -0.005796  1.894496  -0.01  -0.580269  -0.007067  2.118942  -0.012  -0.606669  -0.004881  2.112428  -0.008  -0.323891  -0.56031  -0.009684  2.122376  -0.015
O  O123  1  0.88652373  0.76616033  0.94375037  1  -0.620498  -0.005792  1.894499  -0.01  -0.580144  -0.007067  2.11892  -0.012  -0.606544  -0.004882  2.112394  -0.008  -0.323795  -0.560185  -0.009684  2.122354  -0.015
O  O124  1  0.81860649  0.47679508  0.29022026  1  -0.611179  -0.008096  1.920663  -0.014  -0.571841  -0.009161  2.14995  -0.015  -0.599492  -0.006391  2.144576  -0.011  -0.311883  -0.550505  -0.01245  2.152504  -0.02
O  O125  1  0.18139485  0.52320221  0.70978393  1  -0.611255  -0.008095  1.920681  -0.014  -0.571892  -0.009163  2.149985  -0.015  -0.599547  -0.006393  2.144609  -0.011  -0.311887  -0.550558  -0.012453  2.152542  -0.02
