# generated using pymatgen
data_NiH12C16(N4O)2
_symmetry_space_group_name_H-M   'P 1'
_cell_length_a   7.07080663
_cell_length_b   10.09011473
_cell_length_c   12.13985412
_cell_angle_alpha   89.99996506
_cell_angle_beta   90.00034133
_cell_angle_gamma   104.90921284
_symmetry_Int_Tables_number   1
_chemical_formula_structural   NiH12C16(N4O)2
_chemical_formula_sum   'Ni2 H24 C32 N16 O4'
_cell_volume   836.96272586
_cell_formula_units_Z   2
loop_
 _symmetry_equiv_pos_site_id
 _symmetry_equiv_pos_as_xyz
  1  'x, y, z'
loop_
 _atom_site_type_symbol
 _atom_site_label
 _atom_site_symmetry_multiplicity
 _atom_site_fract_x
 _atom_site_fract_y
 _atom_site_fract_z
 _atom_site_occupancy
 _atom_site_hle17_ddec_charge
 _atom_site_hle17_ddec_spin_density
 _atom_site_hle17_ddec_sum_bond_order
 _atom_site_hle17_magmom
 _atom_site_hse06_10hf_ddec_charge
 _atom_site_hse06_10hf_ddec_spin_density
 _atom_site_hse06_10hf_ddec_sum_bond_order
 _atom_site_hse06_10hf_magmom
 _atom_site_hse06_ddec_charge
 _atom_site_hse06_ddec_spin_density
 _atom_site_hse06_ddec_sum_bond_order
 _atom_site_hse06_magmom
 _atom_site_pbe_cm5_charge
 _atom_site_pbe_ddec_charge
 _atom_site_pbe_ddec_spin_density
 _atom_site_pbe_ddec_sum_bond_order
 _atom_site_pbe_magmom
Ni  Ni0  1  0.00000360  0.00000204  0.00000082  1  0.98688  1.908359  2.150691  1.517  1.016141  1.900035  2.553699  1.635  1.08959  1.964408  2.48519  1.723  0.713716  0.955416  1.834528  2.614423  1.55
Ni  Ni1  1  0.49999969  0.49999974  0.49999851  1  0.986993  -1.908391  2.150698  -1.517  1.016194  -1.900048  2.553782  -1.635  1.089605  -1.96441  2.485267  -1.723  0.713734  0.955454  -1.834533  2.614467  -1.55
H  H2  1  0.97471340  0.21640520  0.20028988  1  0.107643  -0.000515  0.950101  -0.001  0.116755  -2.9e-05  1.011634  0.0  0.118816  -4.1e-05  1.010376  0.0  0.129751  0.115297  -1.4e-05  1.012585  0.0
H  H3  1  0.47471758  0.71640434  0.29970934  1  0.107644  0.000515  0.950134  0.001  0.116785  2.9e-05  1.011638  0.0  0.118846  4.2e-05  1.010381  0.0  0.129742  0.115328  1.4e-05  1.01259  0.0
H  H4  1  0.02528584  0.78359017  0.79971619  1  0.107636  -0.000515  0.950084  -0.001  0.116778  -2.9e-05  1.011593  0.0  0.118834  -4.1e-05  1.01034  0.0  0.129747  0.115322  -1.4e-05  1.012544  0.0
H  H5  1  0.52528346  0.28359205  0.70028767  1  0.107621  0.000517  0.950088  0.001  0.11675  2.9e-05  1.011612  0.0  0.118813  4.2e-05  1.01035  0.0  0.129723  0.115292  1.4e-05  1.012564  0.0
H  H6  1  0.85500254  0.20788081  0.39709764  1  0.126316  4e-05  0.926982  0.0  0.137315  -0.000166  0.981405  0.0  0.140621  -0.000105  0.980644  0.0  0.11678  0.135026  -0.000234  0.981959  0.0
H  H7  1  0.35500951  0.70787763  0.10290034  1  0.126307  -4.1e-05  0.926951  0.0  0.137322  0.000166  0.981362  0.0  0.14063  0.000105  0.980599  0.0  0.116772  0.135036  0.000234  0.981916  0.0
H  H8  1  0.14499002  0.79211562  0.60290596  1  0.126278  4.1e-05  0.926948  0.0  0.137285  -0.000166  0.981375  0.0  0.140591  -0.000105  0.980615  0.0  0.116747  0.134997  -0.000234  0.981929  0.0
H  H9  1  0.64499139  0.29211465  0.89709584  1  0.126362  -4e-05  0.926879  0.0  0.137373  0.000166  0.981294  0.0  0.140679  0.000105  0.980533  0.0  0.116795  0.135087  0.000234  0.981848  0.0
H  H10  1  0.56194362  0.15730379  0.51833583  1  0.095979  0.000104  0.951755  0.0  0.106284  8e-05  1.020432  0.0  0.108817  6.6e-05  1.019489  0.0  0.094893  0.104426  9.3e-05  1.021103  0.0
H  H11  1  0.06194268  0.65730319  0.98166247  1  0.095987  -0.000106  0.951758  0.0  0.106279  -8e-05  1.020427  0.0  0.108813  -6.6e-05  1.019483  0.0  0.094901  0.104422  -9.3e-05  1.021097  0.0
H  H12  1  0.43804831  0.84269471  0.48166612  1  0.096054  0.000105  0.951865  0.0  0.106328  8e-05  1.020532  0.0  0.108863  6.6e-05  1.019583  0.0  0.094903  0.104459  9.3e-05  1.021214  0.0
H  H13  1  0.93805374  0.34269219  0.01833619  1  0.095983  -0.000104  0.951731  0.0  0.106263  -8e-05  1.020431  0.0  0.108802  -6.6e-05  1.019479  0.0  0.094878  0.104386  -9.3e-05  1.021121  0.0
H  H14  1  0.33128576  0.06283536  0.46815940  1  0.091285  0.000252  0.919625  0.0  0.106457  0.000166  0.978247  0.0  0.107665  0.000123  0.978077  0.0  0.096502  0.105742  0.000226  0.978213  0.0
H  H15  1  0.83128919  0.56283139  0.03184023  1  0.091271  -0.000252  0.919649  0.0  0.106463  -0.000166  0.978233  0.0  0.107671  -0.000123  0.978064  0.0  0.096507  0.105747  -0.000226  0.978204  0.0
H  H16  1  0.66870797  0.93716415  0.53184173  1  0.091207  0.000254  0.91973  0.0  0.106373  0.000166  0.978334  0.0  0.10758  0.000123  0.978165  0.0  0.096472  0.105658  0.000226  0.978299  0.0
H  H17  1  0.16871043  0.43716500  0.96815761  1  0.091226  -0.000253  0.919672  0.0  0.106388  -0.000166  0.978295  0.0  0.107595  -0.000123  0.978128  0.0  0.096477  0.105673  -0.000226  0.97826  0.0
H  H18  1  0.30718426  0.94810534  0.28320055  1  0.113497  0.000116  0.977494  0.001  0.121288  -7.3e-05  1.040702  0.0  0.123709  -6.2e-05  1.041236  0.0  0.109301  0.119611  -8.9e-05  1.040535  0.0
H  H19  1  0.80718706  0.44810927  0.21680043  1  0.113489  -0.000116  0.977554  -0.001  0.121279  7.4e-05  1.040761  0.0  0.123699  6.2e-05  1.041295  0.0  0.109297  0.119602  8.9e-05  1.040594  0.0
H  H20  1  0.69281229  0.05189416  0.71679893  1  0.113503  0.000113  0.977568  0.001  0.1213  -7.3e-05  1.040756  0.0  0.123721  -6.2e-05  1.041289  0.0  0.109301  0.119623  -8.9e-05  1.040587  0.0
H  H21  1  0.19281167  0.55189227  0.78319905  1  0.113511  -0.000116  0.977546  -0.001  0.121306  7.4e-05  1.040744  0.0  0.123727  6.2e-05  1.041277  0.0  0.109315  0.119627  8.9e-05  1.040577  0.0
H  H22  1  0.44592266  0.96845323  0.09170837  1  0.123  -0.00047  0.957325  -0.001  0.126546  3.7e-05  1.027416  0.0  0.13145  -8e-06  1.02274  0.0  0.12973  0.122905  9.1e-05  1.030858  0.0
H  H23  1  0.94592069  0.46845434  0.40829061  1  0.122946  0.000469  0.957401  0.001  0.12649  -3.7e-05  1.027504  0.0  0.131395  8e-06  1.022826  0.0  0.129713  0.122847  -9.1e-05  1.030945  0.0
H  H24  1  0.55408031  0.03154829  0.90829111  1  0.122972  -0.000469  0.957402  -0.001  0.126502  3.7e-05  1.027525  0.0  0.131408  -8e-06  1.022847  0.0  0.129728  0.122863  9.1e-05  1.030967  0.0
H  H25  1  0.05407702  0.53154823  0.59170722  1  0.122987  0.000471  0.95736  0.001  0.12653  -3.7e-05  1.027476  0.0  0.131435  8e-06  1.022797  0.0  0.129718  0.122885  -9.1e-05  1.030918  0.0
C  C26  1  0.82929285  0.15973128  0.22573970  1  0.016491  0.014436  3.624027  0.016  -0.030619  0.007616  3.893291  0.009  -0.024449  0.006034  3.908084  0.007  0.039546  -0.034346  0.009424  3.883328  0.01
C  C27  1  0.32929278  0.65972733  0.27425987  1  0.016317  -0.014431  3.624139  -0.016  -0.030825  -0.007617  3.893424  -0.009  -0.024653  -0.006037  3.908215  -0.007  0.039496  -0.034552  -0.009425  3.883461  -0.01
C  C28  1  0.17070793  0.84026820  0.77426555  1  0.016498  0.014426  3.624081  0.016  -0.030643  0.00762  3.89334  0.009  -0.024468  0.006039  3.908139  0.007  0.03959  -0.034373  0.009427  3.883376  0.01
C  C29  1  0.67070607  0.34026702  0.72573715  1  0.016628  -0.014438  3.623887  -0.016  -0.030495  -0.007618  3.893134  -0.009  -0.024324  -0.006039  3.90793  -0.007  0.039662  -0.034223  -0.009426  3.883172  -0.01
C  C30  1  0.76001713  0.15209199  0.33258518  1  -0.138661  -0.009493  3.701869  -0.011  -0.157271  -0.002928  3.958692  -0.004  -0.163745  -0.003037  3.978447  -0.004  -0.074722  -0.153071  -0.002769  3.945247  -0.004
C  C31  1  0.26001490  0.65208894  0.16741250  1  -0.138591  0.009492  3.701917  0.011  -0.157255  0.002929  3.958729  0.004  -0.16373  0.003037  3.978486  0.004  -0.07471  -0.153057  0.00277  3.945286  0.004
C  C32  1  0.23998160  0.84790955  0.66741760  1  -0.138718  -0.009483  3.701774  -0.011  -0.157341  -0.002929  3.958596  -0.004  -0.163815  -0.003039  3.978348  -0.004  -0.074736  -0.153141  -0.00277  3.945149  -0.004
C  C33  1  0.73998049  0.34790748  0.83258369  1  -0.138862  0.00949  3.701781  0.011  -0.157516  0.00293  3.958614  0.004  -0.16399  0.003039  3.978367  0.004  -0.074815  -0.153316  0.00277  3.945172  0.004
C  C34  1  0.56885280  0.07663969  0.35684051  1  0.158717  0.017785  3.70899  0.019  0.16307  0.008771  3.960086  0.01  0.16837  0.006659  3.982021  0.008  0.011542  0.160155  0.011462  3.944358  0.013
C  C35  1  0.06884953  0.57663455  0.14316149  1  0.158584  -0.017778  3.709278  -0.019  0.163026  -0.008771  3.960252  -0.01  0.168328  -0.006659  3.982188  -0.008  0.01148  0.16011  -0.011462  3.944522  -0.013
C  C36  1  0.43114453  0.92336186  0.64316226  1  0.158763  0.017773  3.708877  0.019  0.163139  0.008772  3.959912  0.01  0.168441  0.00666  3.981836  0.008  0.011497  0.160224  0.011464  3.944181  0.013
C  C37  1  0.93114508  0.42335982  0.85683718  1  0.158716  -0.017781  3.708913  -0.019  0.163137  -0.008774  3.95992  -0.01  0.168442  -0.006662  3.981847  -0.008  0.011524  0.160223  -0.011464  3.944186  -0.013
C  C38  1  0.48774705  0.06565769  0.47128821  1  -0.156623  0.000532  3.671689  0.0  -0.197098  0.00074  3.925686  0.0  -0.199202  0.000483  3.936253  0.0  -0.157154  -0.19534  0.001076  3.917739  0.001
C  C39  1  0.98774815  0.56565886  0.02871114  1  -0.156607  -0.000529  3.671676  0.0  -0.197071  -0.00074  3.925621  0.0  -0.199178  -0.000481  3.936199  0.0  -0.157148  -0.195309  -0.001076  3.917668  -0.001
C  C40  1  0.51224590  0.93433977  0.52871292  1  -0.156688  0.000527  3.671732  0.0  -0.197098  0.00074  3.925673  0.0  -0.199198  0.000481  3.936235  0.0  -0.157146  -0.195331  0.001076  3.917732  0.001
C  C41  1  0.01224879  0.43434166  0.97128917  1  -0.156591  -0.000529  3.671453  0.0  -0.197048  -0.00074  3.92542  0.0  -0.199153  -0.000479  3.935992  0.0  -0.157138  -0.195271  -0.001075  3.917481  -0.001
C  C42  1  0.45647662  0.00823767  0.26924950  1  -0.156086  -0.010126  3.726731  -0.012  -0.173012  -0.003021  3.979849  -0.004  -0.181123  -0.003118  4.002656  -0.004  -0.081541  -0.167854  -0.002871  3.964254  -0.004
C  C43  1  0.95647421  0.50823913  0.23075307  1  -0.15612  0.010121  3.72698  0.012  -0.173079  0.003021  3.980083  0.004  -0.18119  0.003118  4.002889  0.004  -0.081558  -0.167924  0.002871  3.964487  0.004
C  C44  1  0.54352314  0.99176283  0.73075328  1  -0.156167  -0.010105  3.726989  -0.012  -0.1731  -0.003021  3.980112  -0.004  -0.181211  -0.003119  4.002917  -0.004  -0.081544  -0.167943  -0.002872  3.964517  -0.004
C  C45  1  0.04352375  0.49176036  0.76924559  1  -0.156186  0.010123  3.726885  0.012  -0.173123  0.00302  3.980028  0.004  -0.181234  0.00312  4.002831  0.004  -0.081587  -0.167967  0.002872  3.964435  0.004
C  C46  1  0.52964830  0.01641941  0.16316103  1  0.024958  0.015733  3.592274  0.017  -0.020469  0.008186  3.856606  0.009  -0.014532  0.006496  3.870072  0.008  0.041646  -0.023696  0.010113  3.847475  0.011
C  C47  1  0.02964800  0.51642067  0.33684086  1  0.025072  -0.015727  3.592405  -0.017  -0.020348  -0.008186  3.856713  -0.009  -0.014413  -0.006498  3.870183  -0.008  0.041685  -0.023574  -0.010113  3.847579  -0.011
C  C48  1  0.47035301  0.98358520  0.83683927  1  0.025073  0.015717  3.592336  0.017  -0.020363  0.008187  3.856678  0.009  -0.014429  0.006498  3.870148  0.008  0.041699  -0.023591  0.010113  3.847545  0.011
C  C49  1  0.97034971  0.48358190  0.66315862  1  0.025108  -0.015734  3.592235  -0.017  -0.020365  -0.008184  3.85662  -0.009  -0.01443  -0.006499  3.870087  -0.008  0.041706  -0.023591  -0.010114  3.847487  -0.011
C  C50  1  0.67570345  0.75380339  0.89288732  1  0.484486  -0.007835  3.999131  -0.005  0.464714  -0.000561  4.277403  0.003  0.492231  -0.001518  4.285459  0.001  0.302477  0.444833  0.000226  4.272674  0.004
C  C51  1  0.17569320  0.25379151  0.60710720  1  0.48447  0.007842  3.999025  0.005  0.464719  0.000564  4.277287  -0.003  0.492236  0.00153  4.28534  -0.001  0.302549  0.444834  -0.000226  4.272551  -0.004
C  C52  1  0.32431109  0.24620629  0.10711216  1  0.484512  -0.007841  3.998964  -0.005  0.464756  -0.00056  4.27722  0.003  0.492274  -0.001517  4.285277  0.001  0.302519  0.44487  0.000228  4.272489  0.004
C  C53  1  0.82431838  0.74621407  0.39288734  1  0.484554  0.007847  3.99867  0.005  0.464822  0.00056  4.276909  -0.003  0.492339  0.001521  4.28497  -0.001  0.302593  0.444934  -0.000228  4.272172  -0.004
C  C54  1  0.54207851  0.62600349  0.74155581  1  0.473809  0.01067  4.004779  0.009  0.453881  0.001855  4.282489  -0.001  0.481022  0.002617  4.292846  0.0  0.299219  0.434251  0.001261  4.276155  -0.002
C  C55  1  0.04207333  0.12598973  0.75844408  1  0.474005  -0.010673  4.004301  -0.009  0.4541  -0.001849  4.281994  0.001  0.481239  -0.002609  4.292353  0.0  0.299269  0.434469  -0.001261  4.275669  0.002
C  C56  1  0.45792819  0.37400417  0.25844697  1  0.473977  0.010674  4.004342  0.009  0.454072  0.001859  4.282034  -0.001  0.481211  0.002619  4.29239  0.0  0.299292  0.434441  0.001263  4.275705  -0.002
C  C57  1  0.95793592  0.87400970  0.24155458  1  0.47411  -0.010673  4.004014  -0.009  0.454222  -0.001853  4.281699  0.001  0.481362  -0.002617  4.292054  0.0  0.299363  0.434595  -0.001262  4.275377  0.002
N  N58  1  0.71391145  0.09355667  0.14223687  1  0.253  -0.00839  3.710463  -0.016  0.310319  -0.002981  3.983013  -0.007  0.310383  -0.003497  4.006771  -0.007  -0.117776  0.309135  -0.002121  3.965838  -0.006
N  N59  1  0.21390983  0.59355386  0.35776398  1  0.253144  0.008386  3.71064  0.016  0.310477  0.002982  3.983159  0.007  0.310542  0.0035  4.006919  0.007  -0.117699  0.309291  0.002121  3.965982  0.006
N  N60  1  0.28609152  0.90644485  0.85776674  1  0.253082  -0.008382  3.710457  -0.016  0.310421  -0.002984  3.982998  -0.007  0.310486  -0.003503  4.006756  -0.007  -0.117749  0.309237  -0.002121  3.965822  -0.006
N  N61  1  0.78608595  0.40644358  0.64223550  1  0.252975  0.008391  3.710552  0.016  0.310331  0.002983  3.983086  0.007  0.310396  0.003502  4.006844  0.007  -0.117794  0.309146  0.002121  3.965909  0.006
N  N62  1  0.78528957  0.83923558  0.94401496  1  -0.572965  0.047938  2.961488  0.065  -0.561703  0.034178  3.253882  0.047  -0.586661  0.029313  3.254275  0.041  -0.375654  -0.543269  0.038314  3.254859  0.051
N  N63  1  0.28528738  0.33922770  0.55598320  1  -0.572923  -0.047945  2.961393  -0.065  -0.561664  -0.03418  3.253795  -0.047  -0.586617  -0.029331  3.254181  -0.041  -0.375653  -0.543221  -0.038312  3.254744  -0.051
N  N64  1  0.21471199  0.16076595  0.05598041  1  -0.572994  0.047953  2.961111  0.065  -0.561735  0.034179  3.253503  0.047  -0.586699  0.029313  3.253897  0.041  -0.375637  -0.543295  0.038317  3.254477  0.051
N  N65  1  0.71470325  0.66076361  0.44401876  1  -0.573031  -0.047963  2.960694  -0.065  -0.561776  -0.034181  3.253114  -0.047  -0.586736  -0.029322  3.253501  -0.041  -0.375667  -0.543331  -0.03832  3.254072  -0.051
N  N66  1  0.54618843  0.65574787  0.84556365  1  -0.471144  -0.000307  3.281076  -0.001  -0.422624  9.4e-05  3.533856  0.0  -0.44581  0.000137  3.535661  0.0  -0.319799  -0.406943  4.1e-05  3.533887  0.0
N  N67  1  0.04616944  0.15573404  0.65442718  1  -0.471356  0.000319  3.280637  0.001  -0.422859  -8.9e-05  3.533434  0.0  -0.446047  -0.000118  3.535235  0.0  -0.319916  -0.407172  -4e-05  3.533464  0.0
N  N68  1  0.45382635  0.34425873  0.15442924  1  -0.47129  -0.000311  3.280842  -0.001  -0.422791  9.4e-05  3.533637  0.0  -0.445979  0.000138  3.535437  0.0  -0.319892  -0.407104  4e-05  3.533669  0.0
N  N69  1  0.95382877  0.84426236  0.34557478  1  -0.471372  0.000315  3.280756  0.001  -0.422899  -9.3e-05  3.53357  0.0  -0.446083  -0.000133  3.535369  0.0  -0.319969  -0.407215  -3.9e-05  3.533605  0.0
N  N70  1  0.51765961  0.58791067  0.64972107  1  -0.561459  -0.050012  2.962774  -0.067  -0.546319  -0.034667  3.252694  -0.047  -0.571992  -0.029924  3.254849  -0.041  -0.379342  -0.52751  -0.038742  3.252545  -0.051
N  N71  1  0.01765659  0.08791140  0.85027629  1  -0.561514  0.05001  2.962775  0.067  -0.546399  0.03466  3.252712  0.047  -0.572064  0.029906  3.254846  0.041  -0.379364  -0.527597  0.038742  3.252584  0.051
N  N72  1  0.48234297  0.41208982  0.35027512  1  -0.56152  -0.050009  2.962902  -0.067  -0.546396  -0.034666  3.252841  -0.047  -0.572046  -0.029923  3.254955  -0.041  -0.379395  -0.527595  -0.038738  3.252702  -0.051
N  N73  1  0.98234779  0.91209011  0.14972567  1  -0.561574  0.050008  2.962832  0.067  -0.546463  0.034663  3.252759  0.047  -0.572122  0.029919  3.254883  0.041  -0.379409  -0.527668  0.038737  3.25264  0.051
O  O74  1  0.78072814  0.10538117  0.03957512  1  -0.505676  0.064978  1.830145  0.098  -0.505555  0.031726  2.097416  0.05  -0.540345  0.022377  2.098705  0.036  -0.22225  -0.477024  0.040258  2.09477  0.062
O  O75  1  0.28072761  0.60537849  0.46042431  1  -0.505649  -0.064969  1.830153  -0.098  -0.50556  -0.031723  2.097479  -0.05  -0.54034  -0.022376  2.098756  -0.036  -0.222253  -0.477029  -0.040255  2.094829  -0.062
O  O76  1  0.21927522  0.89462138  0.96042684  1  -0.505629  0.064984  1.830033  0.098  -0.505564  0.031725  2.097353  0.05  -0.540347  0.022379  2.098624  0.036  -0.222246  -0.477033  0.040257  2.094712  0.062
O  O77  1  0.71927215  0.39462202  0.53957518  1  -0.505629  -0.064972  1.830166  -0.098  -0.505536  -0.031724  2.097464  -0.05  -0.54032  -0.022376  2.098752  -0.036  -0.222231  -0.477005  -0.040255  2.094816  -0.062
