# generated using pymatgen
data_H22Pb2C16O9
_symmetry_space_group_name_H-M   'P 1'
_cell_length_a   9.11554552
_cell_length_b   9.74575230
_cell_length_c   10.98501263
_cell_angle_alpha   92.25517560
_cell_angle_beta   97.27239151
_cell_angle_gamma   105.91927139
_symmetry_Int_Tables_number   1
_chemical_formula_structural   H22Pb2C16O9
_chemical_formula_sum   'H44 Pb4 C32 O18'
_cell_volume   928.09879991
_cell_formula_units_Z   2
loop_
 _symmetry_equiv_pos_site_id
 _symmetry_equiv_pos_as_xyz
  1  'x, y, z'
loop_
 _atom_site_type_symbol
 _atom_site_label
 _atom_site_symmetry_multiplicity
 _atom_site_fract_x
 _atom_site_fract_y
 _atom_site_fract_z
 _atom_site_occupancy
 _atom_site_pbe_bader_spin_density
 _atom_site_pbe_cm5_charge
 _atom_site_pbe_ddec_charge
 _atom_site_pbe_ddec_spin_density
 _atom_site_pbe_ddec_sum_bond_order
 _atom_site_pbe_magmom
H  H0  1  0.99890885  0.74166962  0.27365091  1  0  0.096211  0.084133  0  0.998939  0
H  H1  1  0.00098492  0.25816024  0.72639468  1  0  0.096095  0.084012  0  0.998602  0
H  H2  1  0.94215935  0.69166425  0.99185355  1  0  0.087535  0.08187  0  1.010488  0
H  H3  1  0.05782436  0.30827089  0.00818100  1  0  0.087532  0.081972  0  1.010506  0
H  H4  1  0.02253683  0.58733569  0.09335724  1  0  0.087713  0.081295  0  1.018399  0
H  H5  1  0.97740196  0.41254219  0.90665578  1  0  0.087791  0.081406  0  1.018268  0
H  H6  1  0.77886959  0.51253991  0.18659422  1  0  0.089702  0.092514  0  0.989482  0
H  H7  1  0.22104205  0.48735047  0.81338288  1  0  0.089784  0.092518  0  0.989478  0
H  H8  1  0.74208763  0.46802328  0.02771049  1  0  0.089586  0.086298  0  1.006469  0
H  H9  1  0.25787552  0.53190726  0.97226441  1  0  0.089674  0.086239  0  1.006057  0
H  H10  1  0.65585157  0.68845555  0.99374316  1  0  0.083114  0.05064  0  1.05143  0
H  H11  1  0.34406157  0.31146694  0.00625090  1  0  0.083113  0.05073  0  1.051345  0
H  H12  1  0.54676309  0.58151497  0.09504163  1  0  0.092058  0.088722  0  1.006169  0
H  H13  1  0.45318818  0.41839194  0.90495020  1  0  0.092101  0.088832  0  1.006132  0
H  H14  1  0.87475004  0.91707189  0.08240793  1  0  0.092063  0.095613  0  1.007347  0
H  H15  1  0.12525562  0.08281780  0.91762332  1  0  0.092103  0.095615  0  1.007051  0
H  H16  1  0.91264515  0.95699355  0.24430330  1  0  0.092149  0.089915  0  1.015438  0
H  H17  1  0.08727710  0.04287355  0.75574219  1  0  0.09221  0.08995  0  1.01538  0
H  H18  1  0.71736076  0.73406647  0.27532400  1  0  0.104788  0.090507  0  0.985588  0
H  H19  1  0.28256438  0.26584505  0.72467538  1  0  0.104883  0.090608  0  0.985401  0
H  H20  1  0.98639744  0.57777296  0.65363764  1  0  0.100992  0.085678  0  0.978928  0
H  H21  1  0.01379684  0.42246326  0.34630161  1  0  0.100966  0.08583  0  0.978658  0
H  H22  1  0.88204347  0.72687537  0.78687412  1  0  0.08917  0.083417  0  1.00227  0
H  H23  1  0.11800711  0.27320756  0.21312150  1  0  0.089149  0.083309  0  1.002155  0
H  H24  1  0.72143450  0.71019424  0.67130207  1  0  0.085863  0.065266  0  1.052666  0
H  H25  1  0.27860103  0.28979331  0.32867712  1  0  0.085919  0.065146  0  1.05272  0
H  H26  1  0.64613961  0.53388874  0.82279237  1  0  0.08978  0.079223  0  1.016948  0
H  H27  1  0.35401851  0.46613202  0.17725439  1  0  0.089585  0.079141  0  1.01669  0
H  H28  1  0.80451278  0.46697221  0.80678847  1  0  0.087997  0.078643  0  1.007873  0
H  H29  1  0.19563233  0.53306735  0.19321679  1  0  0.08785  0.078285  0  1.008267  0
H  H30  1  0.57188647  0.30347505  0.68743233  1  0  0.089656  0.089966  0  1.023787  0
H  H31  1  0.42823516  0.69655275  0.31260647  1  0  0.089688  0.089995  0  1.024231  0
H  H32  1  0.52613027  0.44824104  0.61284332  1  0  0.088784  0.090323  0  1.01523  0
H  H33  1  0.47393324  0.55178393  0.38724952  1  0  0.088731  0.090163  0  1.015605  0
H  H34  1  0.86361383  0.51242111  0.43074930  1  0  0.089782  0.085903  0  1.009893  0
H  H35  1  0.13642463  0.48759959  0.56924887  1  0  0.089708  0.085827  0  1.010152  0
H  H36  1  0.71048723  0.57855679  0.46169582  1  0  0.091092  0.085764  0  1.019357  0
H  H37  1  0.28957861  0.42150111  0.53830942  1  0  0.090976  0.085805  0  1.019521  0
H  H38  1  0.80215432  0.33281104  0.58855655  1  0  0.099031  0.080752  0  0.980991  0
H  H39  1  0.19784728  0.66719567  0.41137265  1  0  0.099065  0.08098  0  0.981151  0
H  H40  1  0.80927278  0.20180311  0.22099485  1  0  0.287269  0.378976  0  0.962766  0
H  H41  1  0.19079527  0.79826886  0.77899481  1  0  0.287245  0.378966  0  0.962789  0
H  H42  1  0.78369116  0.17327194  0.07245927  1  0  0.292615  0.393921  0  0.939183  0
H  H43  1  0.21644150  0.82670135  0.92751556  1  0  0.29275  0.393947  0  0.938895  0
Pb  Pb44  1  0.46350751  0.11131007  0.16502234  1  0  0.656498  1.133784  0  1.762005  0
Pb  Pb45  1  0.53654130  0.88851130  0.83472916  1  0  0.656325  1.133795  0  1.762851  0
Pb  Pb46  1  0.26834821  0.01481108  0.50533031  1  0  0.67795  1.20134  0  1.819063  0
Pb  Pb47  1  0.73102964  0.98553004  0.49465128  1  0  0.677977  1.201083  0  1.818726  0
C  C48  1  0.14988876  0.88190335  0.17036509  1  0  0.219758  0.620795  0  4.114779  0
C  C49  1  0.85020878  0.11791186  0.82980441  1  0  0.218957  0.619276  0  4.116356  0
C  C50  1  0.99301364  0.77992730  0.18066465  1  0  -0.09105  -0.112159  0  3.868453  0
C  C51  1  0.00697601  0.21996019  0.81940038  1  0  -0.090836  -0.112224  0  3.869134  0
C  C52  1  0.94057285  0.65193875  0.08435426  1  0  -0.166384  -0.159941  0  3.927339  0
C  C53  1  0.05939967  0.34797189  0.91567175  1  0  -0.16659  -0.16027  0  3.927764  0
C  C54  1  0.77860941  0.55959723  0.09699985  1  0  -0.169192  -0.149279  0  3.936138  0
C  C55  1  0.22133942  0.44031942  0.90298850  1  0  -0.169186  -0.148919  0  3.935771  0
C  C56  1  0.66315639  0.64766574  0.08603594  1  0  -0.162668  -0.153481  0  3.940327  0
C  C57  1  0.33679217  0.35224661  0.91395220  1  0  -0.162756  -0.153817  0  3.940196  0
C  C58  1  0.87654252  0.86898957  0.17154389  1  0  -0.156881  -0.167443  0  3.839147  0
C  C59  1  0.12344306  0.13089611  0.82848515  1  0  -0.156986  -0.167109  0  3.838211  0
C  C60  1  0.71333194  0.77445175  0.18303698  1  0  -0.087309  -0.117962  0  3.884211  0
C  C61  1  0.28662616  0.22544536  0.81695788  1  0  -0.08737  -0.118203  0  3.88421  0
C  C62  1  0.60637835  0.86890541  0.17570331  1  0  0.228486  0.60478  0  4.117976  0
C  C63  1  0.39361399  0.13101008  0.82421659  1  0  0.22844  0.60478  0  4.117389  0
C  C64  1  0.99148502  0.76834423  0.56688451  1  0  0.215127  0.590871  0  4.16104  0
C  C65  1  0.00846399  0.23187202  0.43302986  1  0  0.215229  0.591312  0  4.161716  0
C  C66  1  0.90064994  0.62838548  0.61030569  1  0  -0.09274  -0.112948  0  3.88394  0
C  C67  1  0.09945138  0.37176690  0.38965703  1  0  -0.092896  -0.113676  0  3.884788  0
C  C68  1  0.80585502  0.65575003  0.71029821  1  0  -0.163462  -0.168968  0  3.923651  0
C  C69  1  0.19423434  0.34430546  0.28969748  1  0  -0.163348  -0.168182  0  3.923356  0
C  C70  1  0.72012895  0.51406089  0.75642147  1  0  -0.163057  -0.123621  0  3.915071  0
C  C71  1  0.28001021  0.48598400  0.24359980  1  0  -0.162802  -0.123331  0  3.914821  0
C  C72  1  0.62168549  0.40722101  0.65204570  1  0  -0.165435  -0.161452  0  3.875203  0
C  C73  1  0.37841405  0.59282741  0.34800809  1  0  -0.165443  -0.161525  0  3.875569  0
C  C74  1  0.79669847  0.52836194  0.50388070  1  0  -0.167323  -0.176115  0  3.925647  0
C  C75  1  0.20338687  0.47172574  0.49613141  1  0  -0.167258  -0.176568  0  3.925743  0
C  C76  1  0.71551678  0.38505840  0.54927231  1  0  -0.090634  -0.110614  0  3.876064  0
C  C77  1  0.28452463  0.61504072  0.45073216  1  0  -0.090224  -0.110094  0  3.87553  0
C  C78  1  0.60936053  0.28109651  0.44702150  1  0  0.217752  0.596054  0  4.158837  0
C  C79  1  0.39051418  0.71912121  0.55297731  1  0  0.218358  0.596694  0  4.157768  0
O  O80  1  0.19043527  0.91022371  0.06577698  1  0  -0.30457  -0.577602  0  2.204691  0
O  O81  1  0.80956790  0.08989510  0.93439192  1  0  -0.303875  -0.57634  0  2.20537  0
O  O82  1  0.23572917  0.94398493  0.27050790  1  0  -0.310115  -0.638582  0  2.26778  0
O  O83  1  0.76459900  0.05536418  0.72969935  1  0  -0.309684  -0.637981  0  2.268728  0
O  O84  1  0.59506172  0.93912636  0.27401588  1  0  -0.281487  -0.5777  0  2.319429  0
O  O85  1  0.40496099  0.06091282  0.72585037  1  0  -0.281331  -0.577543  0  2.318623  0
O  O86  1  0.53278582  0.88501153  0.07382076  1  0  -0.279663  -0.552715  0  2.268018  0
O  O87  1  0.46721874  0.11481799  0.92606858  1  0  -0.279896  -0.552917  0  2.267684  0
O  O88  1  0.12560784  0.82846367  0.62888390  1  0  -0.297247  -0.57607  0  2.272452  0
O  O89  1  0.87424620  0.17196605  0.37113803  1  0  -0.297539  -0.576311  0  2.272368  0
O  O90  1  0.93754354  0.82133614  0.47419444  1  0  -0.306225  -0.609356  0  2.238033  0
O  O91  1  0.06243414  0.17875984  0.52564409  1  0  -0.306348  -0.609886  0  2.238877  0
O  O92  1  0.56281267  0.32640214  0.34822207  1  0  -0.291577  -0.538288  0  2.17945  0
O  O93  1  0.43704587  0.67381988  0.65180623  1  0  -0.292074  -0.538562  0  2.180113  0
O  O94  1  0.56501706  0.14696687  0.46977286  1  0  -0.308343  -0.639827  0  2.314224  0
O  O95  1  0.43468981  0.85325073  0.53027167  1  0  -0.308636  -0.640589  0  2.31404  0
O  O96  1  0.74939079  0.21652499  0.14294358  1  0  -0.567234  -0.762629  0  2.006216  0
O  O97  1  0.25066975  0.78344092  0.85700631  1  0  -0.567048  -0.762376  0  2.00659  0
