# generated using pymatgen
data_Zn2H13C42N2O11F10
_symmetry_space_group_name_H-M   'P 1'
_cell_length_a   16.54721232
_cell_length_b   17.84377711
_cell_length_c   29.01304963
_cell_angle_alpha   90.22117698
_cell_angle_beta   89.85684886
_cell_angle_gamma   89.87396416
_symmetry_Int_Tables_number   1
_chemical_formula_structural   Zn2H13C42N2O11F10
_chemical_formula_sum   'Zn4 H26 C84 N4 O22 F20'
_cell_volume   8566.41990636
_cell_formula_units_Z   2
loop_
 _symmetry_equiv_pos_site_id
 _symmetry_equiv_pos_as_xyz
  1  'x, y, z'
loop_
 _atom_site_type_symbol
 _atom_site_label
 _atom_site_symmetry_multiplicity
 _atom_site_fract_x
 _atom_site_fract_y
 _atom_site_fract_z
 _atom_site_occupancy
 _atom_site_pbe_bader_charge
 _atom_site_pbe_bader_spin_density
 _atom_site_pbe_cm5_charge
 _atom_site_pbe_ddec_charge
 _atom_site_pbe_ddec_spin_density
 _atom_site_pbe_ddec_sum_bond_order
 _atom_site_pbe_magmom
Zn  Zn0  1  0.58651326  0.50720603  0.49672362  1  1.295732  0  0.674192  0.814094  0  2.434847  0
Zn  Zn1  1  0.41745117  0.50623183  0.49914466  1  1.296211  0  0.674206  0.822765  0  2.413194  0
Zn  Zn2  1  0.41715173  0.50843007  0.88053210  1  1.300922  0  0.674289  0.823339  0  2.413055  0
Zn  Zn3  1  0.58620606  0.50931235  0.88251057  1  1.298056  0  0.674171  0.814463  0  2.433128  0
H  H4  1  0.28463653  0.58861718  0.55108160  1  0.123354  0  0.142555  0.144055  0  0.950016  0
H  H5  1  0.29109462  0.41957701  0.45105005  1  0.16579  0  0.140776  0.14315  0  0.955497  0
H  H6  1  0.71587633  0.58355642  0.55122781  1  0.149491  0  0.142439  0.145646  0  0.949507  0
H  H7  1  0.71499009  0.42272071  0.44631147  1  0.133578  0  0.14115  0.14342  0  0.952372  0
H  H8  1  0.62806543  0.74213204  0.49906942  1  0.122846  0  0.116009  0.148176  0  0.98486  0
H  H9  1  0.36689587  0.74501781  0.49816070  1  0.120805  0  0.115665  0.147897  0  0.983265  0
H  H10  1  0.62987179  0.26969898  0.49984580  1  0.114413  0  0.11539  0.147202  0  0.984348  0
H  H11  1  0.36880635  0.26853740  0.50398320  1  0.133279  0  0.115421  0.146933  0  0.984079  0
H  H12  1  0.36867463  0.50021728  0.02699770  1  0.124428  0  0.11543  0.147508  0  0.983928  0
H  H13  1  0.62972008  0.50249310  0.02928523  1  0.118236  0  0.115406  0.147337  0  0.985175  0
H  H14  1  0.36911183  0.49796402  0.35297070  1  0.128572  0  0.115591  0.147416  0  0.984371  0
H  H15  1  0.63014422  0.50039706  0.34975425  1  0.129603  0  0.115593  0.147882  0  0.984332  0
H  H16  1  0.71632330  0.58548341  0.82825430  1  0.144754  0  0.14226  0.14507  0  0.949019  0
H  H17  1  0.71396895  0.42534321  0.93278817  1  0.157031  0  0.140879  0.143301  0  0.952957  0
H  H18  1  0.28475288  0.59046924  0.82861982  1  0.141231  0  0.142567  0.14339  0  0.950649  0
H  H19  1  0.29044587  0.42208613  0.92825670  1  0.159449  0  0.140849  0.143152  0  0.955156  0
H  H20  1  0.36668059  0.74733625  0.87993542  1  0.117717  0  0.115798  0.147577  0  0.984277  0
H  H21  1  0.62785097  0.74408438  0.87957511  1  0.126579  0  0.116016  0.148244  0  0.984474  0
H  H22  1  0.36872085  0.27053026  0.87549668  1  0.09298  0  0.115688  0.147479  0  0.98363  0
H  H23  1  0.62978512  0.27181668  0.87883728  1  0.151417  0  0.11552  0.147868  0  0.98458  0
H  H24  1  0.39303620  0.55112927  0.61150547  1  0.620773  0  0.299678  0.340738  0  1.002554  0
H  H25  1  0.39303561  0.55156083  0.76838915  1  0.619044  0  0.299584  0.340746  0  1.003471  0
H  H26  1  0.60466378  0.41441089  0.57891838  1  0.657378  0  0.29731  0.347924  0  1.012658  0
H  H27  1  0.69529493  0.28943531  0.60884963  1  0.639751  0  0.32141  0.354006  0  0.913011  0
H  H28  1  0.69556415  0.29006289  0.76953798  1  0.612477  0  0.321476  0.354343  0  0.912812  0
H  H29  1  0.60492438  0.41535412  0.80002971  1  0.653114  0  0.297203  0.348232  0  1.012325  0
C  C30  1  0.49738849  0.65110114  0.49804682  1  1.530161  0  0.219276  0.595915  0  4.152999  0
C  C31  1  0.50950258  0.49966547  0.59090714  1  1.467115  0  0.216958  0.605795  0  4.097078  0
C  C32  1  0.49944676  0.36151758  0.50194484  1  1.579829  0  0.218535  0.594482  0  4.152542  0
C  C33  1  0.50190299  0.49946834  0.40826197  1  1.61605  0  0.21816  0.595377  0  4.157352  0
C  C34  1  0.49703049  0.65325228  0.88092733  1  1.599846  0  0.219742  0.597648  0  4.151602  0
C  C35  1  0.50959098  0.50037062  0.78852243  1  1.459469  0  0.217393  0.605119  0  4.096814  0
C  C36  1  0.49926268  0.36354597  0.87754910  1  1.51355  0  0.219276  0.595471  0  4.151605  0
C  C37  1  0.50128457  0.50232018  0.97120541  1  1.605558  0  0.21778  0.595173  0  4.156466  0
C  C38  1  0.25112875  0.55003188  0.52913950  1  0.625114  0  0.049007  -0.049228  0  3.928278  0
C  C39  1  0.16740502  0.54867913  0.52971024  1  0.502774  0  0.127698  0.236926  0  4.029374  0
C  C40  1  0.12327873  0.49956687  0.50109255  1  0.131311  0  0.006883  -0.048484  0  4.121232  0
C  C41  1  0.17080010  0.45273265  0.47258268  1  0.465295  0  0.126583  0.235525  0  4.032409  0
C  C42  1  0.25446942  0.45564920  0.47319357  1  0.587037  0  0.047081  -0.049803  0  3.926893  0
C  C43  1  0.03855540  0.49812507  0.50085884  1  -0.027936  0  -0.015722  -0.035849  0  4.0872  0
C  C44  1  0.96494884  0.49790049  0.50066830  1  -0.176779  0  -0.015666  -0.034577  0  4.087776  0
C  C45  1  0.88023450  0.49906652  0.50021990  1  0.238146  0  0.007348  -0.049096  0  4.123257  0
C  C46  1  0.83468799  0.54601711  0.52970849  1  0.449576  0  0.127167  0.236265  0  4.029449  0
C  C47  1  0.75099538  0.54742931  0.52834502  1  0.648571  0  0.048589  -0.046418  0  3.922007  0
C  C48  1  0.75055299  0.45733038  0.46967349  1  0.637634  0  0.04732  -0.049283  0  3.927363  0
C  C49  1  0.83420072  0.45413398  0.47005029  1  0.454949  0  0.125448  0.234412  0  4.03288  0
C  C50  1  0.49750766  0.73487870  0.49873799  1  -0.019368  0  -0.008872  0.027561  0  3.986087  0
C  C51  1  0.57137584  0.77307968  0.49934898  1  0.084703  0  -0.098547  -0.243588  0  3.993317  0
C  C52  1  0.57087020  0.85049700  0.49999678  1  0.461811  0  0.111476  0.273174  0  4.039941  0
C  C53  1  0.49907140  0.89346286  0.50042493  1  0.176806  0  -0.011098  -0.075188  0  4.124756  0
C  C54  1  0.42641289  0.85200901  0.50002500  1  0.430325  0  0.11201  0.274402  0  4.034522  0
C  C55  1  0.42431536  0.77456181  0.49887311  1  0.115934  0  -0.098451  -0.244526  0  3.98899  0
C  C56  1  0.49991886  0.97218839  0.50084837  1  -0.077099  0  -0.032184  -0.053933  0  4.124044  0
C  C57  1  0.50063570  0.04050856  0.50089690  1  -0.256811  0  -0.031377  -0.051744  0  4.123406  0
C  C58  1  0.50047648  0.11923602  0.50099626  1  0.287728  0  -0.011322  -0.075479  0  4.125668  0
C  C59  1  0.57244244  0.16166086  0.50022606  1  0.363982  0  0.111896  0.272155  0  4.035339  0
C  C60  1  0.57314327  0.23907576  0.50037804  1  0.092855  0  -0.097307  -0.238554  0  3.987666  0
C  C61  1  0.49940825  0.27777716  0.50176894  1  0.044179  0  -0.007124  0.031659  0  3.978728  0
C  C62  1  0.42611278  0.23861332  0.50268362  1  0.105216  0  -0.097969  -0.243131  0  3.985568  0
C  C63  1  0.42797226  0.16115403  0.50196125  1  0.363382  0  0.112282  0.274918  0  4.035212  0
C  C64  1  0.50483515  0.48126060  0.73895573  1  0.00084  0  -0.039134  -0.209214  0  3.94926  0
C  C65  1  0.56100752  0.43239051  0.71463435  1  -0.022952  0  -0.031333  -0.048567  0  4.023682  0
C  C66  1  0.44266142  0.51722122  0.71446132  1  0.648818  0  0.088089  0.221775  0  4.030965  0
C  C67  1  0.61098866  0.37908047  0.73734377  1  0.541021  0  0.049605  0.125352  0  4.101091  0
C  C68  1  0.66138954  0.32919637  0.71327869  1  0.504855  0  0.056661  0.112595  0  4.136391  0
C  C69  1  0.50477599  0.48091480  0.64045437  1  0.025516  0  -0.039092  -0.209129  0  3.947793  0
C  C70  1  0.44265382  0.51707970  0.66521449  1  0.494723  0  0.088527  0.221809  0  4.031106  0
C  C71  1  0.56093818  0.43220034  0.66451613  1  0.088155  0  -0.031841  -0.047971  0  4.02171  0
C  C72  1  0.61086129  0.37871074  0.64153570  1  0.507837  0  0.049513  0.124122  0  4.101708  0
C  C73  1  0.66132406  0.32901800  0.66531470  1  0.620387  0  0.057055  0.113182  0  4.135763  0
C  C74  1  0.49935668  0.50103760  0.02281419  1  -0.000804  0  -0.009236  0.028901  0  3.983334  0
C  C75  1  0.42511533  0.50064196  0.04613543  1  -0.02558  0  -0.099042  -0.245333  0  3.992301  0
C  C76  1  0.42492951  0.50185120  0.09378608  1  0.461833  0  0.110799  0.273518  0  4.03674  0
C  C77  1  0.49633036  0.50247136  0.12035526  1  0.206695  0  -0.012021  -0.076497  0  4.129589  0
C  C78  1  0.56934821  0.50210917  0.09501861  1  0.423364  0  0.110911  0.273174  0  4.040793  0
C  C79  1  0.57212449  0.50178368  0.04742283  1  0.138477  0  -0.098816  -0.244338  0  3.994333  0
C  C80  1  0.49527428  0.50304226  0.16876532  1  -0.307785  0  -0.033473  -0.054684  0  4.130388  0
C  C81  1  0.49534177  0.50271801  0.21077892  1  -0.050976  0  -0.03299  -0.053799  0  4.130548  0
C  C82  1  0.49656010  0.50138683  0.25917204  1  0.195832  0  -0.011862  -0.07713  0  4.130917  0
C  C83  1  0.42521750  0.50044658  0.28598826  1  0.48089  0  0.110417  0.273203  0  4.037836  0
C  C84  1  0.42550043  0.49870406  0.33362562  1  -0.05261  0  -0.099588  -0.245706  0  3.993007  0
C  C85  1  0.49981453  0.49880687  0.35666161  1  0.011117  0  -0.008825  0.029382  0  3.982469  0
C  C86  1  0.57252599  0.49987620  0.33179793  1  0.13158  0  -0.098685  -0.244463  0  3.992976  0
C  C87  1  0.56965191  0.50074944  0.28422465  1  0.404229  0  0.110579  0.272893  0  4.040745  0
C  C88  1  0.75112932  0.54952517  0.85112041  1  0.648033  0  0.048964  -0.045771  0  3.92174  0
C  C89  1  0.83484055  0.54813122  0.84987474  1  0.428224  0  0.126985  0.235407  0  4.029689  0
C  C90  1  0.87996732  0.50133601  0.87931748  1  0.264973  0  0.006671  -0.048544  0  4.122881  0
C  C91  1  0.83350637  0.45666046  0.90933307  1  0.453175  0  0.125851  0.234164  0  4.033911  0
C  C92  1  0.74984933  0.45984404  0.90958734  1  0.613235  0  0.047588  -0.048774  0  3.928255  0
C  C93  1  0.96468714  0.50005067  0.87895799  1  -0.186873  0  -0.015892  -0.035443  0  4.087917  0
C  C94  1  0.03829108  0.50019098  0.87870023  1  -0.022231  0  -0.015362  -0.034498  0  4.087043  0
C  C95  1  0.12301697  0.50166791  0.87843116  1  0.085431  0  0.006951  -0.049641  0  4.123085  0
C  C96  1  0.16735999  0.55053209  0.84987604  1  0.524275  0  0.127076  0.236313  0  4.031791  0
C  C97  1  0.25108177  0.55198146  0.85045608  1  0.604741  0  0.049017  -0.047765  0  3.927708  0
C  C98  1  0.25399406  0.45798043  0.90618700  1  0.593907  0  0.047153  -0.048736  0  3.925187  0
C  C99  1  0.17032657  0.45507357  0.90683487  1  0.478596  0  0.126176  0.234623  0  4.031893  0
C  C100  1  0.49728473  0.73700329  0.87971153  1  0.01812  0  -0.009167  0.026869  0  3.985443  0
C  C101  1  0.42415593  0.77678835  0.87917920  1  0.002847  0  -0.098545  -0.244075  0  3.990211  0
C  C102  1  0.42637974  0.85420554  0.87780717  1  0.444425  0  0.112119  0.274601  0  4.036121  0
C  C103  1  0.49911380  0.89553721  0.87748389  1  0.176157  0  -0.011196  -0.077559  0  4.129738  0
C  C104  1  0.57084882  0.85250944  0.87813689  1  0.384058  0  0.111696  0.275095  0  4.03959  0
C  C105  1  0.57121957  0.77510771  0.87906860  1  0.090907  0  -0.098385  -0.243872  0  3.992729  0
C  C106  1  0.50005656  0.97424322  0.87705823  1  0.116162  0  -0.032454  -0.053346  0  4.125695  0
C  C107  1  0.50069418  0.04256049  0.87722852  1  -0.318846  0  -0.031938  -0.052271  0  4.12544  0
C  C108  1  0.50046304  0.12127893  0.87740068  1  0.200694  0  -0.010699  -0.076342  0  4.126882  0
C  C109  1  0.42792934  0.16317121  0.87683116  1  0.426086  0  0.112321  0.275546  0  4.035746  0
C  C110  1  0.42603046  0.24061954  0.87651195  1  0.102165  0  -0.097893  -0.243129  0  3.987159  0
C  C111  1  0.49931001  0.27979208  0.87740167  1  0.030752  0  -0.007043  0.031647  0  3.979529  0
C  C112  1  0.57307950  0.24115615  0.87833020  1  0.038297  0  -0.098203  -0.241926  0  3.990052  0
C  C113  1  0.57240771  0.16374524  0.87809133  1  0.45143  0  0.112861  0.276364  0  4.032649  0
N  N114  1  0.29305989  0.50391795  0.50118329  1  -1.232415  0  -0.309498  -0.138751  0  3.562271  0
N  N115  1  0.71061467  0.50365326  0.49847835  1  -1.21918  0  -0.311578  -0.140317  0  3.564654  0
N  N116  1  0.71031823  0.50594437  0.88080906  1  -1.220958  0  -0.311476  -0.140252  0  3.566023  0
N  N117  1  0.29280229  0.50608639  0.87831699  1  -1.216147  0  -0.309284  -0.139394  0  3.562689  0
O  O118  1  0.56530447  0.61846056  0.50347267  1  -1.171949  0  -0.31556  -0.540005  0  2.335592  0
O  O119  1  0.42960547  0.61864188  0.49212607  1  -1.157452  0  -0.317594  -0.541024  0  2.321686  0
O  O120  1  0.44536365  0.52394149  0.57041678  1  -1.176865  0  -0.312317  -0.555274  0  2.355624  0
O  O121  1  0.57730266  0.49506873  0.56917668  1  -1.16736  0  -0.314134  -0.548142  0  2.379075  0
O  O122  1  0.43253411  0.39459479  0.51030714  1  -1.160522  0  -0.316908  -0.542733  0  2.319063  0
O  O123  1  0.56647610  0.39385722  0.49357887  1  -1.166587  0  -0.315129  -0.547914  0  2.344496  0
O  O124  1  0.57039110  0.51112544  0.42692993  1  -1.159347  0  -0.318717  -0.542608  0  2.312781  0
O  O125  1  0.43531266  0.48899507  0.42946335  1  -1.171598  0  -0.318792  -0.551696  0  2.314029  0
O  O126  1  0.42916001  0.62104047  0.88702677  1  -1.161403  0  -0.317328  -0.541427  0  2.322249  0
O  O127  1  0.56497883  0.62041083  0.87571257  1  -1.164114  0  -0.316081  -0.541083  0  2.334831  0
O  O128  1  0.57739258  0.49602200  0.81005489  1  -1.167025  0  -0.313847  -0.546919  0  2.376546  0
O  O129  1  0.44541977  0.52474727  0.80923177  1  -1.169493  0  -0.312781  -0.555337  0  2.358167  0
O  O130  1  0.56630505  0.39598782  0.88569803  1  -1.166695  0  -0.315341  -0.548225  0  2.342883  0
O  O131  1  0.43228065  0.39654099  0.86960826  1  -1.166757  0  -0.317339  -0.543523  0  2.320413  0
O  O132  1  0.43456537  0.49235457  0.95017902  1  -1.168112  0  -0.31877  -0.551301  0  2.312156  0
O  O133  1  0.56974875  0.51395395  0.95237089  1  -1.161745  0  -0.318042  -0.542672  0  2.314328  0
O  O134  1  0.38345923  0.55753388  0.64573219  1  -1.123355  0  -0.352425  -0.416994  0  2.288686  0
O  O135  1  0.38341678  0.55773383  0.73420711  1  -1.111804  0  -0.352427  -0.417243  0  2.289277  0
O  O136  1  0.61225395  0.36512812  0.59500622  1  -1.197444  0  -0.376537  -0.479309  0  2.368797  0
O  O137  1  0.70787531  0.27938208  0.64135448  1  -1.130864  0  -0.355361  -0.402081  0  2.247761  0
O  O138  1  0.70802993  0.27976149  0.73696642  1  -1.118399  0  -0.355226  -0.402309  0  2.249385  0
O  O139  1  0.61256896  0.36593416  0.78384681  1  -1.185525  0  -0.376351  -0.479922  0  2.368152  0
F  F140  1  0.13357183  0.40429732  0.44404791  1  -0.615478  0  -0.077019  -0.109405  0  1.334177  0
F  F141  1  0.12685013  0.59542331  0.55796692  1  -0.616647  0  -0.074564  -0.106625  0  1.335355  0
F  F142  1  0.87286804  0.40740901  0.44086030  1  -0.61701  0  -0.077276  -0.109682  0  1.333049  0
F  F143  1  0.87393059  0.59059954  0.55966252  1  -0.616929  0  -0.076092  -0.108444  0  1.335967  0
F  F144  1  0.35593823  0.89084995  0.50068794  1  -0.61957  0  -0.097783  -0.135842  0  1.318036  0
F  F145  1  0.64215613  0.88773155  0.50021040  1  -0.62196  0  -0.09799  -0.135638  0  1.318881  0
F  F146  1  0.35738387  0.12275229  0.50224685  1  -0.624445  0  -0.098554  -0.136866  0  1.318025  0
F  F147  1  0.64358128  0.12388611  0.49923043  1  -0.625788  0  -0.097745  -0.135143  0  1.317212  0
F  F148  1  0.63950312  0.50235580  0.11904918  1  -0.623012  0  -0.098528  -0.136319  0  1.319289  0
F  F149  1  0.35332255  0.50252133  0.11659771  1  -0.623523  0  -0.099177  -0.137197  0  1.316949  0
F  F150  1  0.63974910  0.50142602  0.25994990  1  -0.62024  0  -0.098255  -0.135882  0  1.318133  0
F  F151  1  0.35356750  0.50143456  0.26342879  1  -0.621506  0  -0.098791  -0.13673  0  1.317316  0
F  F152  1  0.87181104  0.41009304  0.93844084  1  -0.615757  0  -0.077536  -0.109988  0  1.334022  0
F  F153  1  0.87447616  0.59251239  0.82007702  1  -0.616012  0  -0.075852  -0.108061  0  1.335186  0
F  F154  1  0.13291422  0.40690436  0.93533436  1  -0.612885  0  -0.076928  -0.108974  0  1.333733  0
F  F155  1  0.12698041  0.59702144  0.82171375  1  -0.614199  0  -0.073988  -0.106183  0  1.336922  0
F  F156  1  0.64219436  0.88965799  0.87794488  1  -0.620689  0  -0.098022  -0.136009  0  1.31797  0
F  F157  1  0.35597931  0.89312107  0.87694262  1  -0.62673  0  -0.097752  -0.135485  0  1.31864  0
F  F158  1  0.64356936  0.12600573  0.87863404  1  -0.620515  0  -0.098475  -0.136616  0  1.315927  0
F  F159  1  0.35736488  0.12473746  0.87648761  1  -0.61811  0  -0.098498  -0.136914  0  1.317635  0
