# generated using pymatgen
data_Ag3H8C18(NO)3
_symmetry_space_group_name_H-M   'P 1'
_cell_length_a   6.85279304
_cell_length_b   11.83409752
_cell_length_c   11.83402905
_cell_angle_alpha   69.94169280
_cell_angle_beta   80.00290038
_cell_angle_gamma   80.00193042
_symmetry_Int_Tables_number   1
_chemical_formula_structural   Ag3H8C18(NO)3
_chemical_formula_sum   'Ag6 H16 C36 N6 O6'
_cell_volume   881.02470029
_cell_formula_units_Z   2
loop_
 _symmetry_equiv_pos_site_id
 _symmetry_equiv_pos_as_xyz
  1  'x, y, z'
loop_
 _atom_site_type_symbol
 _atom_site_label
 _atom_site_symmetry_multiplicity
 _atom_site_fract_x
 _atom_site_fract_y
 _atom_site_fract_z
 _atom_site_occupancy
 _atom_site_hle17_bader_spin_density
 _atom_site_hle17_ddec_charge
 _atom_site_hle17_ddec_spin_density
 _atom_site_hle17_ddec_sum_bond_order
 _atom_site_hle17_magmom
 _atom_site_hse06_10hf_bader_spin_density
 _atom_site_hse06_10hf_ddec_charge
 _atom_site_hse06_10hf_ddec_spin_density
 _atom_site_hse06_10hf_ddec_sum_bond_order
 _atom_site_hse06_10hf_magmom
 _atom_site_hse06_bader_spin_density
 _atom_site_hse06_ddec_charge
 _atom_site_hse06_ddec_spin_density
 _atom_site_hse06_ddec_sum_bond_order
 _atom_site_hse06_magmom
 _atom_site_pbe_bader_spin_density
 _atom_site_pbe_cm5_charge
 _atom_site_pbe_ddec_charge
 _atom_site_pbe_ddec_spin_density
 _atom_site_pbe_ddec_sum_bond_order
 _atom_site_pbe_magmom
Ag  Ag0  1  0.51969737  0.52186749  0.66701617  1  0  0.549796  0  1.778746  0  0  0.476897  0  2.259111  0  0  0.487485  0  2.217301  0  0  0.416474  0.470742  0  2.287084  0
Ag  Ag1  1  0.98031438  0.33299235  0.47812557  1  0  0.549795  0  1.778538  0  0  0.476889  0  2.258886  0  0  0.487484  0  2.217072  0  0  0.416463  0.470729  0  2.28686  0
Ag  Ag2  1  0.48030038  0.47813074  0.33298864  1  0  0.54973  0  1.778603  0  0  0.476828  0  2.25897  0  0  0.487421  0  2.217154  0  0  0.416436  0.470668  0  2.286946  0
Ag  Ag3  1  0.01968663  0.66700411  0.52187275  1  0  0.549742  0  1.778627  0  0  0.476852  0  2.258984  0  0  0.48744  0  2.217175  0  0  0.416435  0.470697  0  2.286957  0
Ag  Ag4  1  0.25000815  0.41841238  0.58158906  1  0  0.388015  0  2.166695  0  0  0.292247  0  2.695991  0  0  0.313919  0  2.639028  0  0  0.325303  0.276189  0  2.735059  0
Ag  Ag5  1  0.74999048  0.58158857  0.41841388  1  0  0.38795  0  2.166817  0  0  0.292181  0  2.696117  0  0  0.313852  0  2.639154  0  0  0.325279  0.276122  0  2.735185  0
H  H6  1  0.31325326  0.70910271  0.84489847  1  0  0.099431  0  0.963713  0  0  0.108353  0  1.027434  0  0  0.110711  0  1.027889  0  0  0.102009  0.106666  0  1.027203  0
H  H7  1  0.18674153  0.15509659  0.29089848  1  0  0.099514  0  0.963653  0  0  0.108415  0  1.027378  0  0  0.110773  0  1.027832  0  0  0.10205  0.106729  0  1.027149  0
H  H8  1  0.68675699  0.29089921  0.15509956  1  0  0.099464  0  0.963777  0  0  0.108375  0  1.027494  0  0  0.110734  0  1.027946  0  0  0.102041  0.10669  0  1.027266  0
H  H9  1  0.81325301  0.84490255  0.70910213  1  0  0.099466  0  0.96389  0  0  0.108416  0  1.027568  0  0  0.110772  0  1.028026  0  0  0.102045  0.10673  0  1.02734  0
H  H10  1  0.18166212  0.80498698  0.00454332  1  0  0.103874  0  0.945834  0  0  0.114007  0  1.003975  0  0  0.117269  0  1.001867  0  0  0.108027  0.111461  0  1.005828  0
H  H11  1  0.31832915  0.99545427  0.19501548  1  0  0.103889  0  0.945782  0  0  0.114065  0  1.003876  0  0  0.117332  0  1.001767  0  0  0.108081  0.11152  0  1.005728  0
H  H12  1  0.81834440  0.19501855  0.99545471  1  0  0.103835  0  0.945729  0  0  0.11397  0  1.003888  0  0  0.117241  0  1.001776  0  0  0.108019  0.111423  0  1.00574  0
H  H13  1  0.68165708  0.00454212  0.80498609  1  0  0.103983  0  0.945898  0  0  0.114112  0  1.004014  0  0  0.117376  0  1.001907  0  0  0.108083  0.111567  0  1.005869  0
H  H14  1  0.83661578  0.78348296  0.10898249  1  0  0.097731  0  0.95798  0  0  0.109491  0  1.017054  0  0  0.112335  0  1.015522  0  0  0.106202  0.107551  0  1.017912  0
H  H15  1  0.66337849  0.89102356  0.21651497  1  0  0.097724  0  0.95807  0  0  0.109504  0  1.017119  0  0  0.11235  0  1.015584  0  0  0.106186  0.107565  0  1.017978  0
H  H16  1  0.16338731  0.21651801  0.89102083  1  0  0.097757  0  0.958016  0  0  0.109526  0  1.017079  0  0  0.112371  0  1.015545  0  0  0.106212  0.107589  0  1.017937  0
H  H17  1  0.33661672  0.10897922  0.78348180  1  0  0.097732  0  0.95788  0  0  0.109526  0  1.016922  0  0  0.11237  0  1.015389  0  0  0.106222  0.107584  0  1.01778  0
H  H18  1  0.61821445  0.66944555  0.05254500  1  0  0.118488  0  0.961551  0  0  0.126606  0  1.026267  0  0  0.13024  0  1.023347  0  0  0.109196  0.124014  0  1.028326  0
H  H19  1  0.88178388  0.94745870  0.33055062  1  0  0.118452  0  0.961636  0  0  0.126559  0  1.026363  0  0  0.130194  0  1.023442  0  0  0.109156  0.123968  0  1.028422  0
H  H20  1  0.38178605  0.33055360  0.94745836  1  0  0.118446  0  0.961618  0  0  0.126542  0  1.026365  0  0  0.130177  0  1.023444  0  0  0.109168  0.123952  0  1.028424  0
H  H21  1  0.11821024  0.05254226  0.66944688  1  0  0.118545  0  0.961445  0  0  0.126591  0  1.026248  0  0  0.130224  0  1.023328  0  0  0.109191  0.124  0  1.028305  0
C  C22  1  0.17648819  0.52954501  0.68780013  1  0  -0.509888  0  3.823109  0  0  -0.458185  0  4.186863  0  0  -0.470259  0  4.198596  0  0  -0.294412  -0.450671  0  4.179077  0
C  C23  1  0.32351437  0.31219419  0.47046074  1  0  -0.510019  0  3.822864  0  0  -0.458327  0  4.186633  0  0  -0.470399  0  4.198361  0  0  -0.294502  -0.450808  0  4.178845  0
C  C24  1  0.82351086  0.47046051  0.31219362  1  0  -0.50997  0  3.823306  0  0  -0.458275  0  4.187053  0  0  -0.470349  0  4.198781  0  0  -0.294483  -0.450754  0  4.179263  0
C  C25  1  0.67649082  0.68779042  0.52955552  1  0  -0.510102  0  3.823161  0  0  -0.458429  0  4.186984  0  0  -0.47049  0  4.198677  0  0  -0.294478  -0.450912  0  4.179203  0
C  C26  1  0.11449904  0.58023455  0.76586595  1  0  0.002366  0  3.8801  0  0  0.010094  0  4.119415  0  0  0.008108  0  4.15276  0  0  -0.05686  0.011541  0  4.097067  0
C  C27  1  0.38549486  0.23413187  0.41976427  1  0  0.00252  0  3.879945  0  0  0.010271  0  4.119236  0  0  0.008285  0  4.152581  0  0  -0.056738  0.011715  0  4.096888  0
C  C28  1  0.88547612  0.41976539  0.23414147  1  0  0.002434  0  3.88019  0  0  0.010168  0  4.119493  0  0  0.008186  0  4.152835  0  0  -0.056807  0.011613  0  4.097144  0
C  C29  1  0.61451817  0.76585733  0.58024370  1  0  0.002627  0  3.879807  0  0  0.010367  0  4.119112  0  0  0.00839  0  4.152451  0  0  -0.056769  0.011811  0  4.09677  0
C  C30  1  0.04151268  0.63605111  0.85572981  1  0  0.077238  0  3.856699  0  0  0.084029  0  4.084439  0  0  0.086937  0  4.105418  0  0  0.005773  0.081968  0  4.070404  0
C  C31  1  0.45848093  0.14426792  0.36395255  1  0  0.07732  0  3.85673  0  0  0.084089  0  4.084485  0  0  0.086998  0  4.105463  0  0  0.005818  0.082033  0  4.070449  0
C  C32  1  0.95848384  0.36395257  0.14426820  1  0  0.077226  0  3.856703  0  0  0.08402  0  4.084445  0  0  0.086927  0  4.105422  0  0  0.005782  0.081962  0  4.070409  0
C  C33  1  0.54152270  0.85573034  0.63604825  1  0  0.077184  0  3.857053  0  0  0.083967  0  4.084816  0  0  0.08687  0  4.105799  0  0  0.00575  0.081908  0  4.07078  0
C  C34  1  0.16072574  0.70206605  0.88913682  1  0  -0.103008  0  3.697284  0  0  -0.121512  0  3.944402  0  0  -0.125416  0  3.965178  0  0  -0.079729  -0.118607  0  3.93014  0
C  C35  1  0.33926781  0.11085790  0.29793077  1  0  -0.103154  0  3.697325  0  0  -0.121649  0  3.944492  0  0  -0.125552  0  3.965267  0  0  -0.07977  -0.118745  0  3.930231  0
C  C36  1  0.83927264  0.29793583  0.11086077  1  0  -0.103114  0  3.697516  0  0  -0.12163  0  3.944672  0  0  -0.125536  0  3.965452  0  0  -0.079792  -0.118724  0  3.930411  0
C  C37  1  0.66073958  0.88913590  0.70205848  1  0  -0.103053  0  3.697143  0  0  -0.121611  0  3.944287  0  0  -0.125517  0  3.965062  0  0  -0.079746  -0.118705  0  3.93003  0
C  C38  1  0.08626416  0.75551912  0.97867974  1  0  -0.02789  0  3.710762  0  0  -0.043395  0  3.954791  0  0  -0.04304  0  3.974749  0  0  -0.071593  -0.043569  0  3.941369  0
C  C39  1  0.41374829  0.02132617  0.24447672  1  0  -0.027955  0  3.711171  0  0  -0.04349  0  3.95515  0  0  -0.043154  0  3.975138  0  0  -0.071691  -0.04366  0  3.941726  0
C  C40  1  0.91375562  0.24448009  0.02132412  1  0  -0.027805  0  3.710846  0  0  -0.043277  0  3.954805  0  0  -0.042944  0  3.974796  0  0  -0.071586  -0.043448  0  3.941382  0
C  C41  1  0.58625230  0.97868657  0.75552540  1  0  -0.028063  0  3.710631  0  0  -0.043544  0  3.954647  0  0  -0.043191  0  3.974606  0  0  -0.071699  -0.043721  0  3.941228  0
C  C42  1  0.89180052  0.74370997  0.03735545  1  0  -0.047962  0  3.714161  0  0  -0.05896  0  3.956744  0  0  -0.061949  0  3.978413  0  0  -0.076113  -0.056814  0  3.941815  0
C  C43  1  0.60819966  0.96264611  0.25628432  1  0  -0.047885  0  3.714241  0  0  -0.058902  0  3.956814  0  0  -0.061892  0  3.978486  0  0  -0.076052  -0.056755  0  3.941877  0
C  C44  1  0.10820680  0.25629193  0.96264543  1  0  -0.048023  0  3.714399  0  0  -0.059052  0  3.956996  0  0  -0.062042  0  3.978666  0  0  -0.076124  -0.056909  0  3.942067  0
C  C45  1  0.39179033  0.03734582  0.74370485  1  0  -0.047936  0  3.714725  0  0  -0.058974  0  3.957305  0  0  -0.061967  0  3.978981  0  0  -0.076134  -0.056827  0  3.942382  0
C  C46  1  0.76928208  0.67939931  0.00633307  1  0  -0.062934  0  3.691158  0  0  -0.085963  0  3.933059  0  0  -0.086262  0  3.95276  0  0  -0.067638  -0.085821  0  3.91991  0
C  C47  1  0.73072634  0.99366658  0.32060637  1  0  -0.063041  0  3.690951  0  0  -0.086065  0  3.932889  0  0  -0.086361  0  3.952573  0  0  -0.067666  -0.085919  0  3.919746  0
C  C48  1  0.23072722  0.32060713  0.99366606  1  0  -0.062929  0  3.690893  0  0  -0.085942  0  3.932826  0  0  -0.086236  0  3.952507  0  0  -0.067639  -0.085805  0  3.919699  0
C  C49  1  0.26927985  0.00634074  0.67939616  1  0  -0.063091  0  3.690865  0  0  -0.086069  0  3.932801  0  0  -0.086361  0  3.952484  0  0  -0.067736  -0.085925  0  3.919653  0
C  C50  1  0.84281134  0.62602647  0.91587500  1  0  -0.034489  0  3.848713  0  0  -0.014508  0  4.07514  0  0  -0.018671  0  4.09575  0  0  0.00344  -0.011852  0  4.061625  0
C  C51  1  0.65717828  0.08412812  0.37397217  1  0  -0.034445  0  3.848664  0  0  -0.014475  0  4.075101  0  0  -0.018634  0  4.095714  0  0  0.003436  -0.011831  0  4.061605  0
C  C52  1  0.15717692  0.37397445  0.08412820  1  0  -0.034366  0  3.848395  0  0  -0.0144  0  4.074825  0  0  -0.018556  0  4.095429  0  0  0.003537  -0.01175  0  4.061318  0
C  C53  1  0.34283074  0.91587203  0.62601645  1  0  -0.034386  0  3.848136  0  0  -0.014388  0  4.074511  0  0  -0.018545  0  4.095119  0  0  0.003628  -0.01174  0  4.061013  0
C  C54  1  0.71876396  0.56310184  0.88074952  1  0  0.318607  0  3.72316  0  0  0.301332  0  3.986048  0  0  0.313676  0  4.004427  0  0  0.209408  0.292795  0  3.974164  0
C  C55  1  0.78123387  0.11924317  0.43690686  1  0  0.318577  0  3.723015  0  0  0.301319  0  3.985888  0  0  0.31366  0  4.004267  0  0  0.209388  0.292786  0  3.974007  0
C  C56  1  0.28123121  0.43690818  0.11924732  1  0  0.318597  0  3.723569  0  0  0.301336  0  3.986445  0  0  0.313674  0  4.004822  0  0  0.209383  0.2928  0  3.974563  0
C  C57  1  0.21876304  0.88075147  0.56308827  1  0  0.31858  0  3.72341  0  0  0.301313  0  3.986296  0  0  0.313648  0  4.004676  0  0  0.209337  0.292777  0  3.974418  0
N  N58  1  0.61736829  0.51321774  0.84852142  1  0  -0.411078  0  2.801149  0  0  -0.369608  0  3.07713  0  0  -0.382502  0  3.085423  0  0  -0.33026  -0.361409  0  3.072034  0
N  N59  1  0.88263475  0.15148430  0.48677605  1  0  -0.411046  0  2.801072  0  0  -0.369579  0  3.077046  0  0  -0.382473  0  3.085338  0  0  -0.330227  -0.361377  0  3.071948  0
N  N60  1  0.38261983  0.48677683  0.15148310  1  0  -0.411031  0  2.801684  0  0  -0.369595  0  3.077704  0  0  -0.382487  0  3.085995  0  0  -0.330253  -0.361395  0  3.072608  0
N  N61  1  0.11736958  0.84851759  0.51322345  1  0  -0.410961  0  2.801492  0  0  -0.369522  0  3.077521  0  0  -0.382413  0  3.085816  0  0  -0.3302  -0.361325  0  3.072428  0
N  N62  1  0.74999951  0.25264854  0.74735212  1  0  0.7007  0  4.117684  0  0  0.745804  0  4.380836  0  0  0.775225  0  4.387478  0  0  0.098944  0.725718  0  4.375975  0
N  N63  1  0.24999632  0.74735150  0.25264889  1  0  0.700651  0  4.117664  0  0  0.745741  0  4.380877  0  0  0.775162  0  4.387523  0  0  0.098913  0.725656  0  4.376014  0
O  O64  1  0.74999982  0.34932645  0.65067559  1  0  -0.540642  0  1.970063  0  0  -0.508298  0  2.254971  0  0  -0.529573  0  2.239786  0  0  -0.23718  -0.49283  0  2.264647  0
O  O65  1  0.24999601  0.65067359  0.34932542  1  0  -0.540628  0  1.970059  0  0  -0.508296  0  2.254978  0  0  -0.529574  0  2.239791  0  0  -0.237193  -0.492827  0  2.264652  0
O  O66  1  0.59637208  0.24005432  0.82288503  1  0  -0.444277  0  1.74675  0  0  -0.443476  0  1.955422  0  0  -0.458374  0  1.948572  0  0  -0.177432  -0.432456  0  1.959712  0
O  O67  1  0.90363641  0.17710973  0.75994786  1  0  -0.4443  0  1.746459  0  0  -0.443502  0  1.955129  0  0  -0.4584  0  1.948276  0  0  -0.177456  -0.43248  0  1.959416  0
O  O68  1  0.40363429  0.75994487  0.17711348  1  0  -0.444271  0  1.746552  0  0  -0.443476  0  1.955248  0  0  -0.458368  0  1.948394  0  0  -0.177438  -0.432455  0  1.959533  0
O  O69  1  0.09636866  0.82288855  0.24005025  1  0  -0.444244  0  1.746635  0  0  -0.443432  0  1.955315  0  0  -0.458326  0  1.948463  0  0  -0.177416  -0.432415  0  1.959603  0
