# generated using pymatgen
data_ZnH8C7N6
_symmetry_space_group_name_H-M   'P 1'
_cell_length_a   10.66928420
_cell_length_b   12.30541004
_cell_length_c   17.19868349
_cell_angle_alpha   89.99997585
_cell_angle_beta   95.39922558
_cell_angle_gamma   90.00000201
_symmetry_Int_Tables_number   1
_chemical_formula_structural   ZnH8C7N6
_chemical_formula_sum   'Zn8 H64 C56 N48'
_cell_volume   2247.99545323
_cell_formula_units_Z   8
loop_
 _symmetry_equiv_pos_site_id
 _symmetry_equiv_pos_as_xyz
  1  'x, y, z'
loop_
 _atom_site_type_symbol
 _atom_site_label
 _atom_site_symmetry_multiplicity
 _atom_site_fract_x
 _atom_site_fract_y
 _atom_site_fract_z
 _atom_site_occupancy
 _atom_site_pbe_bader_charge
 _atom_site_pbe_bader_spin_density
 _atom_site_pbe_cm5_charge
 _atom_site_pbe_ddec_charge
 _atom_site_pbe_ddec_spin_density
 _atom_site_pbe_ddec_sum_bond_order
 _atom_site_pbe_magmom
Zn  Zn0  1  0.72730992  0.73717885  0.60135088  1  1.18998  0  0.736282  0.665623  0  2.512908  0
Zn  Zn1  1  0.77269113  0.23717998  0.89864955  1  1.189935  0  0.736264  0.665572  0  2.51293  0
Zn  Zn2  1  0.27268953  0.26282087  0.39864967  1  1.189928  0  0.73624  0.665567  0  2.512885  0
Zn  Zn3  1  0.22730925  0.76282055  0.10135047  1  1.189975  0  0.736265  0.665623  0  2.512854  0
Zn  Zn4  1  0.20655216  0.74602458  0.45565249  1  1.192892  0  0.743693  0.668508  0  2.521636  0
Zn  Zn5  1  0.29344850  0.24602511  0.04434718  1  1.192901  0  0.743696  0.668562  0  2.521527  0
Zn  Zn6  1  0.79344729  0.25397595  0.54434805  1  1.192897  0  0.743732  0.668611  0  2.521555  0
Zn  Zn7  1  0.70655282  0.75397704  0.95565289  1  1.192913  0  0.743715  0.668565  0  2.521575  0
H  H8  1  0.06351163  0.63621279  0.20503537  1  0.052153  0  0.100712  0.142813  0  1.029197  0
H  H9  1  0.43648998  0.13621318  0.29496556  1  0.052134  0  0.100695  0.142804  0  1.029197  0
H  H10  1  0.93648970  0.36378611  0.79496471  1  0.052151  0  0.100714  0.142831  0  1.029194  0
H  H11  1  0.56351041  0.86378654  0.70503562  1  0.052156  0  0.100719  0.142852  0  1.029191  0
H  H12  1  0.99795200  0.68440215  0.28992387  1  0.063234  0  0.101686  0.148542  0  0.984628  0
H  H13  1  0.50204978  0.18440177  0.21007624  1  0.06297  0  0.101674  0.148537  0  0.984612  0
H  H14  1  0.00204933  0.31559675  0.71007620  1  0.063217  0  0.101683  0.148544  0  0.984627  0
H  H15  1  0.49795249  0.81559633  0.78992447  1  0.063234  0  0.101683  0.148542  0  0.984653  0
H  H16  1  0.11553955  0.58181474  0.29804220  1  0.091588  0  0.102066  0.155196  0  1.00402  0
H  H17  1  0.38445923  0.08181599  0.20195799  1  0.091604  0  0.102068  0.155189  0  1.00404  0
H  H18  1  0.88445895  0.41818335  0.70195771  1  0.091623  0  0.10206  0.155182  0  1.003996  0
H  H19  1  0.61554022  0.91818454  0.79804256  1  0.091597  0  0.102055  0.155184  0  1.003985  0
H  H20  1  0.48969204  0.94880128  0.35345150  1  0.121653  0  0.120695  0.151465  0  0.942945  0
H  H21  1  0.01030768  0.44879930  0.14654922  1  0.121633  0  0.12071  0.151466  0  0.942915  0
H  H22  1  0.51030741  0.05119925  0.64654962  1  0.121635  0  0.12071  0.151479  0  0.942921  0
H  H23  1  0.98969270  0.55119798  0.85345138  1  0.121635  0  0.120689  0.151459  0  0.94298  0
H  H24  1  0.35657500  0.99445436  0.39814470  1  0.10515  0  0.108805  0.128483  0  0.992688  0
H  H25  1  0.14342377  0.49445404  0.10185595  1  0.105171  0  0.108795  0.12847  0  0.992704  0
H  H26  1  0.64342350  0.00554536  0.60185579  1  0.105156  0  0.108781  0.12846  0  0.992704  0
H  H27  1  0.85657567  0.50554487  0.89814401  1  0.10525  0  0.108781  0.128469  0  0.992692  0
H  H28  1  0.48027539  0.67771717  0.66648419  1  0.058741  0  0.096095  0.13533  0  1.030742  0
H  H29  1  0.01972360  0.17771834  0.83351578  1  0.058729  0  0.096094  0.135309  0  1.030747  0
H  H30  1  0.51972311  0.32228255  0.33351688  1  0.058719  0  0.096118  0.135369  0  1.030735  0
H  H31  1  0.98027584  0.82228219  0.16648302  1  0.058731  0  0.096115  0.135363  0  1.030756  0
H  H32  1  0.35349721  0.62865665  0.60062427  1  0.083458  0  0.100266  0.149605  0  1.013714  0
H  H33  1  0.14650084  0.12865778  0.89937624  1  0.083486  0  0.10028  0.149623  0  1.013721  0
H  H34  1  0.64650129  0.37134306  0.39937680  1  0.083469  0  0.100268  0.149616  0  1.01374  0
H  H35  1  0.85349860  0.87134193  0.10062372  1  0.083486  0  0.100277  0.149626  0  1.013726  0
H  H36  1  0.33318733  0.74808378  0.65474799  1  0.072731  0  0.106879  0.159847  0  0.968598  0
H  H37  1  0.16681167  0.24808332  0.84525021  1  0.072713  0  0.106881  0.15983  0  0.968606  0
H  H38  1  0.66681118  0.25191512  0.34525191  1  0.072728  0  0.106877  0.159832  0  0.968625  0
H  H39  1  0.83318872  0.75191559  0.15474806  1  0.072731  0  0.106871  0.159811  0  0.968664  0
H  H40  1  0.02696389  0.00026148  0.67611168  1  0.051616  0  0.102929  0.152827  0  0.974311  0
H  H41  1  0.47303510  0.50026184  0.82388834  1  0.0516  0  0.102941  0.152859  0  0.974288  0
H  H42  1  0.97303461  0.99973824  0.32388939  1  0.051591  0  0.102954  0.152843  0  0.974312  0
H  H43  1  0.52696340  0.49973787  0.17611157  1  0.051605  0  0.10296  0.15288  0  0.974292  0
H  H44  1  0.92670778  0.90049804  0.71355391  1  0.037694  0  0.094226  0.137357  0  1.011729  0
H  H45  1  0.57329045  0.40049923  0.78644455  1  0.037743  0  0.094205  0.137324  0  1.011758  0
H  H46  1  0.07328978  0.09950168  0.28644652  1  0.037725  0  0.094208  0.1373  0  1.01168  0
H  H47  1  0.42670806  0.59950130  0.21355419  1  0.037769  0  0.094219  0.13735  0  1.011717  0
H  H48  1  0.86257607  0.00029888  0.64659763  1  0.054167  0  0.092968  0.136978  0  1.023888  0
H  H49  1  0.63742310  0.50030084  0.85340044  1  0.054144  0  0.09296  0.136992  0  1.023887  0
H  H50  1  0.13742243  0.99970003  0.35340345  1  0.054166  0  0.093004  0.137012  0  1.023865  0
H  H51  1  0.36257634  0.49969969  0.14659720  1  0.05415  0  0.092995  0.137019  0  1.023871  0
H  H52  1  0.96304237  0.62808136  0.42280991  1  0.071972  0  0.113276  0.13202  0  0.998134  0
H  H53  1  0.53696035  0.12808267  0.07719143  1  0.071684  0  0.113302  0.13206  0  0.998134  0
H  H54  1  0.03695707  0.37191917  0.57719121  1  0.071949  0  0.113282  0.13201  0  0.998128  0
H  H55  1  0.46304286  0.87191786  0.92280934  1  0.071979  0  0.113297  0.132028  0  0.998123  0
H  H56  1  0.81861860  0.70134588  0.41124081  1  0.057952  0  0.112098  0.133311  0  0.948975  0
H  H57  1  0.68138412  0.20134720  0.08875934  1  0.058368  0  0.112144  0.133398  0  0.949027  0
H  H58  1  0.18138085  0.29865465  0.58875915  1  0.057962  0  0.112091  0.133324  0  0.948958  0
H  H59  1  0.31861815  0.79865415  0.91124078  1  0.057947  0  0.112093  0.133308  0  0.948978  0
H  H60  1  0.61547105  0.37680401  0.63886479  1  0.05045  0  0.099635  0.146083  0  1.01927  0
H  H61  1  0.88452906  0.87680516  0.86113379  1  0.050464  0  0.099632  0.146074  0  1.019302  0
H  H62  1  0.38452839  0.62319490  0.36113459  1  0.05046  0  0.099642  0.146091  0  1.019274  0
H  H63  1  0.11547133  0.12319537  0.13886564  1  0.05047  0  0.099629  0.146072  0  1.019316  0
H  H64  1  0.52450133  0.49067669  0.60430999  1  0.063553  0  0.100669  0.151341  0  0.984887  0
H  H65  1  0.97549878  0.99067783  0.89568856  1  0.063564  0  0.100661  0.151318  0  0.984841  0
H  H66  1  0.47549717  0.50932221  0.39568934  1  0.063577  0  0.100657  0.151297  0  0.984897  0
H  H67  1  0.02450255  0.00932189  0.10430977  1  0.06358  0  0.100642  0.151291  0  0.984906  0
H  H68  1  0.64303499  0.50687605  0.68316078  1  0.06908  0  0.098666  0.143934  0  1.020262  0
H  H69  1  0.85696418  0.00687642  0.81683786  1  0.069044  0  0.098644  0.143898  0  1.020298  0
H  H70  1  0.35696257  0.49312367  0.31683907  1  0.069078  0  0.098653  0.143917  0  1.020286  0
H  H71  1  0.14303621  0.99312329  0.18316100  1  0.069073  0  0.098648  0.143925  0  1.02026  0
C  C72  1  0.08508792  0.65666882  0.26681764  1  -0.039803  0  -0.231528  -0.467578  0  3.93329  0
C  C73  1  0.41491180  0.15666924  0.23318316  1  -0.039543  0  -0.231491  -0.467534  0  3.933267  0
C  C74  1  0.91491247  0.34332928  0.73318296  1  -0.039804  0  -0.231518  -0.467594  0  3.933276  0
C  C75  1  0.58508858  0.84333048  0.76681744  1  -0.039812  0  -0.231519  -0.467617  0  3.933327  0
C  C76  1  0.18421020  0.74182648  0.27560951  1  0.96883  0  0.210359  0.372405  0  4.028434  0
C  C77  1  0.31578952  0.24182691  0.22439069  1  0.968857  0  0.210352  0.372374  0  4.02855  0
C  C78  1  0.81578925  0.25817161  0.72439104  1  0.968867  0  0.210359  0.372448  0  4.028446  0
C  C79  1  0.68421086  0.75817281  0.77560933  1  0.968854  0  0.210341  0.3724  0  4.028528  0
C  C80  1  0.32508753  0.85464514  0.32431287  1  0.946257  0  0.205513  0.322767  0  4.031509  0
C  C81  1  0.17491314  0.35464478  0.17568677  1  0.946263  0  0.205491  0.322751  0  4.031442  0
C  C82  1  0.67491286  0.14535377  0.67568715  1  0.946273  0  0.205552  0.322831  0  4.031418  0
C  C83  1  0.82508819  0.64535494  0.82431330  1  0.946215  0  0.205519  0.322793  0  4.031521  0
C  C84  1  0.40747807  0.92109720  0.38167753  1  -0.046987  0  -0.136784  -0.320818  0  3.945866  0
C  C85  1  0.09252165  0.42109605  0.11832262  1  -0.046977  0  -0.136795  -0.320821  0  3.945834  0
C  C86  1  0.59252043  0.07890171  0.61832296  1  -0.04701  0  -0.136779  -0.320818  0  3.945774  0
C  C87  1  0.90747873  0.57890204  0.88167682  1  -0.047074  0  -0.136759  -0.32081  0  3.945885  0
C  C88  1  0.45181907  0.86231571  0.45531052  1  1.001484  0  0.206934  0.335228  0  4.019466  0
C  C89  1  0.04818159  0.36231461  0.04469028  1  1.001434  0  0.206993  0.335282  0  4.019512  0
C  C90  1  0.54817943  0.13768482  0.54469055  1  1.001481  0  0.207029  0.335353  0  4.019467  0
C  C91  1  0.95181974  0.63768429  0.95530922  1  1.001471  0  0.207053  0.335377  0  4.019452  0
C  C92  1  0.44745605  0.76868695  0.56054018  1  0.986956  0  0.213109  0.381348  0  4.014169  0
C  C93  1  0.05254389  0.26868886  0.93945924  1  0.986642  0  0.213128  0.381362  0  4.014172  0
C  C94  1  0.55254246  0.23131277  0.43946089  1  0.986838  0  0.213093  0.381369  0  4.014248  0
C  C95  1  0.94745650  0.73131167  0.06053961  1  0.986833  0  0.213085  0.381348  0  4.014239  0
C  C96  1  0.40205527  0.70195611  0.62424890  1  -0.070642  0  -0.232017  -0.471217  0  3.949365  0
C  C97  1  0.09794467  0.20195726  0.87574996  1  -0.07064  0  -0.232037  -0.471203  0  3.949371  0
C  C98  1  0.59794229  0.29804442  0.37575037  1  -0.07061  0  -0.232018  -0.471243  0  3.949474  0
C  C99  1  0.90205666  0.79804327  0.12425012  1  -0.070648  0  -0.232029  -0.471222  0  3.949478  0
C  C100  1  0.94478374  0.94815514  0.66176918  1  -0.036755  0  -0.231804  -0.45299  0  3.941566  0
C  C101  1  0.55521637  0.44815630  0.83822996  1  -0.036806  0  -0.231777  -0.453009  0  3.941573  0
C  C102  1  0.05521477  0.05184377  0.33823189  1  -0.037152  0  -0.231852  -0.452974  0  3.941533  0
C  C103  1  0.44478401  0.55184341  0.16176890  1  -0.037228  0  -0.23183  -0.453065  0  3.941606  0
C  C104  1  0.96877032  0.87528233  0.59598933  1  0.999798  0  0.206241  0.381831  0  4.023139  0
C  C105  1  0.53123167  0.37528346  0.90401053  1  0.999791  0  0.206262  0.381847  0  4.023133  0
C  C106  1  0.03122912  0.12471738  0.40401180  1  1.000227  0  0.206212  0.38174  0  4.023129  0
C  C107  1  0.46876966  0.62471626  0.09598896  1  1.00021  0  0.206277  0.381887  0  4.023084  0
C  C108  1  0.94398991  0.75145959  0.50771634  1  1.025881  0  0.217755  0.345546  0  3.996286  0
C  C109  1  0.55601114  0.25146147  0.99228409  1  1.0257  0  0.217785  0.345565  0  3.996244  0
C  C110  1  0.05600953  0.24854094  0.49228421  1  1.025959  0  0.217774  0.345589  0  3.996248  0
C  C111  1  0.44398925  0.74853987  0.00771593  1  1.025885  0  0.21775  0.34558  0  3.996285  0
C  C112  1  0.88892500  0.66412403  0.45447664  1  0.040589  0  -0.135129  -0.325911  0  3.979661  0
C  C113  1  0.61107772  0.16412618  0.04552353  1  0.040455  0  -0.135209  -0.326063  0  3.979822  0
C  C114  1  0.11107445  0.33587650  0.54552333  1  0.040581  0  -0.135129  -0.325929  0  3.979613  0
C  C115  1  0.38892455  0.83587598  0.95447660  1  0.040575  0  -0.135146  -0.325939  0  3.979669  0
C  C116  1  0.82843269  0.57410101  0.49582227  1  1.001771  0  0.208205  0.339447  0  4.018913  0
C  C117  1  0.67156909  0.07410237  0.00417787  1  1.00176  0  0.208199  0.339366  0  4.01909  0
C  C118  1  0.17156676  0.42589871  0.50417828  1  1.001702  0  0.208199  0.339423  0  4.018777  0
C  C119  1  0.32843318  0.92589897  0.99582168  1  1.00176  0  0.208217  0.339457  0  4.018881  0
C  C120  1  0.71285349  0.48930333  0.57156908  1  1.01081  0  0.210299  0.379149  0  4.023118  0
C  C121  1  0.78714662  0.98930444  0.92843064  1  1.010861  0  0.210353  0.379173  0  4.023178  0
C  C122  1  0.28714595  0.51069639  0.42843089  1  1.010816  0  0.21034  0.379144  0  4.02317  0
C  C123  1  0.21285565  0.01069609  0.07156891  1  1.010821  0  0.210297  0.379111  0  4.023131  0
C  C124  1  0.61907434  0.46426473  0.62765149  1  -0.061573  0  -0.233889  -0.465653  0  3.943557  0
C  C125  1  0.88092483  0.96426588  0.87234701  1  -0.0615  0  -0.233862  -0.465582  0  3.943548  0
C  C126  1  0.38092417  0.53573499  0.37234784  1  -0.061601  0  -0.233879  -0.465594  0  3.943555  0
C  C127  1  0.11907744  0.03573384  0.12765195  1  -0.061586  0  -0.233813  -0.465562  0  3.943573  0
N  N128  1  0.88404911  0.79976759  0.56437262  1  -1.251609  0  -0.366856  -0.419799  0  3.44399  0
N  N129  1  0.61595194  0.29977032  0.93562779  1  -1.251426  0  -0.366857  -0.419748  0  3.443904  0
N  N130  1  0.11594939  0.20023213  0.43562729  1  -1.251618  0  -0.366837  -0.419771  0  3.443926  0
N  N131  1  0.38404939  0.70023102  0.06437229  1  -1.251592  0  -0.366862  -0.419831  0  3.443928  0
N  N132  1  0.07480799  0.87484269  0.56148046  1  -0.698318  0  -0.259479  -0.304729  0  3.124727  0
N  N133  1  0.42519289  0.37484299  0.93851898  1  -0.698273  0  -0.259546  -0.304794  0  3.124728  0
N  N134  1  0.92519145  0.12515784  0.43852067  1  -0.69833  0  -0.259413  -0.304618  0  3.124755  0
N  N135  1  0.57480750  0.62515754  0.06148046  1  -0.698305  0  -0.259532  -0.304767  0  3.124724  0
N  N136  1  0.05820279  0.79528583  0.50496133  1  -0.846372  0  -0.274508  -0.251973  0  3.590151  0
N  N137  1  0.44179715  0.29528691  0.99503867  1  -0.846382  0  -0.274477  -0.251956  0  3.590156  0
N  N138  1  0.94179571  0.20471470  0.49503916  1  -0.846405  0  -0.274573  -0.252093  0  3.590293  0
N  N139  1  0.55820324  0.70471443  0.00496135  1  -0.846365  0  -0.274497  -0.252  0  3.590161  0
N  N140  1  0.74399632  0.59068720  0.54985373  1  -1.258051  0  -0.370641  -0.432853  0  3.449068  0
N  N141  1  0.75600379  0.09068830  0.95014611  1  -1.2581  0  -0.37061  -0.432724  0  3.449028  0
N  N142  1  0.25600312  0.40931334  0.45014624  1  -1.258035  0  -0.370623  -0.432757  0  3.448989  0
N  N143  1  0.24399754  0.90931304  0.04985397  1  -1.258048  0  -0.370638  -0.432787  0  3.449016  0
N  N144  1  0.84978122  0.46959657  0.48387226  1  -0.718955  0  -0.253552  -0.291714  0  3.175658  0
N  N145  1  0.65021962  0.96959874  0.01612712  1  -0.718777  0  -0.253607  -0.291714  0  3.175836  0
N  N146  1  0.15021728  0.53040558  0.51612765  1  -0.719382  0  -0.253544  -0.291682  0  3.175576  0
N  N147  1  0.34978265  0.03040342  0.98387184  1  -0.719058  0  -0.253554  -0.291745  0  3.175608  0
N  N148  1  0.77602812  0.41559917  0.53301043  1  -0.843593  0  -0.275141  -0.280481  0  3.565387  0
N  N149  1  0.72397199  0.91560107  0.96698931  1  -0.843821  0  -0.275149  -0.280524  0  3.56559  0
N  N150  1  0.22397133  0.58440136  0.46698954  1  -0.843188  0  -0.275189  -0.280574  0  3.565531  0
N  N151  1  0.27602933  0.08440108  0.03301077  1  -0.84357  0  -0.275154  -0.28047  0  3.565377  0
N  N152  1  0.56646185  0.80107839  0.55495159  1  -0.83052  0  -0.278785  -0.282456  0  3.580678  0
N  N153  1  0.93353826  0.30108032  0.94504818  1  -0.830376  0  -0.278808  -0.282487  0  3.580809  0
N  N154  1  0.43353666  0.19892133  0.44504948  1  -0.830402  0  -0.278778  -0.282444  0  3.580706  0
N  N155  1  0.06646212  0.69892103  0.05495068  1  -0.830388  0  -0.278772  -0.282454  0  3.580764  0
N  N156  1  0.56997004  0.86092445  0.48714935  1  -0.718961  0  -0.259067  -0.297823  0  3.146052  0
N  N157  1  0.93003080  0.36092419  0.01285123  1  -0.718949  0  -0.259089  -0.29783  0  3.146123  0
N  N158  1  0.43002847  0.13907608  0.51285173  1  -0.719021  0  -0.259103  -0.297845  0  3.146083  0
N  N159  1  0.06997053  0.63907553  0.98714826  1  -0.719002  0  -0.259115  -0.297854  0  3.146148  0
N  N160  1  0.37241891  0.80628831  0.49881353  1  -1.262696  0  -0.370307  -0.417648  0  3.462089  0
N  N161  1  0.12758081  0.30628967  0.00118607  1  -1.26248  0  -0.370363  -0.417721  0  3.462146  0
N  N162  1  0.62757960  0.19371222  0.50118696  1  -1.262632  0  -0.370389  -0.417844  0  3.462287  0
N  N163  1  0.87241957  0.69371086  0.99881337  1  -1.262651  0  -0.370385  -0.417816  0  3.462257  0
N  N164  1  0.23234874  0.78546499  0.34435498  1  -1.258245  0  -0.371015  -0.444567  0  3.485819  0
N  N165  1  0.26765286  0.28546546  0.15564474  1  -1.258257  0  -0.37102  -0.444622  0  3.485802  0
N  N166  1  0.76765164  0.21453391  0.65564504  1  -1.25824  0  -0.371028  -0.444671  0  3.485891  0
N  N167  1  0.73234941  0.71453507  0.84435481  1  -1.258232  0  -0.371045  -0.444658  0  3.485902  0
N  N168  1  0.33355292  0.85622089  0.24778874  1  -0.697267  0  -0.257337  -0.298108  0  3.15775  0
N  N169  1  0.16644586  0.35622048  0.25221195  1  -0.697269  0  -0.257345  -0.298122  0  3.157763  0
N  N170  1  0.66644652  0.14377720  0.75221238  1  -0.69731  0  -0.257366  -0.298127  0  3.157693  0
N  N171  1  0.83355453  0.64377842  0.74778865  1  -0.697285  0  -0.257336  -0.298095  0  3.157695  0
N  N172  1  0.24306917  0.78402583  0.21696144  1  -0.830063  0  -0.272229  -0.270669  0  3.567613  0
N  N173  1  0.25693055  0.28402540  0.28303932  1  -0.830072  0  -0.272181  -0.270555  0  3.567638  0
N  N174  1  0.75693215  0.21597227  0.78303921  1  -0.830072  0  -0.272206  -0.270618  0  3.567608  0
N  N175  1  0.74306984  0.71597432  0.71696128  1  -0.830062  0  -0.272189  -0.2706  0  3.567568  0
