# generated using pymatgen
data_ZnH14C20N3O4
_symmetry_space_group_name_H-M   'P 1'
_cell_length_a   8.48249627
_cell_length_b   9.02014280
_cell_length_c   11.37524420
_cell_angle_alpha   88.15577296
_cell_angle_beta   74.50309058
_cell_angle_gamma   72.24356924
_symmetry_Int_Tables_number   1
_chemical_formula_structural   ZnH14C20N3O4
_chemical_formula_sum   'Zn2 H28 C40 N6 O8'
_cell_volume   797.60728836
_cell_formula_units_Z   2
loop_
 _symmetry_equiv_pos_site_id
 _symmetry_equiv_pos_as_xyz
  1  'x, y, z'
loop_
 _atom_site_type_symbol
 _atom_site_label
 _atom_site_symmetry_multiplicity
 _atom_site_fract_x
 _atom_site_fract_y
 _atom_site_fract_z
 _atom_site_occupancy
 _atom_site_hle17_bader_spin_density
 _atom_site_hle17_ddec_charge
 _atom_site_hle17_ddec_spin_density
 _atom_site_hle17_ddec_sum_bond_order
 _atom_site_hle17_magmom
 _atom_site_hse06_10hf_bader_spin_density
 _atom_site_hse06_10hf_ddec_charge
 _atom_site_hse06_10hf_ddec_spin_density
 _atom_site_hse06_10hf_ddec_sum_bond_order
 _atom_site_hse06_10hf_magmom
 _atom_site_hse06_bader_spin_density
 _atom_site_hse06_ddec_charge
 _atom_site_hse06_ddec_spin_density
 _atom_site_hse06_ddec_sum_bond_order
 _atom_site_hse06_magmom
 _atom_site_pbe_bader_spin_density
 _atom_site_pbe_cm5_charge
 _atom_site_pbe_ddec_charge
 _atom_site_pbe_ddec_spin_density
 _atom_site_pbe_ddec_sum_bond_order
 _atom_site_pbe_magmom
Zn  Zn0  1  0.53840281  0.08958277  0.85293278  1  0  1.045055  0  1.777932  0  0  0.851608  0  2.241812  0  0  0.902008  0  2.184721  0  0  0.700326  0.81607  0  2.281679  0
Zn  Zn1  1  0.46160108  0.91041770  0.14706569  1  0  1.045073  0  1.777852  0  0  0.85163  0  2.241741  0  0  0.902031  0  2.18465  0  0  0.700345  0.816094  0  2.281607  0
H  H2  1  0.12949102  0.07566727  0.88426035  1  0  0.090973  0  0.971349  0  0  0.099568  0  1.039965  0  0  0.102376  0  1.038526  0  0  0.099764  0.097918  0  1.040073  0
H  H3  1  0.87051085  0.92433558  0.11574196  1  0  0.090981  0  0.971376  0  0  0.09957  0  1.040007  0  0  0.102378  0  1.03857  0  0  0.099759  0.097919  0  1.040117  0
H  H4  1  0.90487771  0.23756420  0.79153393  1  0  0.075471  0  0.976701  0  0  0.087337  0  1.03814  0  0  0.089725  0  1.037969  0  0  0.094158  0.085379  0  1.038728  0
H  H5  1  0.09512941  0.76243747  0.20846294  1  0  0.075457  0  0.976774  0  0  0.087319  0  1.03822  0  0  0.089707  0  1.038049  0  0  0.09414  0.08536  0  1.038809  0
H  H6  1  0.69264078  0.48477334  0.90098129  1  0  0.096343  0  0.947995  0  0  0.10553  0  1.012102  0  0  0.109012  0  1.009611  0  0  0.101912  0.102882  0  1.014186  0
H  H7  1  0.30736148  0.51522475  0.09901673  1  0  0.096305  0  0.947979  0  0  0.105489  0  1.012091  0  0  0.108973  0  1.009598  0  0  0.101886  0.102844  0  1.014169  0
H  H8  1  0.92400293  0.39301273  0.19924125  1  0  0.099156  0  0.980331  0  0  0.106159  0  1.04912  0  0  0.11008  0  1.045806  0  0  0.10277  0.103253  0  1.051407  0
H  H9  1  0.07599042  0.60698647  0.80076122  1  0  0.099183  0  0.980261  0  0  0.106184  0  1.049057  0  0  0.110107  0  1.045742  0  0  0.102794  0.103273  0  1.051362  0
H  H10  1  0.31473800  0.82067910  0.90961863  1  0  0.116488  0  0.973402  0  0  0.122048  0  1.038528  0  0  0.123952  0  1.039123  0  0  0.121786  0.120687  0  1.038132  0
H  H11  1  0.68526885  0.17931687  0.09038819  1  0  0.116473  0  0.973459  0  0  0.12202  0  1.03859  0  0  0.123921  0  1.039183  0  0  0.121768  0.120661  0  1.038194  0
H  H12  1  0.40617536  0.59786415  0.71706605  1  0  0.123734  0  0.980478  0  0  0.129544  0  1.046866  0  0  0.132636  0  1.0458  0  0  0.122271  0.127542  0  1.047163  0
H  H13  1  0.59382736  0.40213640  0.28293793  1  0  0.123745  0  0.980521  0  0  0.12954  0  1.046907  0  0  0.132632  0  1.045842  0  0  0.122298  0.127539  0  1.047206  0
H  H14  1  0.74823967  0.87068910  0.41021609  1  0  0.109252  0  0.96587  0  0  0.121527  0  1.024031  0  0  0.124251  0  1.023634  0  0  0.109226  0.119508  0  1.024832  0
H  H15  1  0.25176096  0.12931014  0.58978222  1  0  0.10923  0  0.965871  0  0  0.121505  0  1.024031  0  0  0.124233  0  1.023635  0  0  0.109219  0.119488  0  1.02483  0
H  H16  1  0.90932019  0.05588450  0.31979930  1  0  0.10577  0  0.944279  0  0  0.117223  0  1.001353  0  0  0.119854  0  0.999937  0  0  0.110766  0.115101  0  1.002612  0
H  H17  1  0.09068168  0.94411125  0.68019890  1  0  0.105806  0  0.944242  0  0  0.117241  0  1.001325  0  0  0.119859  0  0.999926  0  0  0.110784  0.115119  0  1.002584  0
H  H18  1  0.90671269  0.27103612  0.45110511  1  0  0.112061  0  0.975654  0  0  0.119938  0  1.038657  0  0  0.122267  0  1.039814  0  0  0.106195  0.117843  0  1.038673  0
H  H19  1  0.09329324  0.72895849  0.54889140  1  0  0.112013  0  0.975708  0  0  0.11993  0  1.038666  0  0  0.122259  0  1.039825  0  0  0.106212  0.117837  0  1.03868  0
H  H20  1  0.73761602  0.29770233  0.67244349  1  0  0.071179  0  0.950832  0  0  0.081276  0  1.015489  0  0  0.083302  0  1.013957  0  0  0.114498  0.080068  0  1.015774  0
H  H21  1  0.26239194  0.70229351  0.32755431  1  0  0.071207  0  0.950802  0  0  0.081266  0  1.015477  0  0  0.083297  0  1.013936  0  0  0.114491  0.08005  0  1.015771  0
H  H22  1  0.57693290  0.56103259  0.51622038  1  0  0.084623  0  0.923065  0  0  0.103846  0  0.980748  0  0  0.1047  0  0.980084  0  0  0.116753  0.103091  0  0.98122  0
H  H23  1  0.42306163  0.43897009  0.48377908  1  0  0.084595  0  0.923058  0  0  0.103809  0  0.980783  0  0  0.104657  0  0.980119  0  0  0.11673  0.103049  0  0.981266  0
H  H24  1  0.62157508  0.71553110  0.43179983  1  0  0.107858  0  0.943531  0  0  0.118909  0  1.009248  0  0  0.120572  0  1.007863  0  0  0.116027  0.117412  0  1.010714  0
H  H25  1  0.37841822  0.28447156  0.56819987  1  0  0.107795  0  0.943486  0  0  0.118884  0  1.009198  0  0  0.12055  0  1.007805  0  0  0.11601  0.117385  0  1.010664  0
H  H26  1  0.90713047  0.57625939  0.31134745  1  0  0.106815  0  0.983865  0  0  0.116642  0  1.046333  0  0  0.119584  0  1.045156  0  0  0.103401  0.114456  0  1.047586  0
H  H27  1  0.09286244  0.42374092  0.68865243  1  0  0.106817  0  0.983718  0  0  0.116641  0  1.046208  0  0  0.119588  0  1.045022  0  0  0.103403  0.114455  0  1.047461  0
H  H28  1  0.78692296  0.56519175  0.70324786  1  0  0.098398  0  0.957902  0  0  0.108218  0  1.021563  0  0  0.110793  0  1.020883  0  0  0.10406  0.106439  0  1.021901  0
H  H29  1  0.21306873  0.43480855  0.29675227  1  0  0.098469  0  0.957842  0  0  0.108276  0  1.021505  0  0  0.110852  0  1.020822  0  0  0.104065  0.106496  0  1.021848  0
C  C30  1  0.16814220  0.13038705  0.11352607  1  0  0.64025  0  3.904763  0  0  0.590871  0  4.19501  0  0  0.624999  0  4.18835  0  0  0.202628  0.567749  0  4.199089  0
C  C31  1  0.83185847  0.86961226  0.88647575  1  0  0.640363  0  3.904682  0  0  0.590989  0  4.194928  0  0  0.625115  0  4.188266  0  0  0.202684  0.567866  0  4.199009  0
C  C32  1  0.04125592  0.22485939  0.04818901  1  0  -0.070264  0  3.756942  0  0  -0.043905  0  3.989151  0  0  -0.053343  0  4.012835  0  0  -0.018906  -0.038393  0  3.972082  0
C  C33  1  0.95874310  0.77514103  0.95181135  1  0  -0.070246  0  3.756969  0  0  -0.043876  0  3.989168  0  0  -0.053313  0  4.012848  0  0  -0.018878  -0.038362  0  3.972099  0
C  C34  1  0.03590097  0.18170419  0.93255919  1  0  -0.051341  0  3.707302  0  0  -0.079006  0  3.95821  0  0  -0.076315  0  3.977103  0  0  -0.082538  -0.079982  0  3.94339  0
C  C35  1  0.96409845  0.81829860  0.06744187  1  0  -0.051324  0  3.707241  0  0  -0.078986  0  3.95814  0  0  -0.076294  0  3.977031  0  0  -0.082506  -0.079961  0  3.94332  0
C  C36  1  0.90961611  0.27400890  0.88057693  1  0  -0.08165  0  3.769679  0  0  -0.091687  0  4.024418  0  0  -0.096397  0  4.045582  0  0  -0.094095  -0.088142  0  4.009811  0
C  C37  1  0.09038780  0.72599161  0.11942417  1  0  -0.081661  0  3.769751  0  0  -0.091696  0  4.024487  0  0  -0.096404  0  4.045646  0  0  -0.09409  -0.088152  0  4.009882  0
C  C38  1  0.79119544  0.41175367  0.94093432  1  0  -0.045991  0  3.698639  0  0  -0.072834  0  3.947163  0  0  -0.069775  0  3.964823  0  0  -0.077879  -0.075238  0  3.935231  0
C  C39  1  0.20880277  0.58824557  0.05906626  1  0  -0.045963  0  3.69871  0  0  -0.072831  0  3.94722  0  0  -0.069755  0  3.964895  0  0  -0.07789  -0.075233  0  3.935288  0
C  C40  1  0.79680279  0.45688833  0.05623252  1  0  -0.074774  0  3.76191  0  0  -0.045714  0  3.987098  0  0  -0.055569  0  4.01165  0  0  -0.018966  -0.039594  0  3.970016  0
C  C41  1  0.20319583  0.54310974  0.94376801  1  0  -0.074814  0  3.761889  0  0  -0.045674  0  3.986988  0  0  -0.055589  0  4.01162  0  0  -0.018946  -0.039553  0  3.969907  0
C  C42  1  0.92018230  0.36141970  0.10894709  1  0  -0.076933  0  3.720359  0  0  -0.110081  0  3.961408  0  0  -0.107876  0  3.981564  0  0  -0.07927  -0.110205  0  3.946291  0
C  C43  1  0.07981550  0.63858070  0.89105352  1  0  -0.076977  0  3.720371  0  0  -0.110157  0  3.961412  0  0  -0.107933  0  3.981583  0  0  -0.079317  -0.110282  0  3.946289  0
C  C44  1  0.67532753  0.60490358  0.12571102  1  0  0.63391  0  3.931565  0  0  0.586494  0  4.221296  0  0  0.620229  0  4.215673  0  0  0.201596  0.563958  0  4.223845  0
C  C45  1  0.32467151  0.39509335  0.87429035  1  0  0.634001  0  3.931639  0  0  0.586555  0  4.221377  0  0  0.620306  0  4.215757  0  0  0.201646  0.564019  0  4.223925  0
C  C46  1  0.39394389  0.81510039  0.81679836  1  0  0.04795  0  3.700027  0  0  0.012025  0  3.968575  0  0  0.014301  0  3.989067  0  0  0.017022  0.009791  0  3.955879  0
C  C47  1  0.60606250  0.18489669  0.18320499  1  0  0.047925  0  3.700154  0  0  0.012017  0  3.96871  0  0  0.014298  0  3.989196  0  0  0.016995  0.009783  0  3.956013  0
C  C48  1  0.43942185  0.70412845  0.72309773  1  0  -0.058743  0  3.64101  0  0  -0.100132  0  3.905002  0  0  -0.101544  0  3.926619  0  0  0.010097  -0.099186  0  3.890352  0
C  C49  1  0.56057883  0.29587086  0.27690497  1  0  -0.058737  0  3.641065  0  0  -0.100115  0  3.90505  0  0  -0.101527  0  3.926667  0  0  0.010122  -0.099171  0  3.890401  0
C  C50  1  0.56338894  0.88693510  0.65942575  1  0  0.230817  0  3.727121  0  0  0.195443  0  3.988305  0  0  0.207584  0  4.003786  0  0  0.217284  0.187733  0  3.977543  0
C  C51  1  0.43660679  0.11306758  0.34057257  1  0  0.230782  0  3.72712  0  0  0.195406  0  3.988311  0  0  0.207549  0  4.003786  0  0  0.217286  0.187697  0  3.977548  0
C  C52  1  0.66354130  0.98333503  0.59201242  1  0  0.17481  0  3.764922  0  0  0.171981  0  4.010348  0  0  0.178829  0  4.027968  0  0  0.12414  0.166682  0  3.998786  0
C  C53  1  0.33645934  0.01666422  0.40798677  1  0  0.174826  0  3.764884  0  0  0.171988  0  4.010331  0  0  0.178835  0  4.027951  0  0  0.124135  0.166688  0  3.998771  0
C  C54  1  0.74950413  0.96444513  0.46709834  1  0  -0.141813  0  3.688914  0  0  -0.167106  0  3.946162  0  0  -0.172821  0  3.966013  0  0  -0.082862  -0.163618  0  3.932846  0
C  C55  1  0.25049734  0.03555179  0.53290077  1  0  -0.141705  0  3.688909  0  0  -0.166993  0  3.94614  0  0  -0.172712  0  3.965993  0  0  -0.082795  -0.163506  0  3.932822  0
C  C56  1  0.83839171  0.06798885  0.41587738  1  0  0.011334  0  3.703504  0  0  -0.009223  0  3.956994  0  0  -0.004919  0  3.973004  0  0  -0.064754  -0.011008  0  3.945677  0
C  C57  1  0.16161260  0.93200692  0.58412030  1  0  0.011168  0  3.703489  0  0  -0.009378  0  3.957019  0  0  -0.005064  0  3.973032  0  0  -0.064843  -0.011162  0  3.945702  0
C  C58  1  0.83706291  0.18959433  0.48900701  1  0  -0.115793  0  3.701123  0  0  -0.129788  0  3.953575  0  0  -0.135146  0  3.973775  0  0  -0.083633  -0.126466  0  3.940106  0
C  C59  1  0.16294138  0.81040143  0.51098979  1  0  -0.115707  0  3.701142  0  0  -0.129751  0  3.953575  0  0  -0.135108  0  3.973772  0  0  -0.083695  -0.126429  0  3.940102  0
C  C60  1  0.74587749  0.20277152  0.61184585  1  0  0.13562  0  3.719215  0  0  0.102271  0  3.976528  0  0  0.109486  0  3.99284  0  0  0.050191  0.097389  0  3.964732  0
C  C61  1  0.25412884  0.79722547  0.38815224  1  0  0.135617  0  3.719298  0  0  0.102331  0  3.976565  0  0  0.109544  0  3.99288  0  0  0.050254  0.097453  0  3.964769  0
C  C62  1  0.63912579  0.65215631  0.51351520  1  0  -0.039873  0  3.640619  0  0  -0.107199  0  3.889552  0  0  -0.102674  0  3.89895  0  0  -0.04424  -0.110082  0  3.883215  0
C  C63  1  0.36086548  0.34784869  0.48648572  1  0  -0.039689  0  3.640443  0  0  -0.107108  0  3.889453  0  0  -0.102579  0  3.898848  0  0  -0.044184  -0.109983  0  3.883099  0
C  C64  1  0.94882607  0.54325269  0.39381188  1  0  -0.121353  0  3.738918  0  0  -0.139888  0  3.986138  0  0  -0.142421  0  4.006207  0  0  -0.092  -0.138438  0  3.973257  0
C  C65  1  0.05116518  0.45675227  0.60618729  1  0  -0.121239  0  3.73907  0  0  -0.139799  0  3.98625  0  0  -0.142332  0  4.006319  0  0  -0.091942  -0.138359  0  3.973393  0
C  C66  1  0.82675890  0.57796163  0.50755087  1  0  0.055423  0  3.756666  0  0  0.074794  0  3.997417  0  0  0.0738  0  4.021845  0  0  -0.015007  0.07561  0  3.980349  0
C  C67  1  0.17323402  0.42204225  0.49245151  1  0  0.055226  0  3.756856  0  0  0.074695  0  3.997508  0  0  0.0737  0  4.021938  0  0  -0.015072  0.075509  0  3.980439  0
C  C68  1  0.12062469  0.46481203  0.38632117  1  0  -0.104153  0  3.736984  0  0  -0.12741  0  3.99128  0  0  -0.128993  0  4.011459  0  0  -0.08976  -0.125508  0  3.976785  0
C  C69  1  0.87937227  0.53519067  0.61367778  1  0  -0.104101  0  3.737267  0  0  -0.127358  0  3.99161  0  0  -0.128944  0  4.011795  0  0  -0.089747  -0.125456  0  3.977109  0
N  N70  1  0.47048690  0.92724323  0.77590318  1  0  -0.406049  0  3.278994  0  0  -0.331247  0  3.570139  0  0  -0.350617  0  3.581453  0  0  -0.349308  -0.318383  0  3.563244  0
N  N71  1  0.52951499  0.07275609  0.22409839  1  0  -0.406061  0  3.279003  0  0  -0.331255  0  3.570127  0  0  -0.350627  0  3.581439  0  0  -0.34934  -0.318392  0  3.563233  0
N  N72  1  0.66418339  0.10148664  0.66277848  1  0  -0.35085  0  3.277436  0  0  -0.27665  0  3.541938  0  0  -0.293035  0  3.553554  0  0  -0.312819  -0.265226  0  3.534456  0
N  N73  1  0.33581805  0.89851378  0.33721963  1  0  -0.350883  0  3.277447  0  0  -0.276687  0  3.54191  0  0  -0.293072  0  3.553527  0  0  -0.312806  -0.265262  0  3.534422  0
N  N74  1  0.54574684  0.75053205  0.62480011  1  0  -0.088374  0  3.5621  0  0  0.00283  0  3.775332  0  0  -0.011652  0  3.802649  0  0  -0.235406  0.012789  0  3.75638  0
N  N75  1  0.45424850  0.24947182  0.37520001  1  0  -0.088362  0  3.561934  0  0  0.002861  0  3.775183  0  0  -0.01162  0  3.802495  0  0  -0.235412  0.012819  0  3.756231  0
O  O76  1  0.14034813  0.15999216  0.22497663  1  0  -0.602335  0  1.955346  0  0  -0.557629  0  2.182806  0  0  -0.581279  0  2.178564  0  0  -0.31664  -0.541137  0  2.185306  0
O  O77  1  0.85965415  0.84000950  0.77502476  1  0  -0.602443  0  1.955244  0  0  -0.557765  0  2.182741  0  0  -0.581411  0  2.178492  0  0  -0.316742  -0.541271  0  2.185243  0
O  O78  1  0.30051740  0.01987361  0.04952343  1  0  -0.668909  0  2.054395  0  0  -0.583307  0  2.330945  0  0  -0.613661  0  2.315256  0  0  -0.328071  -0.562272  0  2.341121  0
O  O79  1  0.69948324  0.98012567  0.95047664  1  0  -0.668906  0  2.054407  0  0  -0.583271  0  2.330901  0  0  -0.613624  0  2.315213  0  0  -0.328039  -0.562235  0  2.341077  0
O  O80  1  0.58600121  0.70455836  0.06485306  1  0  -0.639412  0  2.042408  0  0  -0.56197  0  2.313387  0  0  -0.592081  0  2.299506  0  0  -0.330377  -0.540831  0  2.321892  0
O  O81  1  0.41399905  0.29543857  0.93514718  1  0  -0.639442  0  2.04244  0  0  -0.561984  0  2.313422  0  0  -0.592094  0  2.299533  0  0  -0.33038  -0.540845  0  2.321926  0
O  O82  1  0.66655836  0.62519359  0.23627556  1  0  -0.634722  0  1.951299  0  0  -0.59137  0  2.186229  0  0  -0.614294  0  2.178474  0  0  -0.330358  -0.575707  0  2.191323  0
O  O83  1  0.33344068  0.37480686  0.76372656  1  0  -0.634749  0  1.951477  0  0  -0.59139  0  2.186406  0  0  -0.614314  0  2.178644  0  0  -0.330381  -0.575724  0  2.191499  0
