# generated using pymatgen
data_PrH4C6N2O7
_symmetry_space_group_name_H-M   'P 1'
_cell_length_a   6.85807338
_cell_length_b   11.36675501
_cell_length_c   13.43390706
_cell_angle_alpha   104.78617033
_cell_angle_beta   89.99843635
_cell_angle_gamma   107.52617167
_symmetry_Int_Tables_number   1
_chemical_formula_structural   PrH4C6N2O7
_chemical_formula_sum   'Pr4 H16 C24 N8 O28'
_cell_volume   962.18747905
_cell_formula_units_Z   4
loop_
 _symmetry_equiv_pos_site_id
 _symmetry_equiv_pos_as_xyz
  1  'x, y, z'
loop_
 _atom_site_type_symbol
 _atom_site_label
 _atom_site_symmetry_multiplicity
 _atom_site_fract_x
 _atom_site_fract_y
 _atom_site_fract_z
 _atom_site_occupancy
 _atom_site_hle17_bader_spin_density
 _atom_site_hle17_ddec_charge
 _atom_site_hle17_ddec_spin_density
 _atom_site_hle17_ddec_sum_bond_order
 _atom_site_hle17_magmom
 _atom_site_hse06_10hf_bader_spin_density
 _atom_site_hse06_10hf_ddec_charge
 _atom_site_hse06_10hf_ddec_spin_density
 _atom_site_hse06_10hf_ddec_sum_bond_order
 _atom_site_hse06_10hf_magmom
 _atom_site_hse06_bader_spin_density
 _atom_site_hse06_ddec_charge
 _atom_site_hse06_ddec_spin_density
 _atom_site_hse06_ddec_sum_bond_order
 _atom_site_hse06_magmom
 _atom_site_pbe_bader_spin_density
 _atom_site_pbe_cm5_charge
 _atom_site_pbe_ddec_charge
 _atom_site_pbe_ddec_spin_density
 _atom_site_pbe_ddec_sum_bond_order
 _atom_site_pbe_magmom
Pr  Pr0  1  0.57646273  0.30006468  0.11950617  1  0  2.296518  0  1.678087  0  0  2.12635  0  2.154323  0  0  2.211133  0  2.021646  0  0  1.51949  2.096507  0  2.188266  0
Pr  Pr1  1  0.27595911  0.70000213  0.38046878  1  0  2.29726  0  1.676844  0  0  2.127881  0  2.151637  0  0  2.211901  0  2.020301  0  0  1.51936  2.097977  0  2.185664  0
Pr  Pr2  1  0.42354599  0.69994597  0.88048877  1  0  2.296501  0  1.678092  0  0  2.126276  0  2.154398  0  0  2.211102  0  2.021649  0  0  1.519498  2.096444  0  2.188342  0
Pr  Pr3  1  0.72403511  0.29999408  0.61953115  1  0  2.297205  0  1.676955  0  0  2.127808  0  2.151796  0  0  2.211844  0  2.020429  0  0  1.519319  2.0979  0  2.185823  0
H  H4  1  0.99931245  0.12751931  0.19996469  1  0  0.10158  0  0.921534  0  0  0.111113  0  0.981217  0  0  0.114333  0  0.977348  0  0  0.144207  0.108734  0  0.983957  0
H  H5  1  0.87121792  0.87246366  0.30015052  1  0  0.101725  0  0.921665  0  0  0.11078  0  0.981781  0  0  0.11399  0  0.977953  0  0  0.144248  0.108427  0  0.984426  0
H  H6  1  0.00068277  0.87247307  0.80003365  1  0  0.101551  0  0.921544  0  0  0.111138  0  0.981171  0  0  0.114358  0  0.977299  0  0  0.144216  0.108717  0  0.98396  0
H  H7  1  0.12876665  0.12752200  0.69984857  1  0  0.101682  0  0.921765  0  0  0.110756  0  0.981869  0  0  0.113968  0  0.978041  0  0  0.144246  0.108443  0  0.984465  0
H  H8  1  0.92266962  0.16608916  0.39058337  1  0  0.326225  0  0.894137  0  0  0.305111  0  0.956485  0  0  0.314924  0  0.94794  0  0  0.322764  0.298144  0  0.962634  0
H  H9  1  0.75588438  0.83388856  0.10952444  1  0  0.327829  0  0.893138  0  0  0.306077  0  0.956091  0  0  0.315911  0  0.947518  0  0  0.323129  0.29908  0  0.962289  0
H  H10  1  0.07732802  0.83390515  0.60941390  1  0  0.326299  0  0.894028  0  0  0.305217  0  0.956339  0  0  0.315032  0  0.947786  0  0  0.322803  0.29825  0  0.962491  0
H  H11  1  0.24411034  0.16610574  0.89047433  1  0  0.327952  0  0.892984  0  0  0.30612  0  0.956048  0  0  0.315955  0  0.947471  0  0  0.32315  0.299125  0  0.962245  0
H  H12  1  0.54372852  0.57069931  0.17845564  1  0  0.442312  0  0.855557  0  0  0.411101  0  0.919176  0  0  0.422884  0  0.902196  0  0  0.304988  0.402621  0  0.931581  0
H  H13  1  0.97312674  0.42935377  0.32153813  1  0  0.441337  0  0.857065  0  0  0.41051  0  0.919974  0  0  0.422272  0  0.903044  0  0  0.304933  0.402003  0  0.93241  0
H  H14  1  0.45627001  0.42930552  0.82154546  1  0  0.442308  0  0.855558  0  0  0.411069  0  0.919218  0  0  0.422853  0  0.902236  0  0  0.304953  0.402589  0  0.931623  0
H  H15  1  0.02686891  0.57064530  0.67846318  1  0  0.441301  0  0.857105  0  0  0.41046  0  0.920029  0  0  0.422218  0  0.903106  0  0  0.30492  0.401954  0  0.932463  0
H  H16  1  0.66750822  0.56783487  0.27255890  1  0  0.435273  0  0.860897  0  0  0.403748  0  0.926585  0  0  0.414833  0  0.910513  0  0  0.307028  0.395736  0  0.938391  0
H  H17  1  0.09983368  0.43225400  0.22742148  1  0  0.43513  0  0.86112  0  0  0.403837  0  0.926472  0  0  0.414913  0  0.910401  0  0  0.306964  0.39581  0  0.93831  0
H  H18  1  0.33248840  0.43216615  0.72743913  1  0  0.435301  0  0.860861  0  0  0.403745  0  0.926596  0  0  0.41483  0  0.910524  0  0  0.306998  0.395733  0  0.938404  0
H  H19  1  0.90016925  0.56774506  0.77258132  1  0  0.435165  0  0.861087  0  0  0.403883  0  0.926415  0  0  0.414958  0  0.910347  0  0  0.307002  0.39586  0  0.938248  0
C  C20  1  0.40128718  0.27364172  0.36073785  1  0  0.000796  0  3.752787  0  0  -0.004093  0  4.015208  0  0  -0.006549  0  4.036881  0  0  0.095198  -0.002813  0  4.002564  0
C  C21  1  0.12719145  0.72632111  0.13926298  1  0  0.001525  0  3.753164  0  0  -0.005366  0  4.017155  0  0  -0.007797  0  4.038757  0  0  0.094999  -0.004113  0  4.00454  0
C  C22  1  0.59870894  0.72636121  0.63926134  1  0  0.000805  0  3.752864  0  0  -0.004076  0  4.015358  0  0  -0.006536  0  4.037039  0  0  0.095183  -0.002798  0  4.002711  0
C  C23  1  0.87280764  0.27367609  0.86073344  1  0  0.001639  0  3.753197  0  0  -0.005362  0  4.017316  0  0  -0.007788  0  4.038911  0  0  0.094995  -0.00411  0  4.004697  0
C  C24  1  0.62563347  0.33848293  0.37979954  1  0  0.704461  0  3.891029  0  0  0.651812  0  4.190215  0  0  0.687155  0  4.180822  0  0  0.241237  0.627848  0  4.197757  0
C  C25  1  0.28685863  0.66151273  0.12018531  1  0  0.705299  0  3.886729  0  0  0.653638  0  4.184838  0  0  0.689046  0  4.175325  0  0  0.242707  0.62951  0  4.192726  0
C  C26  1  0.37435824  0.66152286  0.62020177  1  0  0.704542  0  3.890653  0  0  0.651746  0  4.190095  0  0  0.687096  0  4.180712  0  0  0.241291  0.627787  0  4.197624  0
C  C27  1  0.71314961  0.33849113  0.87981631  1  0  0.705184  0  3.886658  0  0  0.653564  0  4.184781  0  0  0.68897  0  4.175265  0  0  0.242629  0.629435  0  4.192671  0
C  C28  1  0.11502562  0.17433106  0.26482950  1  0  0.276259  0  3.641187  0  0  0.21317  0  3.929945  0  0  0.227444  0  3.940098  0  0  0.169324  0.203974  0  3.923557  0
C  C29  1  0.94015360  0.82565547  0.23524995  1  0  0.276786  0  3.641118  0  0  0.213894  0  3.929453  0  0  0.228179  0  3.93959  0  0  0.169306  0.204721  0  3.923039  0
C  C30  1  0.88497054  0.82566613  0.73516841  1  0  0.276276  0  3.641253  0  0  0.21314  0  3.930025  0  0  0.227416  0  3.940182  0  0  0.169321  0.203979  0  3.92364  0
C  C31  1  0.05983921  0.17433500  0.76474797  1  0  0.27679  0  3.641058  0  0  0.213871  0  3.929394  0  0  0.228153  0  3.939534  0  0  0.169239  0.204666  0  3.922976  0
C  C32  1  0.24504046  0.25885778  0.42768234  1  0  0.010698  0  3.637734  0  0  -0.00377  0  3.893028  0  0  -0.005233  0  3.910893  0  0  0.104586  -0.002873  0  3.880771  0
C  C33  1  0.98563017  0.74107997  0.07236434  1  0  0.008003  0  3.640019  0  0  -0.005284  0  3.893975  0  0  -0.006799  0  3.911916  0  0  0.104126  -0.00428  0  3.881568  0
C  C34  1  0.75495083  0.74114132  0.57231600  1  0  0.010701  0  3.637508  0  0  -0.003755  0  3.892808  0  0  -0.005219  0  3.910675  0  0  0.104631  -0.002845  0  3.880543  0
C  C35  1  0.01437182  0.25891720  0.92763506  1  0  0.007807  0  3.640166  0  0  -0.005419  0  3.894139  0  0  -0.006936  0  3.912085  0  0  0.104115  -0.004411  0  3.881727  0
C  C36  1  0.23512150  0.30812924  0.54044816  1  0  0.718932  0  3.890901  0  0  0.669401  0  4.186656  0  0  0.705132  0  4.176224  0  0  0.249032  0.64549  0  4.193809  0
C  C37  1  0.92640084  0.69177580  0.95964134  1  0  0.719705  0  3.888976  0  0  0.66988  0  4.184711  0  0  0.705605  0  4.174323  0  0  0.248476  0.645884  0  4.192066  0
C  C38  1  0.76486688  0.69186988  0.45954796  1  0  0.719028  0  3.890553  0  0  0.669527  0  4.186249  0  0  0.705257  0  4.175809  0  0  0.24908  0.645609  0  4.1934  0
C  C39  1  0.07359966  0.30822424  0.04035944  1  0  0.719729  0  3.888942  0  0  0.669845  0  4.184776  0  0  0.705571  0  4.174387  0  0  0.248415  0.645848  0  4.192134  0
C  C40  1  0.56899106  0.99522814  0.04427806  1  0  0.561579  0  3.94415  0  0  0.519707  0  4.243511  0  0  0.54875  0  4.239184  0  0  0.217803  0.499685  0  4.249161  0
C  C41  1  0.57370845  0.00472060  0.45568527  1  0  0.560525  0  3.944761  0  0  0.518764  0  4.243937  0  0  0.54781  0  4.239588  0  0  0.218413  0.498783  0  4.249609  0
C  C42  1  0.43101768  0.00477381  0.95572389  1  0  0.561253  0  3.944428  0  0  0.519518  0  4.243593  0  0  0.548561  0  4.239269  0  0  0.217716  0.499498  0  4.24924  0
C  C43  1  0.42630620  0.99526981  0.54431859  1  0  0.560494  0  3.945081  0  0  0.518773  0  4.244237  0  0  0.547819  0  4.239886  0  0  0.21835  0.49879  0  4.249909  0
N  N44  1  0.31671762  0.22150478  0.25971322  1  0  -0.494935  0  3.155029  0  0  -0.453694  0  3.443323  0  0  -0.473088  0  3.457777  0  0  -0.385434  -0.444163  0  3.433898  0
N  N45  1  0.09481103  0.77850139  0.24031360  1  0  -0.495823  0  3.155492  0  0  -0.454358  0  3.44436  0  0  -0.473667  0  3.458804  0  0  -0.38556  -0.44481  0  3.434943  0
N  N46  1  0.68327998  0.77849528  0.74028533  1  0  -0.494928  0  3.15509  0  0  -0.453667  0  3.443408  0  0  -0.473069  0  3.457864  0  0  -0.385437  -0.444131  0  3.433965  0
N  N47  1  0.90518663  0.22149003  0.75968453  1  0  -0.49583  0  3.155527  0  0  -0.454325  0  3.444424  0  0  -0.473636  0  3.458869  0  0  -0.385535  -0.444781  0  3.435024  0
N  N48  1  0.06686203  0.19513592  0.36403667  1  0  -0.275065  0  3.394269  0  0  -0.212503  0  3.628823  0  0  -0.2277  0  3.640835  0  0  -0.352176  -0.20215  0  3.620133  0
N  N49  1  0.87110060  0.80480685  0.13605168  1  0  -0.275359  0  3.393297  0  0  -0.211933  0  3.62669  0  0  -0.22713  0  3.63868  0  0  -0.352073  -0.201535  0  3.617912  0
N  N50  1  0.93313460  0.80486221  0.63596294  1  0  -0.27514  0  3.394043  0  0  -0.212623  0  3.628624  0  0  -0.227823  0  3.640637  0  0  -0.35221  -0.202271  0  3.619922  0
N  N51  1  0.12889509  0.19518647  0.86394910  1  0  -0.275345  0  3.393157  0  0  -0.211856  0  3.62658  0  0  -0.227051  0  3.638571  0  0  -0.352014  -0.201464  0  3.617816  0
O  O52  1  0.72122496  0.35033624  0.29891448  1  0  -0.714427  0  2.045709  0  0  -0.648523  0  2.286294  0  0  -0.678608  0  2.271872  0  0  -0.377832  -0.630826  0  2.294681  0
O  O53  1  0.37064441  0.64967763  0.20107924  1  0  -0.715829  0  2.044955  0  0  -0.649592  0  2.284626  0  0  -0.679641  0  2.270182  0  0  -0.378127  -0.631892  0  2.293204  0
O  O54  1  0.27876525  0.64967239  0.70109119  1  0  -0.714451  0  2.04548  0  0  -0.648472  0  2.286172  0  0  -0.678537  0  2.271694  0  0  -0.377872  -0.630781  0  2.294573  0
O  O55  1  0.62934738  0.35031664  0.79892250  1  0  -0.715777  0  2.044927  0  0  -0.649537  0  2.284595  0  0  -0.679589  0  2.270149  0  0  -0.378072  -0.63184  0  2.293172  0
O  O56  1  0.06197161  0.31307392  0.57026964  1  0  -0.731844  0  2.050435  0  0  -0.679943  0  2.312817  0  0  -0.709216  0  2.295858  0  0  -0.412354  -0.66378  0  2.321907  0
O  O57  1  0.74826118  0.68670871  0.92981504  1  0  -0.730465  0  2.04969  0  0  -0.678412  0  2.312069  0  0  -0.707862  0  2.295224  0  0  -0.41141  -0.662184  0  2.321094  0
O  O58  1  0.93802157  0.68693481  0.42972562  1  0  -0.731907  0  2.050286  0  0  -0.680003  0  2.312627  0  0  -0.709274  0  2.295666  0  0  -0.412395  -0.663835  0  2.321721  0
O  O59  1  0.25174076  0.31329421  0.07018564  1  0  -0.730438  0  2.049672  0  0  -0.678359  0  2.312043  0  0  -0.707802  0  2.295202  0  0  -0.411401  -0.662131  0  2.321068  0
O  O60  1  0.71554091  0.37888774  0.46930118  1  0  -0.689302  0  2.014124  0  0  -0.641183  0  2.2669  0  0  -0.66901  0  2.251955  0  0  -0.393025  -0.625624  0  2.275084  0
O  O61  1  0.33656512  0.62111450  0.03070138  1  0  -0.68922  0  2.013618  0  0  -0.641066  0  2.265631  0  0  -0.668966  0  2.250502  0  0  -0.394281  -0.625544  0  2.274129  0
O  O62  1  0.28445035  0.62111131  0.53070236  1  0  -0.689335  0  2.014004  0  0  -0.641158  0  2.266838  0  0  -0.668997  0  2.251916  0  0  -0.393039  -0.625598  0  2.27502  0
O  O63  1  0.66347072  0.37890374  0.96930120  1  0  -0.689185  0  2.013614  0  0  -0.64104  0  2.265629  0  0  -0.668935  0  2.2505  0  0  -0.394288  -0.625518  0  2.274129  0
O  O64  1  0.39530415  0.34419891  0.60229406  1  0  -0.723721  0  2.046556  0  0  -0.663207  0  2.291703  0  0  -0.693569  0  2.277455  0  0  -0.37485  -0.645711  0  2.299442  0
O  O65  1  0.05059864  0.65578461  0.89775333  1  0  -0.724572  0  2.045167  0  0  -0.664164  0  2.290401  0  0  -0.694646  0  2.276151  0  0  -0.375301  -0.64669  0  2.298397  0
O  O66  1  0.60468233  0.65579059  0.39770513  1  0  -0.723729  0  2.046442  0  0  -0.663251  0  2.291581  0  0  -0.693615  0  2.277351  0  0  -0.374863  -0.645779  0  2.299384  0
O  O67  1  0.94940720  0.34421443  0.10225021  1  0  -0.724619  0  2.045222  0  0  -0.664193  0  2.29048  0  0  -0.694667  0  2.27623  0  0  -0.375286  -0.646708  0  2.298455  0
O  O68  1  0.64972803  0.09518433  0.11606628  1  0  -0.653482  0  2.017227  0  0  -0.612812  0  2.258673  0  0  -0.63889  0  2.246839  0  0  -0.365176  -0.598276  0  2.265553  0
O  O69  1  0.55418656  0.90478703  0.38381160  1  0  -0.653541  0  2.01783  0  0  -0.612979  0  2.259175  0  0  -0.63896  0  2.247385  0  0  -0.365834  -0.59846  0  2.266001  0
O  O70  1  0.35027480  0.90482330  0.88394363  1  0  -0.653359  0  2.017503  0  0  -0.612711  0  2.25889  0  0  -0.638794  0  2.247058  0  0  -0.365138  -0.598174  0  2.265765  0
O  O71  1  0.44582121  0.09521297  0.61619289  1  0  -0.653578  0  2.017813  0  0  -0.613035  0  2.25914  0  0  -0.639025  0  2.247355  0  0  -0.365846  -0.598521  0  2.265969  0
O  O72  1  0.64429837  0.52978247  0.19683166  1  0  -0.913912  0  1.829132  0  0  -0.866425  0  2.026657  0  0  -0.890696  0  1.989152  0  0  -0.653466  -0.853495  0  2.050781  0
O  O73  1  0.11450834  0.47031954  0.30314945  1  0  -0.912893  0  1.830596  0  0  -0.865868  0  2.027517  0  0  -0.889945  0  1.990056  0  0  -0.653253  -0.852932  0  2.051797  0
O  O74  1  0.35570162  0.47022239  0.80316646  1  0  -0.913946  0  1.829094  0  0  -0.866385  0  2.026649  0  0  -0.89067  0  1.989149  0  0  -0.653377  -0.853454  0  2.05077  0
O  O75  1  0.88549218  0.52967760  0.69685293  1  0  -0.912889  0  1.830638  0  0  -0.865853  0  2.027599  0  0  -0.889932  0  1.99014  0  0  -0.653268  -0.852917  0  2.051877  0
O  O76  1  0.58902364  0.88557966  0.03584786  1  0  -0.677998  0  2.093232  0  0  -0.625997  0  2.331984  0  0  -0.654368  0  2.321623  0  0  -0.360937  -0.609558  0  2.338067  0
O  O77  1  0.70356971  0.11427359  0.46416333  1  0  -0.677238  0  2.092605  0  0  -0.625501  0  2.331377  0  0  -0.653802  0  2.321045  0  0  -0.36122  -0.609125  0  2.337426  0
O  O78  1  0.41099478  0.11443289  0.96414899  1  0  -0.677967  0  2.093275  0  0  -0.625989  0  2.331958  0  0  -0.654358  0  2.321598  0  0  -0.360888  -0.609547  0  2.33804  0
O  O79  1  0.29645169  0.88572448  0.53584148  1  0  -0.677221  0  2.092985  0  0  -0.625485  0  2.331747  0  0  -0.653784  0  2.321416  0  0  -0.361148  -0.609111  0  2.337797  0
