# generated using pymatgen
data_CaH6C10O7
_symmetry_space_group_name_H-M   'P 1'
_cell_length_a   4.29209306
_cell_length_b   10.75306844
_cell_length_c   21.63293299
_cell_angle_alpha   89.99999497
_cell_angle_beta   89.99995916
_cell_angle_gamma   91.85203965
_symmetry_Int_Tables_number   1
_chemical_formula_structural   CaH6C10O7
_chemical_formula_sum   'Ca4 H24 C40 O28'
_cell_volume   997.90688293
_cell_formula_units_Z   4
loop_
 _symmetry_equiv_pos_site_id
 _symmetry_equiv_pos_as_xyz
  1  'x, y, z'
loop_
 _atom_site_type_symbol
 _atom_site_label
 _atom_site_symmetry_multiplicity
 _atom_site_fract_x
 _atom_site_fract_y
 _atom_site_fract_z
 _atom_site_occupancy
 _atom_site_hle17_bader_spin_density
 _atom_site_hle17_ddec_charge
 _atom_site_hle17_ddec_spin_density
 _atom_site_hle17_ddec_sum_bond_order
 _atom_site_hle17_magmom
 _atom_site_hse06_10hf_bader_spin_density
 _atom_site_hse06_10hf_ddec_charge
 _atom_site_hse06_10hf_ddec_spin_density
 _atom_site_hse06_10hf_ddec_sum_bond_order
 _atom_site_hse06_10hf_magmom
 _atom_site_hse06_bader_spin_density
 _atom_site_hse06_ddec_charge
 _atom_site_hse06_ddec_spin_density
 _atom_site_hse06_ddec_sum_bond_order
 _atom_site_hse06_magmom
 _atom_site_pbe_bader_spin_density
 _atom_site_pbe_cm5_charge
 _atom_site_pbe_ddec_charge
 _atom_site_pbe_ddec_spin_density
 _atom_site_pbe_ddec_sum_bond_order
 _atom_site_pbe_magmom
Ca  Ca0  1  0.58810319  0.17868369  0.50688915  1  0  1.549749  0  1.089495  0  0  1.420703  0  1.436124  0  0  1.465754  0  1.390812  0  0  0.909806  1.386824  0  1.46834  0
Ca  Ca1  1  0.41189743  0.32131565  0.00688900  1  0  1.549738  0  1.089511  0  0  1.420692  0  1.436151  0  0  1.465738  0  1.390842  0  0  0.909798  1.386807  0  1.468379  0
Ca  Ca2  1  0.41189829  0.82131631  0.49311062  1  0  1.54974  0  1.08951  0  0  1.420688  0  1.436143  0  0  1.465734  0  1.390836  0  0  0.909794  1.386805  0  1.468363  0
Ca  Ca3  1  0.58810165  0.67868342  0.99311077  1  0  1.549743  0  1.089484  0  0  1.420688  0  1.43613  0  0  1.465731  0  1.390825  0  0  0.909799  1.386814  0  1.468337  0
H  H4  1  0.17231133  0.52629716  0.43857805  1  0  0.118322  0  0.931722  0  0  0.127666  0  0.993411  0  0  0.132353  0  0.989061  0  0  0.122828  0.124307  0  0.996535  0
H  H5  1  0.82768647  0.97370258  0.93857769  1  0  0.118294  0  0.931761  0  0  0.127658  0  0.993434  0  0  0.132343  0  0.989086  0  0  0.122833  0.124299  0  0.996561  0
H  H6  1  0.82769014  0.47370284  0.56142172  1  0  0.118305  0  0.931729  0  0  0.127646  0  0.99342  0  0  0.132334  0  0.989068  0  0  0.122819  0.124288  0  0.996544  0
H  H7  1  0.17230801  0.02629741  0.06142254  1  0  0.118339  0  0.931734  0  0  0.127693  0  0.993404  0  0  0.132369  0  0.989066  0  0  0.12283  0.124335  0  0.996529  0
H  H8  1  0.75905101  0.70489135  0.28133118  1  0  0.128301  0  0.93045  0  0  0.137331  0  0.993405  0  0  0.141787  0  0.989812  0  0  0.113246  0.134055  0  0.996218  0
H  H9  1  0.24095202  0.79510844  0.78133184  1  0  0.128326  0  0.930434  0  0  0.137365  0  0.993368  0  0  0.141812  0  0.989784  0  0  0.113251  0.134071  0  0.996196  0
H  H10  1  0.24095046  0.29510866  0.71866813  1  0  0.128345  0  0.930433  0  0  0.137369  0  0.993367  0  0  0.141818  0  0.98978  0  0  0.113256  0.134077  0  0.996196  0
H  H11  1  0.75904473  0.20489063  0.21866886  1  0  0.1283  0  0.930471  0  0  0.13734  0  0.993415  0  0  0.141791  0  0.989826  0  0  0.113253  0.13407  0  0.996217  0
H  H12  1  0.32842390  0.38518208  0.25528019  1  0  0.124476  0  0.944963  0  0  0.134306  0  1.007825  0  0  0.138107  0  1.005067  0  0  0.113064  0.131536  0  1.009987  0
H  H13  1  0.67157821  0.11481814  0.75527987  1  0  0.124488  0  0.944956  0  0  0.134316  0  1.007822  0  0  0.138117  0  1.005063  0  0  0.113061  0.131546  0  1.009983  0
H  H14  1  0.67157757  0.61481792  0.74471958  1  0  0.124494  0  0.944959  0  0  0.134325  0  1.007821  0  0  0.138125  0  1.005063  0  0  0.113065  0.131554  0  1.009983  0
H  H15  1  0.32842333  0.88518280  0.24472036  1  0  0.124459  0  0.94497  0  0  0.134288  0  1.007838  0  0  0.13809  0  1.00508  0  0  0.113056  0.131518  0  1.01  0
H  H16  1  0.11479983  0.39997779  0.15531688  1  0  0.102889  0  0.932318  0  0  0.115022  0  0.993716  0  0  0.116064  0  0.992963  0  0  0.120194  0.114131  0  0.994667  0
H  H17  1  0.88520258  0.10002152  0.65531653  1  0  0.102892  0  0.9323  0  0  0.11503  0  0.993693  0  0  0.116067  0  0.992939  0  0  0.120183  0.114138  0  0.994645  0
H  H18  1  0.88520391  0.60002129  0.84468335  1  0  0.102868  0  0.932334  0  0  0.115007  0  0.993735  0  0  0.11604  0  0.992981  0  0  0.120181  0.114116  0  0.994686  0
H  H19  1  0.11479882  0.89997755  0.34468324  1  0  0.10288  0  0.932316  0  0  0.115012  0  0.993711  0  0  0.116059  0  0.992964  0  0  0.120184  0.114121  0  0.994664  0
H  H20  1  0.41612856  0.51470144  0.16689272  1  0  0.107695  0  0.933267  0  0  0.11307  0  1.003433  0  0  0.115553  0  1.001131  0  0  0.118799  0.111241  0  1.005292  0
H  H21  1  0.58387262  0.98529930  0.66689379  1  0  0.107667  0  0.933235  0  0  0.113033  0  1.003431  0  0  0.115514  0  1.001129  0  0  0.118783  0.111202  0  1.00529  0
H  H22  1  0.58387292  0.48529856  0.83310658  1  0  0.107681  0  0.933186  0  0  0.113055  0  1.003374  0  0  0.115532  0  1.001069  0  0  0.118792  0.111226  0  1.005233  0
H  H23  1  0.41612659  0.01470163  0.33310644  1  0  0.107705  0  0.933209  0  0  0.113068  0  1.0034  0  0  0.115554  0  1.0011  0  0  0.118811  0.111237  0  1.005262  0
H  H24  1  0.71439848  0.20965702  0.36080770  1  0  0.406601  0  0.876274  0  0  0.369688  0  0.966417  0  0  0.382945  0  0.951778  0  0  0.312642  0.360265  0  0.976874  0
H  H25  1  0.28560333  0.29034410  0.86080743  1  0  0.406611  0  0.876305  0  0  0.369671  0  0.966467  0  0  0.382928  0  0.951828  0  0  0.312638  0.36025  0  0.976916  0
H  H26  1  0.28560306  0.79034391  0.63919207  1  0  0.406622  0  0.876264  0  0  0.369689  0  0.966418  0  0  0.382944  0  0.95178  0  0  0.312655  0.360268  0  0.976865  0
H  H27  1  0.71439582  0.70965590  0.13919188  1  0  0.40663  0  0.87627  0  0  0.369684  0  0.966449  0  0  0.38294  0  0.95181  0  0  0.312658  0.360263  0  0.976898  0
C  C28  1  0.26611072  0.44646443  0.34946437  1  0  -0.061603  0  3.794363  0  0  -0.038069  0  4.034425  0  0  -0.046764  0  4.05833  0  0  -0.015906  -0.032301  0  4.018257  0
C  C29  1  0.73388873  0.05353577  0.84946451  1  0  -0.061683  0  3.79428  0  0  -0.038141  0  4.03439  0  0  -0.04684  0  4.058297  0  0  -0.015912  -0.032374  0  4.018227  0
C  C30  1  0.73389075  0.55353558  0.65053540  1  0  -0.061544  0  3.794312  0  0  -0.038012  0  4.034407  0  0  -0.046709  0  4.058305  0  0  -0.015834  -0.032242  0  4.01824  0
C  C31  1  0.26610808  0.94646423  0.15053572  1  0  -0.061691  0  3.794267  0  0  -0.038123  0  4.034318  0  0  -0.046816  0  4.058212  0  0  -0.015935  -0.032356  0  4.018153  0
C  C32  1  0.13488098  0.53305830  0.38894123  1  0  -0.067909  0  3.681654  0  0  -0.11366  0  3.93902  0  0  -0.111006  0  3.955848  0  0  -0.069561  -0.114905  0  3.927292  0
C  C33  1  0.86511700  0.96694145  0.88894179  1  0  -0.067817  0  3.681468  0  0  -0.113595  0  3.938864  0  0  -0.110944  0  3.955694  0  0  -0.069542  -0.114844  0  3.927146  0
C  C34  1  0.86511816  0.46694170  0.61105854  1  0  -0.067872  0  3.681604  0  0  -0.113632  0  3.938965  0  0  -0.110975  0  3.955786  0  0  -0.069577  -0.114879  0  3.92724  0
C  C35  1  0.13487742  0.03305761  0.11105844  1  0  -0.067888  0  3.681517  0  0  -0.113647  0  3.938859  0  0  -0.11098  0  3.955682  0  0  -0.069522  -0.114891  0  3.927131  0
C  C36  1  0.95398374  0.62683114  0.36427785  1  0  -0.043494  0  3.786311  0  0  -0.017874  0  4.024304  0  0  -0.024688  0  4.045885  0  0  -0.009293  -0.01402  0  4.010677  0
C  C37  1  0.04601666  0.87316863  0.86427807  1  0  -0.043454  0  3.786228  0  0  -0.017845  0  4.024231  0  0  -0.024651  0  4.045796  0  0  -0.00927  -0.01399  0  4.010599  0
C  C38  1  0.04601774  0.37316887  0.63572146  1  0  -0.043586  0  3.786352  0  0  -0.017936  0  4.024249  0  0  -0.024765  0  4.045854  0  0  -0.009287  -0.014079  0  4.010618  0
C  C39  1  0.95397782  0.12683137  0.13572216  1  0  -0.043529  0  3.786167  0  0  -0.017916  0  4.024154  0  0  -0.024741  0  4.045752  0  0  -0.009308  -0.014061  0  4.010529  0
C  C40  1  0.90361757  0.63326047  0.30075664  1  0  -0.143395  0  3.664667  0  0  -0.184539  0  3.922415  0  0  -0.184885  0  3.938542  0  0  -0.07973  -0.183869  0  3.911783  0
C  C41  1  0.09638552  0.86674117  0.80075686  1  0  -0.143399  0  3.664707  0  0  -0.184532  0  3.922416  0  0  -0.184869  0  3.938549  0  0  -0.079691  -0.183843  0  3.911781  0
C  C42  1  0.09638164  0.36674046  0.69924313  1  0  -0.143443  0  3.664841  0  0  -0.184539  0  3.922476  0  0  -0.18487  0  3.938603  0  0  -0.079707  -0.183854  0  3.911847  0
C  C43  1  0.90361130  0.13325883  0.19924384  1  0  -0.143358  0  3.664667  0  0  -0.184501  0  3.922387  0  0  -0.184839  0  3.93852  0  0  -0.079702  -0.183834  0  3.911747  0
C  C44  1  0.04067311  0.54749848  0.26126738  1  0  0.267588  0  3.798889  0  0  0.263024  0  4.060826  0  0  0.270906  0  4.077959  0  0  0.086739  0.257322  0  4.049115  0
C  C45  1  0.95932766  0.95250131  0.76126793  1  0  0.267671  0  3.798866  0  0  0.263104  0  4.06079  0  0  0.27098  0  4.077933  0  0  0.086755  0.257406  0  4.049072  0
C  C46  1  0.95932604  0.45250152  0.73873193  1  0  0.267661  0  3.798918  0  0  0.263104  0  4.060805  0  0  0.270983  0  4.077958  0  0  0.086744  0.257406  0  4.049093  0
C  C47  1  0.04066915  0.04749869  0.23873277  1  0  0.267578  0  3.798987  0  0  0.263015  0  4.060907  0  0  0.270886  0  4.078054  0  0  0.086723  0.257311  0  4.049197  0
C  C48  1  0.22261958  0.45337801  0.28517443  1  0  -0.170555  0  3.678106  0  0  -0.210032  0  3.932749  0  0  -0.211013  0  3.950999  0  0  -0.091454  -0.209146  0  3.920521  0
C  C49  1  0.77738470  0.04662127  0.78517457  1  0  -0.170629  0  3.678196  0  0  -0.210105  0  3.932848  0  0  -0.211085  0  3.951102  0  0  -0.091488  -0.209216  0  3.920617  0
C  C50  1  0.77738183  0.54662106  0.71482533  1  0  -0.170642  0  3.678167  0  0  -0.210134  0  3.932821  0  0  -0.21111  0  3.951073  0  0  -0.091484  -0.209246  0  3.920589  0
C  C51  1  0.22261678  0.95337873  0.21482566  1  0  -0.170525  0  3.678105  0  0  -0.21002  0  3.932753  0  0  -0.210997  0  3.951003  0  0  -0.09145  -0.209133  0  3.920525  0
C  C52  1  0.45340178  0.34779360  0.37747351  1  0  0.676285  0  3.788177  0  0  0.628081  0  4.077622  0  0  0.662348  0  4.068896  0  0  0.248439  0.604516  0  4.08347  0
C  C53  1  0.54659757  0.15220659  0.87747321  1  0  0.676469  0  3.788133  0  0  0.62822  0  4.077629  0  0  0.662496  0  4.068902  0  0  0.248518  0.604655  0  4.083482  0
C  C54  1  0.54659969  0.65220641  0.62252626  1  0  0.676446  0  3.788147  0  0  0.628205  0  4.077634  0  0  0.662487  0  4.06889  0  0  0.248469  0.604638  0  4.083486  0
C  C55  1  0.45339925  0.84779341  0.12252656  1  0  0.676469  0  3.788234  0  0  0.628228  0  4.077707  0  0  0.662501  0  4.068976  0  0  0.248493  0.604663  0  4.083558  0
C  C56  1  0.81216463  0.72068846  0.40572392  1  0  0.647432  0  3.933162  0  0  0.602681  0  4.219031  0  0  0.636113  0  4.212252  0  0  0.210252  0.580021  0  4.222782  0
C  C57  1  0.18783569  0.77931223  0.90572413  1  0  0.647452  0  3.933136  0  0  0.602721  0  4.21898  0  0  0.636153  0  4.2122  0  0  0.210275  0.580062  0  4.222732  0
C  C58  1  0.18783691  0.27931248  0.59427585  1  0  0.64763  0  3.932952  0  0  0.60287  0  4.218816  0  0  0.636306  0  4.212026  0  0  0.210313  0.58021  0  4.22257  0
C  C59  1  0.81216113  0.22068777  0.09427610  1  0  0.64752  0  3.933047  0  0  0.602778  0  4.218901  0  0  0.636213  0  4.212116  0  0  0.210288  0.580119  0  4.222649  0
C  C60  1  0.16671300  0.50093663  0.15611473  1  0  -0.087605  0  3.618887  0  0  -0.14462  0  3.878575  0  0  -0.140906  0  3.877593  0  0  -0.059356  -0.147095  0  3.879413  0
C  C61  1  0.83329055  0.99906411  0.65611530  1  0  -0.087652  0  3.618846  0  0  -0.14467  0  3.878532  0  0  -0.140938  0  3.877525  0  0  -0.059374  -0.147138  0  3.879367  0
C  C62  1  0.83329553  0.49906432  0.84388504  1  0  -0.08764  0  3.618864  0  0  -0.144665  0  3.878565  0  0  -0.140909  0  3.877541  0  0  -0.059366  -0.147137  0  3.879407  0
C  C63  1  0.16671106  0.00093775  0.34388540  1  0  -0.087589  0  3.618865  0  0  -0.144585  0  3.878512  0  0  -0.140895  0  3.877561  0  0  -0.05934  -0.147063  0  3.879349  0
C  C64  1  0.10342809  0.55419606  0.09250292  1  0  0.731106  0  3.812546  0  0  0.675327  0  4.120917  0  0  0.710171  0  4.109648  0  0  0.252127  0.651388  0  4.128123  0
C  C65  1  0.89657089  0.94580283  0.59250302  1  0  0.731138  0  3.812637  0  0  0.675347  0  4.121026  0  0  0.710189  0  4.109748  0  0  0.252114  0.651406  0  4.128233  0
C  C66  1  0.89657325  0.44580208  0.90749638  1  0  0.731109  0  3.81267  0  0  0.675327  0  4.121036  0  0  0.710164  0  4.109765  0  0  0.252095  0.651389  0  4.128243  0
C  C67  1  0.10343058  0.05419718  0.40749675  1  0  0.731098  0  3.812593  0  0  0.675312  0  4.120975  0  0  0.710159  0  4.109708  0  0  0.252106  0.651379  0  4.128168  0
O  O68  1  0.48612953  0.33823876  0.43436963  1  0  -0.62048  0  1.968858  0  0  -0.56833  0  2.200083  0  0  -0.592016  0  2.190128  0  0  -0.326366  -0.551915  0  2.206743  0
O  O69  1  0.51386955  0.16176049  0.93436979  1  0  -0.620602  0  1.968863  0  0  -0.568436  0  2.200112  0  0  -0.592125  0  2.190156  0  0  -0.326425  -0.55202  0  2.206779  0
O  O70  1  0.51387195  0.66176125  0.56563014  1  0  -0.620618  0  1.968902  0  0  -0.568448  0  2.200138  0  0  -0.592137  0  2.190176  0  0  -0.326419  -0.552033  0  2.206802  0
O  O71  1  0.48612726  0.83823951  0.06563044  1  0  -0.620594  0  1.968898  0  0  -0.56844  0  2.200138  0  0  -0.592123  0  2.190179  0  0  -0.326411  -0.552024  0  2.206802  0
O  O72  1  0.58062316  0.27070810  0.33732962  1  0  -0.544076  0  2.095932  0  0  -0.494155  0  2.322706  0  0  -0.516535  0  2.308485  0  0  -0.3201  -0.478526  0  2.332525  0
O  O73  1  0.41937859  0.22929117  0.83732887  1  0  -0.544108  0  2.095973  0  0  -0.494145  0  2.322809  0  0  -0.516529  0  2.308584  0  0  -0.320101  -0.478514  0  2.33262  0
O  O74  1  0.41937824  0.72929098  0.66267062  1  0  -0.544105  0  2.095925  0  0  -0.494155  0  2.322744  0  0  -0.516539  0  2.308522  0  0  -0.320094  -0.478526  0  2.332557  0
O  O75  1  0.58062062  0.77070976  0.16267044  1  0  -0.544151  0  2.096003  0  0  -0.494185  0  2.322816  0  0  -0.516576  0  2.308613  0  0  -0.320125  -0.478554  0  2.332629  0
O  O76  1  0.93095761  0.73910069  0.45990057  1  0  -0.761035  0  1.981227  0  0  -0.698198  0  2.230073  0  0  -0.726591  0  2.218977  0  0  -0.40441  -0.67757  0  2.236771  0
O  O77  1  0.06904245  0.76089905  0.95990079  1  0  -0.761082  0  1.981187  0  0  -0.698246  0  2.230022  0  0  -0.726638  0  2.218927  0  0  -0.40444  -0.677622  0  2.236725  0
O  O78  1  0.06904154  0.26089931  0.54009920  1  0  -0.761115  0  1.98113  0  0  -0.698286  0  2.229987  0  0  -0.726679  0  2.218888  0  0  -0.404439  -0.677659  0  2.236688  0
O  O79  1  0.93095669  0.23910095  0.04009944  1  0  -0.761067  0  1.981143  0  0  -0.698238  0  2.230007  0  0  -0.726632  0  2.218909  0  0  -0.404423  -0.67761  0  2.236708  0
O  O80  1  0.57509018  0.77798943  0.38789140  1  0  -0.666134  0  1.938641  0  0  -0.617387  0  2.17494  0  0  -0.6439  0  2.169106  0  0  -0.351587  -0.598742  0  2.178498  0
O  O81  1  0.42491020  0.72201126  0.88789158  1  0  -0.666126  0  1.93864  0  0  -0.617388  0  2.174928  0  0  -0.6439  0  2.169095  0  0  -0.351582  -0.598742  0  2.178485  0
O  O82  1  0.42491136  0.22201150  0.61210837  1  0  -0.666181  0  1.938631  0  0  -0.617445  0  2.174944  0  0  -0.643954  0  2.169104  0  0  -0.351592  -0.598799  0  2.178502  0
O  O83  1  0.57508422  0.27798780  0.11210819  1  0  -0.666156  0  1.938645  0  0  -0.617422  0  2.174944  0  0  -0.64393  0  2.169106  0  0  -0.351593  -0.598775  0  2.178502  0
O  O84  1  0.97782943  0.56291372  0.19981147  1  0  -0.265005  0  2.382077  0  0  -0.193246  0  2.614023  0  0  -0.210493  0  2.61735  0  0  -0.177588  -0.180917  0  2.611451  0
O  O85  1  0.02217389  0.93708609  0.69981170  1  0  -0.265058  0  2.381986  0  0  -0.193285  0  2.613916  0  0  -0.210541  0  2.617244  0  0  -0.177623  -0.180968  0  2.611351  0
O  O86  1  0.02217437  0.43708629  0.80018829  1  0  -0.265017  0  2.382026  0  0  -0.193271  0  2.613974  0  0  -0.210554  0  2.617312  0  0  -0.177607  -0.180954  0  2.611413  0
O  O87  1  0.97782759  0.06291392  0.30018854  1  0  -0.265031  0  2.382098  0  0  -0.193265  0  2.614028  0  0  -0.210502  0  2.617367  0  0  -0.177602  -0.180929  0  2.611452  0
O  O88  1  0.27575554  0.51823404  0.04831334  1  0  -0.755902  0  2.003427  0  0  -0.694838  0  2.271721  0  0  -0.724  0  2.260083  0  0  -0.384997  -0.673874  0  2.279026  0
O  O89  1  0.72424360  0.98176486  0.54831393  1  0  -0.755894  0  2.003485  0  0  -0.69484  0  2.271816  0  0  -0.724002  0  2.26018  0  0  -0.38499  -0.673878  0  2.279121  0
O  O90  1  0.72424813  0.48176411  0.95168643  1  0  -0.755869  0  2.003432  0  0  -0.694813  0  2.271762  0  0  -0.723978  0  2.260129  0  0  -0.384964  -0.67385  0  2.279066  0
O  O91  1  0.27575554  0.01823514  0.45168677  1  0  -0.755908  0  2.003432  0  0  -0.694836  0  2.271722  0  0  -0.723995  0  2.260081  0  0  -0.384986  -0.673876  0  2.279023  0
O  O92  1  0.89064483  0.63181594  0.08589489  1  0  -0.673246  0  2.055094  0  0  -0.611932  0  2.301407  0  0  -0.639278  0  2.291072  0  0  -0.3178  -0.592712  0  2.308258  0
O  O93  1  0.10935185  0.86818295  0.58589464  1  0  -0.673252  0  2.055114  0  0  -0.611937  0  2.301427  0  0  -0.639288  0  2.291098  0  0  -0.317787  -0.592712  0  2.308265  0
O  O94  1  0.10935425  0.36818313  0.91410396  1  0  -0.673257  0  2.055132  0  0  -0.61195  0  2.301475  0  0  -0.639281  0  2.291103  0  0  -0.317799  -0.59272  0  2.308307  0
O  O95  1  0.89064729  0.13181705  0.41410467  1  0  -0.673235  0  2.055104  0  0  -0.611938  0  2.301416  0  0  -0.639286  0  2.291083  0  0  -0.317791  -0.592717  0  2.308261  0
