# generated using pymatgen
data_HgH12C8(SN3)2
_symmetry_space_group_name_H-M   'P 1'
_cell_length_a   6.44441935
_cell_length_b   8.96647554
_cell_length_c   10.52912929
_cell_angle_alpha   83.09078931
_cell_angle_beta   81.84091413
_cell_angle_gamma   86.70034113
_symmetry_Int_Tables_number   1
_chemical_formula_structural   HgH12C8(SN3)2
_chemical_formula_sum   'Hg2 H24 C16 S4 N12'
_cell_volume   597.37272307
_cell_formula_units_Z   2
loop_
 _symmetry_equiv_pos_site_id
 _symmetry_equiv_pos_as_xyz
  1  'x, y, z'
loop_
 _atom_site_type_symbol
 _atom_site_label
 _atom_site_symmetry_multiplicity
 _atom_site_fract_x
 _atom_site_fract_y
 _atom_site_fract_z
 _atom_site_occupancy
 _atom_site_hle17_bader_spin_density
 _atom_site_hle17_ddec_charge
 _atom_site_hle17_ddec_spin_density
 _atom_site_hle17_ddec_sum_bond_order
 _atom_site_hle17_magmom
 _atom_site_hse06_10hf_bader_spin_density
 _atom_site_hse06_10hf_ddec_charge
 _atom_site_hse06_10hf_ddec_spin_density
 _atom_site_hse06_10hf_ddec_sum_bond_order
 _atom_site_hse06_10hf_magmom
 _atom_site_hse06_bader_spin_density
 _atom_site_hse06_ddec_charge
 _atom_site_hse06_ddec_spin_density
 _atom_site_hse06_ddec_sum_bond_order
 _atom_site_hse06_magmom
 _atom_site_pbe_bader_spin_density
 _atom_site_pbe_cm5_charge
 _atom_site_pbe_ddec_charge
 _atom_site_pbe_ddec_spin_density
 _atom_site_pbe_ddec_sum_bond_order
 _atom_site_pbe_magmom
Hg  Hg0  1  0.21696023  0.13370335  0.31629289  1  0  0.610098  0  2.013752  0  0  0.466072  0  2.463692  0  0  0.510015  0  2.44198  0  0  0.513503  0.435357  0  2.478143  0
Hg  Hg1  1  0.78302900  0.86629839  0.68371480  1  0  0.610114  0  2.013908  0  0  0.466106  0  2.463829  0  0  0.51005  0  2.442112  0  0  0.513518  0.435394  0  2.478284  0
H  H2  1  0.74868508  0.13577224  0.23291370  1  0  0.068161  0  0.928781  0  0  0.078579  0  0.998895  0  0  0.078419  0  0.999301  0  0  0.109788  0.078735  0  0.99855  0
H  H3  1  0.25129199  0.86422171  0.76709387  1  0  0.068158  0  0.92896  0  0  0.078553  0  0.999044  0  0  0.078387  0  0.999457  0  0  0.109777  0.078709  0  0.9987  0
H  H4  1  0.69565019  0.17585235  0.39754145  1  0  0.068685  0  0.955149  0  0  0.081522  0  1.023751  0  0  0.080599  0  1.025408  0  0  0.108237  0.082269  0  1.022548  0
H  H5  1  0.30433459  0.82414724  0.60245258  1  0  0.068559  0  0.954958  0  0  0.08138  0  1.023614  0  0  0.080454  0  1.025274  0  0  0.108175  0.082128  0  1.022411  0
H  H6  1  0.45036512  0.38160822  0.45492718  1  0  0.066894  0  0.975915  0  0  0.071644  0  1.056953  0  0  0.072468  0  1.056565  0  0  0.109396  0.071063  0  1.057116  0
H  H7  1  0.54962829  0.61840588  0.54507326  1  0  0.066934  0  0.976064  0  0  0.071642  0  1.057133  0  0  0.072455  0  1.05674  0  0  0.109412  0.071061  0  1.057301  0
H  H8  1  0.33046660  0.49356839  0.32962522  1  0  0.071907  0  0.917967  0  0  0.087146  0  0.981949  0  0  0.087445  0  0.981202  0  0  0.116285  0.086793  0  0.983128  0
H  H9  1  0.66951566  0.50644914  0.67037770  1  0  0.071721  0  0.918009  0  0  0.086987  0  0.981976  0  0  0.087275  0  0.981234  0  0  0.116218  0.086634  0  0.983156  0
H  H10  1  0.40028793  0.43627037  0.10980201  1  0  0.075815  0  0.943  0  0  0.083121  0  1.018346  0  0  0.084382  0  1.01676  0  0  0.11687  0.082187  0  1.019434  0
H  H11  1  0.59970465  0.56372800  0.89020099  1  0  0.075842  0  0.943099  0  0  0.083164  0  1.01842  0  0  0.08442  0  1.016844  0  0  0.11688  0.082226  0  1.019508  0
H  H12  1  0.58223924  0.28551226  0.06914695  1  0  0.071174  0  0.929505  0  0  0.083116  0  0.996935  0  0  0.083068  0  0.997318  0  0  0.111904  0.083301  0  0.996643  0
H  H13  1  0.41774630  0.71446930  0.93085639  1  0  0.071207  0  0.929547  0  0  0.083088  0  0.997053  0  0  0.083042  0  0.997434  0  0  0.111873  0.083268  0  0.99676  0
H  H14  1  0.96929707  0.52719579  0.33994015  1  0  0.069018  0  0.936937  0  0  0.078805  0  1.012411  0  0  0.079292  0  1.011592  0  0  0.111682  0.078105  0  1.014034  0
H  H15  1  0.03070502  0.47279912  0.66006810  1  0  0.069159  0  0.936805  0  0  0.078989  0  1.012213  0  0  0.079476  0  1.011395  0  0  0.111753  0.078282  0  1.01385  0
H  H16  1  0.82323732  0.39881580  0.45938587  1  0  0.068133  0  0.919593  0  0  0.084324  0  0.983182  0  0  0.084262  0  0.983215  0  0  0.111503  0.0842  0  0.983475  0
H  H17  1  0.17676452  0.60118475  0.54061899  1  0  0.068092  0  0.919665  0  0  0.084333  0  0.983234  0  0  0.084272  0  0.983269  0  0  0.11151  0.084208  0  0.983526  0
H  H18  1  0.52496398  0.65982483  0.17605933  1  0  0.076772  0  0.946289  0  0  0.089187  0  1.012535  0  0  0.089111  0  1.013102  0  0  0.113054  0.08926  0  1.012117  0
H  H19  1  0.47504284  0.34017238  0.82393500  1  0  0.076755  0  0.946101  0  0  0.089192  0  1.012344  0  0  0.089119  0  1.012908  0  0  0.113052  0.089266  0  1.011923  0
H  H20  1  0.80162412  0.67499396  0.17795332  1  0  0.075077  0  0.938516  0  0  0.086923  0  1.005133  0  0  0.087017  0  1.005298  0  0  0.111338  0.086857  0  1.005065  0
H  H21  1  0.19839393  0.32499641  0.82204646  1  0  0.075033  0  0.9387  0  0  0.086926  0  1.005257  0  0  0.08702  0  1.005426  0  0  0.111342  0.086859  0  1.005188  0
H  H22  1  0.94739751  0.30812324  0.07296287  1  0  0.066936  0  0.946193  0  0  0.077878  0  1.017546  0  0  0.077917  0  1.017773  0  0  0.106261  0.077737  0  1.01782  0
H  H23  1  0.05258760  0.69186500  0.92705124  1  0  0.067006  0  0.946155  0  0  0.077911  0  1.017469  0  0  0.077959  0  1.017684  0  0  0.106244  0.07777  0  1.017746  0
H  H24  1  0.04024005  0.47492686  0.12101388  1  0  0.077513  0  0.943473  0  0  0.085972  0  1.018238  0  0  0.087065  0  1.016504  0  0  0.116144  0.08494  0  1.019947  0
H  H25  1  0.95976426  0.52505573  0.87898685  1  0  0.077248  0  0.942998  0  0  0.085637  0  1.017886  0  0  0.086731  0  1.016147  0  0  0.116029  0.084609  0  1.019593  0
C  C26  1  0.63802658  0.87308549  0.40437061  1  0  0.265995  0  3.926933  0  0  0.248608  0  4.232624  0  0  0.268099  0  4.246799  0  0  0.148494  0.235326  0  4.224139  0
C  C27  1  0.36197533  0.12691510  0.59562760  1  0  0.265878  0  3.927037  0  0  0.248483  0  4.232754  0  0  0.267978  0  4.24693  0  0  0.148479  0.2352  0  4.224268  0
C  C28  1  0.18780716  0.87056000  0.13424348  1  0  0.238885  0  3.967921  0  0  0.22546  0  4.284821  0  0  0.241503  0  4.298699  0  0  0.133137  0.214199  0  4.276822  0
C  C29  1  0.81224279  0.12945155  0.86575346  1  0  0.239033  0  3.968226  0  0  0.22562  0  4.285115  0  0  0.241661  0  4.298987  0  0  0.13321  0.214361  0  4.277124  0
C  C30  1  0.71469772  0.22538339  0.29634030  1  0  0.066072  0  3.629786  0  0  -0.004695  0  3.884357  0  0  0.004055  0  3.896588  0  0  0.006698  -0.010404  0  3.875312  0
C  C31  1  0.28528843  0.77461609  0.70367263  1  0  0.066376  0  3.629374  0  0  -0.004321  0  3.883871  0  0  0.004428  0  3.896116  0  0  0.00681  -0.010027  0  3.874818  0
C  C32  1  0.47389786  0.43056635  0.35340912  1  0  0.073715  0  3.617853  0  0  0.003138  0  3.875935  0  0  0.011911  0  3.885719  0  0  0.012989  -0.002948  0  3.868784  0
C  C33  1  0.52608929  0.56945241  0.64656953  1  0  0.07383  0  3.617601  0  0  0.003178  0  3.875859  0  0  0.012046  0  3.885475  0  0  0.013106  -0.002915  0  3.868724  0
C  C34  1  0.54619059  0.37576606  0.13173741  1  0  0.072662  0  3.614051  0  0  0.002944  0  3.872508  0  0  0.011899  0  3.881862  0  0  0.011374  -0.002989  0  3.865284  0
C  C35  1  0.45382564  0.62423110  0.86825614  1  0  0.072687  0  3.613878  0  0  0.003013  0  3.872295  0  0  0.011965  0  3.881646  0  0  0.011479  -0.0029  0  3.865056  0
C  C36  1  0.84034537  0.44925175  0.35812573  1  0  0.080368  0  3.634273  0  0  0.005829  0  3.902284  0  0  0.014929  0  3.911947  0  0  0.017372  -0.000366  0  3.8949  0
C  C37  1  0.15964726  0.55074665  0.64187251  1  0  0.080309  0  3.634061  0  0  0.005648  0  3.90224  0  0  0.014741  0  3.911906  0  0  0.017386  -0.000554  0  3.894875  0
C  C38  1  0.67144131  0.59818776  0.19527166  1  0  0.071976  0  3.619768  0  0  0.003307  0  3.879182  0  0  0.011285  0  3.889428  0  0  0.01262  -0.002154  0  3.871373  0
C  C39  1  0.32854817  0.40181295  0.80471712  1  0  0.072096  0  3.619953  0  0  0.003438  0  3.879283  0  0  0.01141  0  3.889528  0  0  0.012725  -0.002021  0  3.871475  0
C  C40  1  0.91162281  0.39702608  0.13696354  1  0  0.072959  0  3.622821  0  0  0.003325  0  3.880904  0  0  0.012086  0  3.890391  0  0  0.010879  -0.002153  0  3.873581  0
C  C41  1  0.08841592  0.60299000  0.86303769  1  0  0.073267  0  3.622746  0  0  0.003808  0  3.880719  0  0  0.012563  0  3.890211  0  0  0.011087  -0.001659  0  3.873364  0
S  S42  1  0.87635880  0.84209081  0.44470972  1  0  -0.209844  0  2.297762  0  0  -0.171729  0  2.661371  0  0  -0.188541  0  2.655994  0  0  -0.078747  -0.162304  0  2.667022  0
S  S43  1  0.12364453  0.15791085  0.55529776  1  0  -0.209777  0  2.298017  0  0  -0.171679  0  2.661639  0  0  -0.188486  0  2.656263  0  0  -0.078718  -0.162256  0  2.667287  0
S  S44  1  0.21074241  0.05395820  0.09659085  1  0  -0.216296  0  2.272202  0  0  -0.182406  0  2.620082  0  0  -0.197554  0  2.614855  0  0  -0.096608  -0.171529  0  2.623675  0
S  S45  1  0.78927509  0.94604340  0.90340977  1  0  -0.2164  0  2.27188  0  0  -0.182501  0  2.619739  0  0  -0.197652  0  2.614512  0  0  -0.096599  -0.171628  0  2.623344  0
N  N46  1  0.46869352  0.89484869  0.37370557  1  0  -0.45172  0  2.711163  0  0  -0.413222  0  2.968817  0  0  -0.429592  0  2.978633  0  0  -0.347788  -0.403083  0  2.96266  0
N  N47  1  0.53130696  0.10514506  0.62631147  1  0  -0.451658  0  2.710992  0  0  -0.413168  0  2.96868  0  0  -0.429542  0  2.978498  0  0  -0.34779  -0.403032  0  2.962523  0
N  N48  1  0.17192158  0.73910385  0.15480772  1  0  -0.44759  0  2.643026  0  0  -0.423063  0  2.88808  0  0  -0.433971  0  2.897038  0  0  -0.339202  -0.416987  0  2.884429  0
N  N49  1  0.82806961  0.26089233  0.84518801  1  0  -0.447622  0  2.64378  0  0  -0.423135  0  2.888859  0  0  -0.434042  0  2.89781  0  0  -0.339274  -0.417053  0  2.885203  0
N  N50  1  0.51563301  0.30659935  0.26907125  1  0  -0.259071  0  3.165467  0  0  -0.160088  0  3.398542  0  0  -0.181629  0  3.421014  0  0  -0.328007  -0.144271  0  3.382158  0
N  N51  1  0.48435443  0.69341034  0.73092157  1  0  -0.259199  0  3.165293  0  0  -0.160217  0  3.398319  0  0  -0.181769  0  3.420777  0  0  -0.328121  -0.1444  0  3.381922  0
N  N52  1  0.89135653  0.32697540  0.27345888  1  0  -0.284125  0  3.179554  0  0  -0.193701  0  3.420748  0  0  -0.214767  0  3.441892  0  0  -0.335236  -0.177919  0  3.404712  0
N  N53  1  0.10863310  0.67301848  0.72654670  1  0  -0.284328  0  3.179498  0  0  -0.193925  0  3.420696  0  0  -0.215  0  3.441853  0  0  -0.33536  -0.178143  0  3.404665  0
N  N54  1  0.64642945  0.53303776  0.33189794  1  0  -0.271952  0  3.164394  0  0  -0.200302  0  3.420352  0  0  -0.216713  0  3.438374  0  0  -0.343244  -0.186646  0  3.406332  0
N  N55  1  0.35357115  0.46695836  0.66809606  1  0  -0.271926  0  3.164374  0  0  -0.200319  0  3.420444  0  0  -0.216729  0  3.438453  0  0  -0.34339  -0.186666  0  3.406427  0
N  N56  1  0.71785336  0.47959683  0.10815034  1  0  -0.268236  0  3.141199  0  0  -0.197658  0  3.398404  0  0  -0.214039  0  3.415706  0  0  -0.340697  -0.18654  0  3.385486  0
N  N57  1  0.28214266  0.52039824  0.89183750  1  0  -0.268373  0  3.141614  0  0  -0.197868  0  3.398844  0  0  -0.214252  0  3.416153  0  0  -0.340815  -0.186756  0  3.38592  0
