# generated using pymatgen
data_Zn4H37C60N16Cl3O4
_symmetry_space_group_name_H-M   'P 1'
_cell_length_a   13.61230093
_cell_length_b   15.14373673
_cell_length_c   16.89331693
_cell_angle_alpha   109.74516061
_cell_angle_beta   102.78895974
_cell_angle_gamma   108.76858153
_symmetry_Int_Tables_number   1
_chemical_formula_structural   Zn4H37C60N16Cl3O4
_chemical_formula_sum   'Zn4 H37 C60 N16 Cl3 O4'
_cell_volume   2882.67112594
_cell_formula_units_Z   1
loop_
 _symmetry_equiv_pos_site_id
 _symmetry_equiv_pos_as_xyz
  1  'x, y, z'
loop_
 _atom_site_type_symbol
 _atom_site_label
 _atom_site_symmetry_multiplicity
 _atom_site_fract_x
 _atom_site_fract_y
 _atom_site_fract_z
 _atom_site_occupancy
 _atom_site_pbe_bader_charge
 _atom_site_pbe_bader_spin_density
 _atom_site_pbe_cm5_charge
 _atom_site_pbe_ddec_charge
 _atom_site_pbe_ddec_spin_density
 _atom_site_pbe_ddec_sum_bond_order
 _atom_site_pbe_magmom
Zn  Zn0  1  0.39228893  0.02302131  0.90284936  1  1.190454  0  0.740022  0.629882  0  2.373663  0
Zn  Zn1  1  0.62485973  0.99635659  0.11084099  1  1.186819  0  0.747463  0.603931  0  2.509146  0
Zn  Zn2  1  0.35133019  0.89331339  0.01794151  1  1.193065  0  0.751172  0.641962  0  2.370902  0
Zn  Zn3  1  0.66947709  0.13701435  0.99953024  1  1.199287  0  0.752648  0.65661  0  2.372183  0
H  H4  1  0.25841158  0.15104377  0.95380513  1  0.071647  0  0.117561  0.103194  0  1.010893  0
H  H5  1  0.78089580  0.71969102  0.02522973  1  0.076864  0  0.106633  0.075083  0  0.976577  0
H  H6  1  0.58494632  0.13863549  0.27275858  1  0.119668  0  0.107135  0.101414  0  1.046105  0
H  H7  1  0.99933022  0.72349884  0.58197259  1  0.056559  0  0.097813  0.100869  0  1.01388  0
H  H8  1  0.98606095  0.54109581  0.73153030  1  0.04758  0  0.099006  0.098168  0  1.005255  0
H  H9  1  0.87375547  0.63998732  0.42100277  1  0.061717  0  0.09951  0.103415  0  0.998284  0
H  H10  1  0.84002911  0.38748342  0.59800191  1  0.093678  0  0.092459  0.095794  0  1.036288  0
H  H11  1  0.74171835  0.48177070  0.28341694  1  0.038631  0  0.092967  0.097316  0  1.031588  0
H  H12  1  0.63495370  0.88273207  0.39201226  1  0.034667  0  0.098626  0.100276  0  1.011736  0
H  H13  1  0.29008493  0.81121859  0.16846208  1  0.098107  0  0.113736  0.108901  0  1.025392  0
H  H14  1  0.73180767  0.90315941  0.54405943  1  0.052367  0  0.0985  0.103176  0  1.004131  0
H  H15  1  0.67532592  0.82285973  0.98854652  1  0.10528  0  0.11155  0.094329  0  1.061304  0
H  H16  1  0.26697984  0.72013437  0.41257334  1  0.03467  0  0.097855  0.110975  0  1.013187  0
H  H17  1  0.72494872  0.92174475  0.69058618  1  0.102986  0  0.089913  0.083844  0  1.091321  0
H  H18  1  0.36390598  0.78060394  0.57755317  1  0.057398  0  0.095661  0.101986  0  1.009783  0
H  H19  1  0.02697647  0.96240457  0.07432677  1  0.06908  0  0.10097  0.080826  0  0.975568  0
H  H20  1  0.81490168  0.83829234  0.97640260  1  0.056199  0  0.09177  0.089089  0  1.065858  0
H  H21  1  0.98680913  0.84330968  0.74295843  1  0.071944  0  0.096434  0.041541  0  1.019627  0
H  H22  1  0.13089523  0.02309547  0.82633362  1  0.036263  0  0.087427  0.090552  0  1.048549  0
H  H23  1  0.71435091  0.36156202  0.97595655  1  0.1198  0  0.103123  0.095985  0  1.048867  0
H  H24  1  0.03037821  0.06971985  0.79258247  1  0.079907  0  0.105224  0.130262  0  0.962995  0
H  H25  1  0.64809904  0.91539058  0.27336226  1  0.089634  0  0.118345  0.109551  0  0.997588  0
H  H26  1  0.10018449  0.68567741  0.86135424  1  0.071249  0  0.116595  0.102843  0  1.00233  0
H  H27  1  0.35345810  0.20343626  0.85548266  1  0.051943  0  0.114951  0.09883  0  1.010265  0
H  H28  1  0.71169648  0.34904508  0.15972411  1  0.096513  0  0.112631  0.097567  0  1.023563  0
H  H29  1  0.18801575  0.96107117  0.09502163  1  0.077371  0  0.119273  0.105934  0  0.997336  0
H  H30  1  0.36007674  0.83511498  0.72353270  1  0.094169  0  0.111725  0.097736  0  1.029939  0
H  H31  1  0.77423736  0.96686092  0.82772289  1  0.606115  0  0.30398  0.33565  0  0.967063  0
H  H32  1  0.65345699  0.73020065  0.13686620  1  0.610711  0  0.318524  0.352824  0  0.903616  0
H  H33  1  0.19338282  0.69487669  0.27123707  1  0.61226  0  0.335991  0.362329  0  0.877508  0
H  H34  1  0.82444406  0.82029583  0.63848197  1  0.601391  0  0.323362  0.353214  0  0.898936  0
H  H35  1  0.91094558  0.13852463  0.99179828  1  0.10137  0  0.118247  0.10948  0  1.005431  0
H  H36  1  0.84310025  0.95527684  0.13872489  1  0.092795  0  0.119063  0.118074  0  0.995541  0
H  H37  1  0.17661023  0.85658788  0.70586169  1  0.084016  0  0.119093  0.106469  0  0.992234  0
H  H38  1  0.31423511  0.66731863  0.88782395  1  0.091428  0  0.115671  0.101925  0  1.009586  0
H  H39  1  0.36417322  0.33840296  0.80356470  1  0.079046  0  0.101286  0.101605  0  0.999685  0
H  H40  1  0.34641844  0.49409995  0.80641585  1  0.066659  0  0.104045  0.106391  0  0.990333  0
C  C41  1  0.25691388  0.10163056  0.98787394  1  0.438688  0  0.010149  -0.042529  0  3.956078  0
C  C42  1  0.17221831  0.82795778  0.75654630  1  0.391614  0  0.006177  -0.059102  0  4.000113  0
C  C43  1  0.63172549  0.97047599  0.82015316  1  1.044558  0  0.183233  0.365923  0  4.042733  0
C  C44  1  0.61177144  0.17736305  0.23289358  1  0.362076  0  0.004431  -0.040797  0  3.956446  0
C  C45  1  0.40221352  0.72097657  0.91682096  1  0.443311  0  0.009003  -0.044128  0  3.955521  0
C  C46  1  0.54146765  0.89396769  0.73852022  1  -0.000998  0  -0.045427  -0.160601  0  4.049326  0
C  C47  1  0.49708217  0.70076495  0.92482445  1  -0.004307  0  -0.038459  -0.043097  0  4.088092  0
C  C48  1  0.09778893  0.73248209  0.74748064  1  0.049366  0  -0.038126  -0.047393  0  4.094183  0
C  C49  1  0.91365540  0.03169471  0.05699890  1  -0.012987  0  -0.034926  -0.019831  0  3.985708  0
C  C50  1  0.61141445  0.51713017  0.96632398  1  0.03824  0  -0.027756  -0.064953  0  3.958353  0
C  C51  1  0.52774013  0.41609836  0.90936004  1  -0.02062  0  -0.004607  0.075518  0  4.030462  0
C  C52  1  0.66807324  0.28412822  0.25675412  1  0.056794  0  -0.03607  -0.027801  0  4.031667  0
C  C53  1  0.43329478  0.41383453  0.85136662  1  -0.061939  0  -0.087986  -0.128696  0  3.969664  0
C  C54  1  0.42304736  0.50326148  0.85271072  1  -0.057854  0  -0.086693  -0.122607  0  3.973378  0
C  C55  1  0.50744825  0.60465616  0.91176988  1  0.060016  0  -0.003672  0.068211  0  4.04209  0
C  C56  1  0.37899545  0.84207245  0.18279336  1  0.446701  0  0.001739  -0.052511  0  3.98406  0
C  C57  1  0.60231549  0.60630005  0.96671237  1  -0.076281  0  -0.020819  -0.048162  0  3.920708  0
C  C58  1  0.71341191  0.68143693  0.04471404  1  0.552923  0  0.002958  0.117274  0  3.900672  0
C  C59  1  0.71916395  0.57811281  0.04766863  1  0.216939  0  0.054451  0.166322  0  3.790725  0
C  C60  1  0.00634025  0.64448557  0.66684973  1  -0.043561  0  -0.013824  0.083498  0  4.076989  0
C  C61  1  0.72726681  0.37591351  0.34499695  1  0.000615  0  -0.012902  0.026663  0  4.018191  0
C  C62  1  0.84292146  0.56546758  0.42380293  1  -0.009929  0  -0.099834  -0.14793  0  4.031104  0
C  C63  1  0.46395647  0.84493264  0.25011190  1  -0.012294  0  -0.038666  -0.022226  0  4.073276  0
C  C64  1  0.76893059  0.47652247  0.34673040  1  -0.066724  0  -0.095705  -0.120584  0  4.004114  0
C  C65  1  0.75906331  0.37355403  0.42856068  1  0.067713  0  0.01348  0.050965  0  3.952999  0
C  C66  1  0.83648587  0.46367874  0.51013340  1  0.024192  0  -0.015939  0.015745  0  3.994243  0
C  C67  1  0.88215520  0.56169355  0.50731487  1  0.003409  0  -0.010538  0.091126  0  4.029764  0
C  C68  1  0.62650145  0.30788943  0.94792569  1  0.427346  0  0.007184  -0.039567  0  3.973452  0
C  C69  1  0.96576149  0.65005045  0.58631854  1  -0.054859  0  -0.096702  -0.19798  0  3.947455  0
C  C70  1  0.95696904  0.54746764  0.66905907  1  0.008559  0  -0.093988  -0.125469  0  3.996345  0
C  C71  1  0.87485441  0.46061983  0.59397673  1  -0.077666  0  -0.097903  -0.120992  0  4.022448  0
C  C72  1  0.45721231  0.81595896  0.32367461  1  0.012185  0  -0.021732  -0.014434  0  4.030204  0
C  C73  1  0.54307227  0.85679738  0.64701106  1  0.06536  0  -0.011359  0.117858  0  4.048845  0
C  C74  1  0.53245654  0.32300849  0.91292305  1  -0.028233  0  -0.039758  -0.043553  0  4.098484  0
C  C75  1  0.65084177  0.87569740  0.55075006  1  -0.064375  0  -0.097842  -0.132086  0  4.024782  0
C  C76  1  0.64660114  0.88580999  0.63375295  1  -0.070427  0  -0.109474  -0.156256  0  4.019589  0
C  C77  1  0.44499782  0.80596830  0.57073775  1  -0.050002  0  -0.102884  -0.205005  0  3.930876  0
C  C78  1  0.44677226  0.79576212  0.48473928  1  -0.002639  0  -0.011477  0.111876  0  4.04836  0
C  C79  1  0.55193804  0.83631988  0.47510564  1  -0.044089  0  -0.021238  0.058155  0  4.052536  0
C  C80  1  0.56148143  0.89467183  0.23655604  1  0.383064  0  0.003969  -0.065432  0  3.988359  0
C  C81  1  0.55354942  0.84493880  0.39483446  1  0.005499  0  -0.092658  -0.173469  0  3.981225  0
C  C82  1  0.35299674  0.76496529  0.33066881  1  0.445779  0  0.073737  0.264177  0  4.078893  0
C  C83  1  0.34833641  0.75549316  0.40835951  1  -0.015637  0  -0.124639  -0.311938  0  4.038236  0
C  C84  1  0.00357133  0.00839306  0.89158978  1  -0.072602  0  -0.009044  0.02329  0  3.786782  0
C  C85  1  0.44806609  0.88501545  0.76384272  1  0.378824  0  0.007168  -0.031676  0  3.975952  0
C  C86  1  0.05355403  0.02441261  0.97962403  1  0.068165  0  0.009715  0.045565  0  3.84912  0
C  C87  1  0.97914966  0.97455163  0.02068319  1  0.014569  0  -0.061236  -0.023161  0  3.857384  0
C  C88  1  0.87170520  0.87007547  0.94641567  1  -0.17238  0  -0.08554  -0.08833  0  3.910451  0
C  C89  1  0.84642508  0.84549093  0.85877545  1  -0.016478  0  -0.137904  -0.248283  0  3.798777  0
C  C90  1  0.90813276  0.90972035  0.83028289  1  -0.121168  0  -0.017171  0.001369  0  3.985003  0
C  C91  1  0.95262683  0.90139099  0.75366833  1  0.498564  0  0.000757  0.19981  0  3.873343  0
C  C92  1  0.44250116  0.22707939  0.88550580  1  0.448795  0  0.006639  -0.051564  0  4.000906  0
C  C93  1  0.04498260  0.01379798  0.81569632  1  -0.052897  0  -0.159278  -0.260625  0  3.877838  0
C  C94  1  0.67498807  0.28410804  0.17433400  1  0.43195  0  0.013422  -0.032003  0  3.941824  0
C  C95  1  0.22216054  0.00749644  0.06234043  1  0.426791  0  0.012109  -0.045518  0  3.963348  0
C  C96  1  0.58649749  0.80036500  0.96874346  1  0.396321  0  0.01094  -0.029006  0  3.951402  0
C  C97  1  0.17239877  0.05301289  0.01525520  1  -0.020056  0  -0.029589  -0.027924  0  4.056117  0
C  C98  1  0.13399883  0.74067729  0.83567526  1  0.392242  0  0.005217  -0.054979  0  3.995518  0
C  C99  1  0.88170322  0.10046730  0.03159562  1  0.44104  0  0.009832  -0.039408  0  3.992513  0
C  C100  1  0.84745604  0.00703581  0.10655839  1  0.42307  0  0.004682  -0.066087  0  3.984575  0
N  N101  1  0.34498326  0.08005719  0.01076077  1  -0.777345  0  -0.27537  -0.187685  0  3.485051  0
N  N102  1  0.42257036  0.88642103  0.13415504  1  -0.799755  0  -0.274339  -0.185583  0  3.560781  0
N  N103  1  0.59479089  0.21121549  0.94119685  1  -0.76066  0  -0.26317  -0.171032  0  3.506801  0
N  N104  1  0.53610454  0.91896725  0.16746791  1  -0.795903  0  -0.273471  -0.166721  0  3.567239  0
N  N105  1  0.47994516  0.16100687  0.90287892  1  -0.816927  0  -0.270729  -0.176706  0  3.546151  0
N  N106  1  0.63064986  0.18614812  0.10939365  1  -0.811317  0  -0.28281  -0.187868  0  3.629187  0
N  N107  1  0.32273645  0.02126998  0.05678085  1  -0.771738  0  -0.282922  -0.186749  0  3.554737  0
N  N108  1  0.48027570  0.95217506  0.85119458  1  -0.764434  0  -0.285478  -0.180486  0  3.647564  0
N  N109  1  0.54840049  0.87348199  0.98774756  1  -0.807982  0  -0.28622  -0.183627  0  3.596792  0
N  N110  1  0.22180719  0.83283224  0.89186377  1  -0.781303  0  -0.264826  -0.18406  0  3.516096  0
N  N111  1  0.80147589  0.11411104  0.06164648  1  -0.797709  0  -0.273144  -0.189085  0  3.493428  0
N  N112  1  0.77997982  0.05566007  0.10869560  1  -0.802287  0  -0.276956  -0.173751  0  3.521377  0
N  N113  1  0.24553022  0.88729685  0.84267015  1  -0.804412  0  -0.268387  -0.17951  0  3.533249  0
N  N114  1  0.59373824  0.00453153  0.88598296  1  -0.816148  0  -0.293088  -0.289709  0  3.584984  0
N  N115  1  0.43484602  0.82460055  0.95568472  1  -0.766008  0  -0.282546  -0.190297  0  3.624541  0
N  N116  1  0.59152755  0.11997583  0.14511807  1  -0.788939  0  -0.293192  -0.203568  0  3.61284  0
Cl  Cl117  1  0.84112278  0.56373950  0.03337310  1  -0.239392  0  -0.062791  -0.150733  0  1.339866  0
Cl  Cl118  1  0.70799206  0.56689575  0.14772803  1  -0.221438  0  -0.042951  -0.130338  0  1.407117  0
Cl  Cl119  1  0.71058063  0.25694808  0.43665996  1  -0.223263  0  -0.00109  -0.082351  0  1.556629  0
O  O120  1  0.74293491  0.01800808  0.83852692  1  -1.168744  0  -0.359437  -0.470988  0  2.347105  0
O  O121  1  0.71857189  0.75889231  0.12243375  1  -1.134947  0  -0.396579  -0.482421  0  2.27137  0
O  O122  1  0.25699608  0.72814057  0.25732236  1  -1.142833  0  -0.354336  -0.452052  0  2.291598  0
O  O123  1  0.88571357  0.89002584  0.67011089  1  -1.122099  0  -0.401761  -0.500133  0  2.220339  0
