# generated using pymatgen
data_Zn2H19C18Br(NO4)2
_symmetry_space_group_name_H-M   'P 1'
_cell_length_a   9.78869366
_cell_length_b   10.86586282
_cell_length_c   11.17438433
_cell_angle_alpha   89.63461231
_cell_angle_beta   92.28747137
_cell_angle_gamma   91.92776511
_symmetry_Int_Tables_number   1
_chemical_formula_structural   Zn2H19C18Br(NO4)2
_chemical_formula_sum   'Zn2 H19 C18 Br1 N2 O8'
_cell_volume   1186.90228769
_cell_formula_units_Z   1
loop_
 _symmetry_equiv_pos_site_id
 _symmetry_equiv_pos_as_xyz
  1  'x, y, z'
loop_
 _atom_site_type_symbol
 _atom_site_label
 _atom_site_symmetry_multiplicity
 _atom_site_fract_x
 _atom_site_fract_y
 _atom_site_fract_z
 _atom_site_occupancy
 _atom_site_pbe_bader_charge
 _atom_site_pbe_bader_spin_density
 _atom_site_pbe_cm5_charge
 _atom_site_pbe_ddec_charge
 _atom_site_pbe_ddec_spin_density
 _atom_site_pbe_ddec_sum_bond_order
 _atom_site_pbe_magmom
Zn  Zn0  1  0.35536795  0.49776863  0.48846527  1  1.283596  0  0.660398  0.846589  0  2.448587  0
Zn  Zn1  1  0.63750902  0.50748470  0.51006413  1  1.280615  0  0.662309  0.848743  0  2.43713  0
H  H2  1  0.29910473  0.87737304  0.55038416  1  0.034754  0  0.085946  0.084849  0  0.994142  0
H  H3  1  0.67760004  0.13038605  0.38939865  1  0.028658  0  0.087838  0.08512  0  0.992078  0
H  H4  1  0.67711017  0.88196924  0.62406722  1  0.043301  0  0.088787  0.087764  0  0.994096  0
H  H5  1  0.69886914  0.09758065  0.61337903  1  0.016352  0  0.085808  0.080347  0  0.99609  0
H  H6  1  0.67517075  0.56156211  0.88838357  1  0.103311  0  0.105626  0.116891  0  0.992789  0
H  H7  1  0.36227049  0.52765547  0.90223074  1  0.089368  0  0.105828  0.124403  0  0.992415  0
H  H8  1  0.42185284  0.42624557  0.08629592  1  0.077964  0  0.114376  0.143703  0  0.980135  0
H  H9  1  0.12959106  0.38720284  0.63373973  1  0.156948  0  0.146376  0.119553  0  0.939426  0
H  H10  1  0.08901460  0.51866774  0.40631493  1  0.429815  0  0.321363  0.289307  0  0.904256  0
H  H11  1  0.86978495  0.33744611  0.58203848  1  0.196878  0  0.145158  0.11984  0  0.950665  0
H  H12  1  0.31510715  0.90662493  0.39650760  1  0.042263  0  0.086308  0.08401  0  0.982047  0
H  H13  1  0.90082266  0.59306363  0.50055082  1  0.439936  0  0.319972  0.287913  0  0.906515  0
H  H14  1  0.30006928  0.11630538  0.44111225  1  0.02622  0  0.086076  0.085408  0  0.997389  0
H  H15  1  0.31803000  0.08779091  0.59605958  1  -0.001834  0  0.083817  0.078489  0  0.985935  0
H  H16  1  0.51499719  0.88845160  0.68727030  1  0.008462  0  0.089815  0.087307  0  0.974948  0
H  H17  1  0.55359198  0.10140931  0.70184247  1  0.045792  0  0.088775  0.083933  0  0.980804  0
H  H18  1  0.69612006  0.91549889  0.40161858  1  0.034359  0  0.086796  0.08563  0  0.991145  0
H  H19  1  0.54988644  0.90482669  0.30433871  1  0.012072  0  0.086688  0.082028  0  0.991601  0
H  H20  1  0.51423438  0.11610152  0.31673788  1  0.032724  0  0.090134  0.088294  0  0.973171  0
C  C21  1  0.49221202  0.48603811  0.26529509  1  1.609389  0  0.205796  0.652958  0  4.182918  0
C  C22  1  0.50956505  0.12220929  0.51060739  1  0.072895  0  -0.017806  0.021222  0  3.802138  0
C  C23  1  0.59122469  0.06632893  0.61753675  1  -0.014558  0  -0.160415  -0.170626  0  3.876598  0
C  C24  1  0.57664634  0.08361572  0.39399339  1  -0.035438  0  -0.158064  -0.166677  0  3.849306  0
C  C25  1  0.57835439  0.54933566  0.93312920  1  -0.091853  0  -0.082387  -0.079104  0  4.011691  0
C  C26  1  0.46325538  0.53288494  0.86415822  1  0.031106  0  -0.094813  -0.218785  0  3.888022  0
C  C27  1  0.58319069  0.55233178  0.06331266  1  -0.075561  0  -0.010449  0.139343  0  3.980223  0
C  C28  1  0.49904427  0.48546479  0.13273860  1  0.006523  0  -0.097426  -0.276849  0  3.8668  0
C  C29  1  0.07393424  0.43000014  0.55806253  1  0.666811  0  0.126518  0.175916  0  3.848581  0
C  C30  1  0.92257225  0.42318309  0.55464319  1  0.686229  0  0.127357  0.174107  0  3.843297  0
C  C31  1  0.51177871  0.74200884  0.48636148  1  1.55645  0  0.222993  0.596378  0  4.092063  0
C  C32  1  0.46690788  0.52186728  0.73183595  1  1.554735  0  0.205103  0.635898  0  4.181875  0
C  C33  1  0.51384469  0.26266237  0.51700768  1  1.516214  0  0.222215  0.596447  0  4.092056  0
C  C34  1  0.36110410  0.92826876  0.48562574  1  -0.050438  0  -0.167317  -0.177398  0  3.895649  0
C  C35  1  0.36226535  0.06831555  0.50941061  1  -0.008447  0  -0.167325  -0.177199  0  3.898518  0
C  C36  1  0.57690700  0.92405085  0.61376201  1  -0.052766  0  -0.15867  -0.16944  0  3.853106  0
C  C37  1  0.58893045  0.94185350  0.39097757  1  -0.036079  0  -0.160324  -0.173814  0  3.866343  0
C  C38  1  0.50783404  0.88205759  0.49316008  1  0.045124  0  -0.017817  0.024708  0  3.798538  0
Br  Br39  1  0.72176351  0.66419494  0.12853960  1  -0.071588  0  0.002897  -0.081953  0  1.339438  0
N  N40  1  0.14457898  0.48320638  0.47774863  1  -1.161816  0  -0.427486  -0.374363  0  3.242031  0
N  N41  1  0.84828679  0.51305778  0.52245187  1  -1.174982  0  -0.427763  -0.37329  0  3.247854  0
O  O42  1  0.37163867  0.48448079  0.30455324  1  -1.157371  0  -0.329777  -0.554092  0  2.233028  0
O  O43  1  0.60350690  0.48583476  0.32773065  1  -1.163398  0  -0.320551  -0.559368  0  2.335153  0
O  O44  1  0.39777577  0.68158528  0.48122626  1  -1.16991  0  -0.320256  -0.555169  0  2.34856  0
O  O45  1  0.62910113  0.69457509  0.48863620  1  -1.166015  0  -0.326677  -0.560178  0  2.316859  0
O  O46  1  0.35119339  0.50850684  0.67545754  1  -1.165742  0  -0.330135  -0.572076  0  2.261953  0
O  O47  1  0.58360590  0.52616639  0.68485793  1  -1.176491  0  -0.32358  -0.55971  0  2.308684  0
O  O48  1  0.40034332  0.31644251  0.50670751  1  -1.174197  0  -0.318761  -0.558758  0  2.362722  0
O  O49  1  0.63089827  0.31740171  0.52948878  1  -1.180381  0  -0.32327  -0.568252  0  2.32064  0
