# generated using pymatgen
data_CuH6C6(N2O)4
_symmetry_space_group_name_H-M   'P 1'
_cell_length_a   4.95516007
_cell_length_b   7.90675133
_cell_length_c   13.05588317
_cell_angle_alpha   89.99958007
_cell_angle_beta   89.99988711
_cell_angle_gamma   107.69995373
_symmetry_Int_Tables_number   1
_chemical_formula_structural   CuH6C6(N2O)4
_chemical_formula_sum   'Cu2 H12 C12 N16 O8'
_cell_volume   487.30485867
_cell_formula_units_Z   2
loop_
 _symmetry_equiv_pos_site_id
 _symmetry_equiv_pos_as_xyz
  1  'x, y, z'
loop_
 _atom_site_type_symbol
 _atom_site_label
 _atom_site_symmetry_multiplicity
 _atom_site_fract_x
 _atom_site_fract_y
 _atom_site_fract_z
 _atom_site_occupancy
 _atom_site_hle17_ddec_charge
 _atom_site_hle17_ddec_spin_density
 _atom_site_hle17_ddec_sum_bond_order
 _atom_site_hle17_magmom
 _atom_site_hse06_10hf_ddec_charge
 _atom_site_hse06_10hf_ddec_spin_density
 _atom_site_hse06_10hf_ddec_sum_bond_order
 _atom_site_hse06_10hf_magmom
 _atom_site_hse06_ddec_charge
 _atom_site_hse06_ddec_spin_density
 _atom_site_hse06_ddec_sum_bond_order
 _atom_site_hse06_magmom
 _atom_site_pbe_cm5_charge
 _atom_site_pbe_ddec_charge
 _atom_site_pbe_ddec_spin_density
 _atom_site_pbe_ddec_sum_bond_order
 _atom_site_pbe_magmom
Cu  Cu0  1  0.49999966  0.50000026  0.00000024  1  0.939908  0.695424  1.728998  0.528  0.937361  0.789887  2.102665  0.65  1.018587  0.853463  2.049386  0.737  0.765836  0.880217  0.742512  2.14935  0.59
Cu  Cu1  1  0.00000051  0.99999909  0.49999995  1  0.939993  0.695428  1.728925  0.528  0.93745  0.7899  2.102583  0.65  1.018658  0.85347  2.049313  0.737  0.765806  0.880333  0.74252  2.149237  0.59
H  H2  1  0.28676138  0.03431662  0.94647275  1  0.140233  -0.000586  0.917665  0.0  0.152652  -0.000104  0.976636  0.0  0.155247  -0.000128  0.975744  0.0  0.128572  0.150701  -7e-05  0.977514  0.0
H  H3  1  0.21322888  0.46568023  0.44647194  1  0.140268  -0.000599  0.917691  0.0  0.152651  -0.000104  0.976669  0.0  0.155249  -0.000128  0.975775  0.0  0.128554  0.150696  -7e-05  0.977547  0.0
H  H4  1  0.71324031  0.96568599  0.05352748  1  0.140242  -0.000581  0.917645  0.0  0.152663  -0.000105  0.976608  0.0  0.155259  -0.000128  0.975715  0.0  0.128561  0.150714  -7e-05  0.97749  0.0
H  H5  1  0.78676823  0.53431707  0.55352676  1  0.140262  -0.000604  0.917671  0.0  0.152664  -0.000104  0.97665  0.0  0.155259  -0.000128  0.975757  0.0  0.128572  0.150711  -7e-05  0.977528  0.0
H  H6  1  0.43015163  0.88605188  0.87813456  1  0.126239  0.000614  0.951924  0.001  0.127806  0.00061  1.030419  0.001  0.129894  0.000389  1.02956  0.001  0.121786  0.126275  0.000803  1.031163  0.001
H  H7  1  0.06983443  0.61394333  0.37813236  1  0.126313  0.000607  0.951853  0.001  0.12782  0.00061  1.03039  0.001  0.129909  0.000389  1.029533  0.001  0.12182  0.126285  0.000804  1.031133  0.001
H  H8  1  0.56984943  0.11394940  0.12186720  1  0.126196  0.000611  0.951927  0.001  0.127749  0.00061  1.030462  0.001  0.129839  0.000389  1.029603  0.001  0.121767  0.126219  0.000803  1.031208  0.001
H  H9  1  0.93016534  0.38605529  0.62186711  1  0.126319  0.0006  0.951775  0.001  0.127811  0.00061  1.030361  0.001  0.129901  0.000389  1.029502  0.001  0.121819  0.126277  0.000804  1.031101  0.001
H  H10  1  0.25235771  0.81651252  0.68379940  1  0.141928  -0.00012  0.957136  0.0  0.14328  -0.0  1.029839  0.0  0.146875  -4e-06  1.025184  0.0  0.152662  0.14037  1.3e-05  1.033476  0.0
H  H11  1  0.24763734  0.68349081  0.18379829  1  0.141951  -0.000124  0.957225  0.0  0.143299  -0.0  1.02991  0.0  0.146896  -3e-06  1.025252  0.0  0.152671  0.140395  1.3e-05  1.033547  0.0
H  H12  1  0.74764206  0.18348610  0.31620160  1  0.141919  -0.00012  0.957139  0.0  0.143266  -0.0  1.029847  0.0  0.146864  -4e-06  1.025188  0.0  0.152657  0.140356  1.3e-05  1.033488  0.0
H  H13  1  0.75236371  0.31651047  0.81620194  1  0.14196  -0.000126  0.957227  0.0  0.143299  0.0  1.029926  0.0  0.146898  -3e-06  1.025266  0.0  0.152662  0.140392  1.2e-05  1.033561  0.0
C  C14  1  0.05236154  0.75657591  0.96430840  1  0.686379  -0.008831  3.875066  -0.009  0.645319  -0.002136  4.195854  -0.003  0.683307  -0.002364  4.185973  -0.002  0.209999  0.619278  -0.001615  4.200873  -0.003
C  C15  1  0.44761860  0.74342469  0.46430994  1  0.68626  -0.008846  3.875205  -0.009  0.645288  -0.002136  4.195831  -0.003  0.68328  -0.002364  4.185941  -0.002  0.209895  0.619243  -0.001615  4.200847  -0.003
C  C16  1  0.94763750  0.24342538  0.03569260  1  0.6864  -0.008821  3.874984  -0.009  0.645267  -0.002136  4.195886  -0.003  0.683257  -0.002364  4.186001  -0.002  0.209957  0.619221  -0.001615  4.200908  -0.003
C  C17  1  0.55238256  0.25657261  0.53569030  1  0.686283  -0.008845  3.875311  -0.009  0.645341  -0.002135  4.195884  -0.003  0.68333  -0.002364  4.185999  -0.002  0.209912  0.61929  -0.001615  4.200918  -0.003
C  C18  1  0.23382097  0.91292601  0.89967659  1  -0.183599  0.013566  3.57839  0.015  -0.255482  0.007264  3.816356  0.008  -0.259294  0.004654  3.823091  0.006  -0.050621  -0.252687  0.009585  3.812214  0.011
C  C19  1  0.26616271  0.58707287  0.39967665  1  -0.183859  0.013595  3.578502  0.015  -0.255595  0.007265  3.816359  0.008  -0.259414  0.004654  3.823112  0.006  -0.050627  -0.252778  0.009587  3.812195  0.011
C  C20  1  0.76617605  0.08707527  0.10032365  1  -0.183524  0.013558  3.578339  0.015  -0.255375  0.007264  3.816294  0.008  -0.259184  0.004653  3.823027  0.006  -0.050561  -0.252583  0.009584  3.812164  0.011
C  C21  1  0.73383578  0.41292310  0.60032281  1  -0.183783  0.013612  3.578483  0.015  -0.255617  0.007262  3.816446  0.008  -0.259428  0.004654  3.823187  0.006  -0.050669  -0.252806  0.009586  3.812293  0.011
C  C22  1  0.11691627  0.89191518  0.71078099  1  0.16313  -0.001623  3.574927  0.001  0.082682  0.000524  3.848398  0.002  0.097108  -0.000834  3.857895  0.001  0.180905  0.073363  0.00173  3.842005  0.003
C  C23  1  0.38308176  0.60809042  0.21078011  1  0.162985  -0.001612  3.575046  0.001  0.082609  0.000523  3.848523  0.002  0.09704  -0.000835  3.858014  0.001  0.180893  0.073281  0.001731  3.842148  0.003
C  C24  1  0.88308479  0.10808611  0.28921924  1  0.163158  -0.001637  3.574832  0.001  0.082712  0.000522  3.848316  0.002  0.097143  -0.000835  3.857805  0.001  0.18089  0.073385  0.001731  3.841934  0.003
C  C25  1  0.61691866  0.39190953  0.78921935  1  0.162952  -0.001585  3.574974  0.001  0.082556  0.000523  3.848422  0.002  0.096985  -0.000835  3.857917  0.001  0.180856  0.073233  0.001731  3.842029  0.003
N  N26  1  0.09542713  0.94618416  0.80697736  1  0.066661  0.000528  3.54265  0.0  0.18568  0.000874  3.727207  0.001  0.177427  0.000706  3.745666  0.001  -0.112438  0.190286  0.001041  3.71573  0.001
N  N27  1  0.40457035  0.55382138  0.30697747  1  0.066856  0.000519  3.542669  0.0  0.185708  0.000871  3.727312  0.001  0.177431  0.000707  3.74582  0.001  -0.112488  0.190308  0.00104  3.715844  0.001
N  N28  1  0.90457191  0.05381712  0.19302288  1  0.066601  0.000535  3.542691  0.0  0.185618  0.000867  3.727242  0.001  0.177342  0.000707  3.745742  0.001  -0.112449  0.190225  0.001041  3.71577  0.001
N  N29  1  0.59542942  0.44617725  0.69302123  1  0.066767  0.000515  3.542811  0.0  0.1857  0.000872  3.727375  0.001  0.177422  0.000706  3.745879  0.001  -0.112449  0.190296  0.00104  3.715902  0.001
N  N30  1  0.90990017  0.04169204  0.80788594  1  -0.08333  0.004867  2.847987  0.006  -0.090761  0.003577  3.123189  0.005  -0.089383  0.002229  3.132252  0.003  -0.062338  -0.091839  0.00487  3.117607  0.006
N  N31  1  0.59009808  0.45831394  0.30788755  1  -0.083382  0.004892  2.848092  0.006  -0.090718  0.003578  3.123262  0.005  -0.089327  0.002229  3.132315  0.003  -0.062323  -0.091796  0.004869  3.117684  0.006
N  N32  1  0.09010089  0.95830924  0.19211353  1  -0.083289  0.004887  2.848027  0.006  -0.090717  0.003581  3.123235  0.005  -0.089332  0.002228  3.132294  0.003  -0.062329  -0.091796  0.00487  3.117655  0.006
N  N33  1  0.40990169  0.54168468  0.69211115  1  -0.083358  0.00486  2.84814  0.006  -0.090691  0.00358  3.123276  0.005  -0.089297  0.002228  3.132322  0.003  -0.062348  -0.091772  0.00487  3.117694  0.006
N  N34  1  0.82310438  0.04594909  0.71423316  1  -0.055739  -0.001422  2.918255  0.0  -0.052115  0.000361  3.230081  0.001  -0.04939  -0.000717  3.2406  0.0  -0.070728  -0.053703  0.001438  3.223011  0.002
N  N35  1  0.67689438  0.45405691  0.21423473  1  -0.05587  -0.001453  2.918425  0.0  -0.052301  0.000368  3.230316  0.001  -0.049576  -0.000719  3.240832  0.0  -0.070799  -0.053882  0.001438  3.223241  0.002
N  N36  1  0.17689805  0.95405086  0.28576630  1  -0.055793  -0.001453  2.918226  0.0  -0.052177  0.000367  3.230063  0.001  -0.04945  -0.000719  3.240577  0.0  -0.070741  -0.053764  0.001438  3.222991  0.002
N  N37  1  0.32310402  0.54594304  0.78576397  1  -0.055869  -0.001408  2.918418  0.0  -0.052321  0.000366  3.230324  0.001  -0.049596  -0.000717  3.240841  0.0  -0.070778  -0.053907  0.001438  3.223244  0.002
N  N38  1  0.94846983  0.95396872  0.65234252  1  -0.238014  0.052401  3.207393  0.068  -0.20699  0.040935  3.537686  0.057  -0.231342  0.03265  3.551931  0.049  -0.238419  -0.191446  0.045944  3.52876  0.06
N  N39  1  0.55152933  0.54603688  0.15234293  1  -0.237765  0.052405  3.207443  0.068  -0.206745  0.040935  3.537706  0.057  -0.2311  0.032652  3.551956  0.049  -0.238317  -0.191194  0.045945  3.528783  0.06
N  N40  1  0.05153058  0.04603123  0.34765771  1  -0.237979  0.052411  3.207218  0.068  -0.206954  0.040933  3.537513  0.057  -0.231304  0.032651  3.551753  0.049  -0.238396  -0.191405  0.045945  3.528583  0.06
N  N41  1  0.44847035  0.45396572  0.84765653  1  -0.237751  0.052388  3.207296  0.068  -0.206708  0.040933  3.537542  0.057  -0.231065  0.032652  3.551799  0.049  -0.238311  -0.191153  0.045948  3.528598  0.06
O  O42  1  0.78339657  0.72313737  0.95310483  1  -0.613379  0.091965  2.089166  0.129  -0.601002  0.054083  2.386365  0.083  -0.643304  0.038944  2.380201  0.065  -0.328394  -0.571073  0.064385  2.389756  0.093
O  O43  1  0.71657934  0.77686520  0.45310945  1  -0.613229  0.091956  2.089296  0.129  -0.60088  0.054077  2.38642  0.083  -0.643179  0.03894  2.380252  0.065  -0.328267  -0.570952  0.06438  2.389789  0.093
O  O44  1  0.21659971  0.27686656  0.04689617  1  -0.613333  0.091955  2.089173  0.129  -0.600942  0.054079  2.386403  0.083  -0.64324  0.038942  2.380235  0.065  -0.328343  -0.57102  0.064381  2.38981  0.093
O  O45  1  0.28342245  0.22313342  0.54689078  1  -0.613264  0.091956  2.089293  0.129  -0.600925  0.054077  2.386418  0.083  -0.643222  0.03894  2.380249  0.065  -0.328265  -0.570996  0.064378  2.3898  0.093
O  O46  1  0.18113657  0.68341821  0.02243045  1  -0.62049  0.000932  2.044866  0.005  -0.599768  -0.000931  2.321683  0.002  -0.626453  -0.002257  2.30864  0.0  -0.313892  -0.579659  0.000619  2.329238  0.004
O  O47  1  0.31882707  0.81657681  0.52243075  1  -0.620465  0.000938  2.044728  0.005  -0.599819  -0.00093  2.321557  0.002  -0.6265  -0.002256  2.308502  0.0  -0.313914  -0.579715  0.00062  2.329109  0.004
O  O48  1  0.81886045  0.31658307  0.97756902  1  -0.620573  0.000935  2.044779  0.005  -0.59982  -0.000932  2.321639  0.002  -0.626508  -0.002256  2.308596  0.0  -0.313923  -0.579702  0.000619  2.329187  0.004
O  O49  1  0.68117280  0.18341784  0.47757025  1  -0.620525  0.000936  2.044855  0.005  -0.599832  -0.000931  2.321606  0.002  -0.626517  -0.002256  2.308557  0.0  -0.313922  -0.579719  0.00062  2.32916  0.004
