# generated using pymatgen
data_MnH11C16(NO)5
_symmetry_space_group_name_H-M   'P 1'
_cell_length_a   9.16420790
_cell_length_b   9.44111431
_cell_length_c   10.29947930
_cell_angle_alpha   85.07541541
_cell_angle_beta   80.85085080
_cell_angle_gamma   76.69416174
_symmetry_Int_Tables_number   1
_chemical_formula_structural   MnH11C16(NO)5
_chemical_formula_sum   'Mn2 H22 C32 N10 O10'
_cell_volume   855.03461207
_cell_formula_units_Z   2
loop_
 _symmetry_equiv_pos_site_id
 _symmetry_equiv_pos_as_xyz
  1  'x, y, z'
loop_
 _atom_site_type_symbol
 _atom_site_label
 _atom_site_symmetry_multiplicity
 _atom_site_fract_x
 _atom_site_fract_y
 _atom_site_fract_z
 _atom_site_occupancy
 _atom_site_hle17_ddec_charge
 _atom_site_hle17_ddec_spin_density
 _atom_site_hle17_ddec_sum_bond_order
 _atom_site_hle17_magmom
 _atom_site_hse06_10hf_ddec_charge
 _atom_site_hse06_10hf_ddec_spin_density
 _atom_site_hse06_10hf_ddec_sum_bond_order
 _atom_site_hse06_10hf_magmom
 _atom_site_hse06_ddec_charge
 _atom_site_hse06_ddec_spin_density
 _atom_site_hse06_ddec_sum_bond_order
 _atom_site_hse06_magmom
 _atom_site_pbe_cm5_charge
 _atom_site_pbe_ddec_charge
 _atom_site_pbe_ddec_spin_density
 _atom_site_pbe_ddec_sum_bond_order
 _atom_site_pbe_magmom
Mn  Mn0  1  0.56747250  0.79470777  0.61246694  1  0.984562  -4.79665  1.931915  -4.663  0.788852  -4.718909  2.449686  -4.511  0.843845  -4.763146  2.388366  -4.576  0.625097  0.746538  -4.674227  2.496081  -4.447
Mn  Mn1  1  0.43251086  0.20528329  0.38754757  1  0.984529  -4.796524  1.932017  -4.663  0.788875  -4.718753  2.449809  -4.511  0.843869  -4.763003  2.388485  -4.576  0.625041  0.746574  -4.674067  2.496197  -4.447
H  H2  1  0.08506357  0.66394675  0.50512915  1  0.390382  -6.3e-05  0.913571  0.0  0.35525  -0.000169  0.997933  0.0  0.36805  -0.000117  0.984528  0.0  0.293894  0.346007  -0.000261  1.006993  0.0
H  H3  1  0.91491106  0.33606402  0.49480692  1  0.390493  -6.1e-05  0.913218  0.0  0.355523  -0.000169  0.997356  0.0  0.368299  -0.000117  0.984142  0.0  0.294045  0.346272  -0.000261  1.006445  0.0
H  H4  1  0.81428650  0.71505278  0.42984304  1  0.41716  -8.6e-05  0.885317  -0.001  0.385857  -0.000904  0.950218  -0.002  0.396278  -0.000622  0.934894  -0.001  0.297078  0.377525  -0.001252  0.962631  -0.002
H  H5  1  0.18571499  0.28493631  0.57018655  1  0.417074  -8.4e-05  0.885443  -0.001  0.385855  -0.000905  0.950244  -0.002  0.396249  -0.000623  0.934951  -0.001  0.29712  0.377525  -0.001253  0.962651  -0.002
H  H6  1  0.72811290  0.59076900  0.42654824  1  0.424454  -0.00023  0.878578  -0.001  0.392236  -0.000996  0.943491  -0.002  0.403624  -0.000697  0.927045  -0.002  0.292697  0.38307  -0.001341  0.956704  -0.003
H  H7  1  0.27187860  0.40923062  0.57346424  1  0.424323  -0.000229  0.878746  -0.001  0.392128  -0.000996  0.943632  -0.002  0.403515  -0.000697  0.927189  -0.002  0.292666  0.382958  -0.001341  0.956852  -0.003
H  H8  1  0.28694552  0.04615152  0.73766435  1  0.088995  -9e-06  0.954006  0.0  0.091919  -0.000482  1.026307  -0.001  0.094731  -0.000256  1.023164  0.0  0.119156  0.08999  -0.000768  1.028387  -0.001
H  H9  1  0.71304330  0.95382942  0.26234068  1  0.089026  -1.3e-05  0.95409  0.0  0.091967  -0.000482  1.02638  -0.001  0.094769  -0.000255  1.023246  0.0  0.119211  0.090043  -0.000768  1.028472  -0.001
H  H10  1  0.14491331  0.10892775  0.95934223  1  0.109786  -0.000261  0.93014  0.0  0.124619  -0.0003  0.978199  0.0  0.127631  -0.000237  0.977941  0.0  0.112465  0.122127  -0.000448  0.978921  0.0
H  H11  1  0.85508545  0.89105842  0.04065891  1  0.109768  -0.000264  0.930253  0.0  0.124624  -0.0003  0.978282  0.0  0.127633  -0.000237  0.97803  0.0  0.112484  0.122134  -0.000448  0.979003  0.0
H  H12  1  0.23118655  0.96347255  0.15867200  1  0.106988  0.000172  0.979861  0.0  0.113137  3.6e-05  1.049138  0.0  0.116322  6.6e-05  1.046183  0.0  0.1075  0.11099  -1.5e-05  1.050856  0.0
H  H13  1  0.76882518  0.03654623  0.84133273  1  0.107003  0.000162  0.979912  0.0  0.113136  3.6e-05  1.049205  0.0  0.116321  6.6e-05  1.046251  0.0  0.107445  0.110985  -1.5e-05  1.050916  0.0
H  H14  1  0.41828379  0.74941237  0.25121377  1  0.099557  0.000123  0.958982  0.0  0.109878  0.00015  1.019251  0.0  0.111409  0.00018  1.020856  0.0  0.10398  0.108595  4.6e-05  1.018371  0.0
H  H15  1  0.58173806  0.25061086  0.74879878  1  0.099529  0.000119  0.959191  0.0  0.109834  0.000151  1.019435  0.0  0.111406  0.00018  1.020997  0.0  0.103983  0.108552  4.6e-05  1.018546  0.0
H  H16  1  0.63851387  0.54416842  0.21297647  1  0.113285  0.000143  0.968749  0.0  0.119584  6.8e-05  1.034728  0.0  0.123823  0.00015  1.031544  0.0  0.105  0.116449  -1.3e-05  1.036897  0.0
H  H17  1  0.36150722  0.45585846  0.78704942  1  0.113179  0.000148  0.96895  0.0  0.119519  6.9e-05  1.034847  0.0  0.123745  0.00015  1.031689  0.0  0.104964  0.116388  -1.3e-05  1.037018  0.0
H  H18  1  0.84978213  0.40212167  0.05461841  1  0.106487  0.000203  0.918843  0.0  0.121539  5.5e-05  0.96902  0.0  0.124437  7.5e-05  0.967516  0.0  0.115278  0.119238  2.8e-05  0.970346  0.0
H  H19  1  0.15023103  0.59790090  0.94540613  1  0.106393  0.000203  0.918667  0.0  0.121514  5.6e-05  0.968789  0.0  0.124387  7.4e-05  0.967317  0.0  0.11524  0.119213  2.8e-05  0.970114  0.0
H  H20  1  0.97591147  0.36684284  0.81965370  1  0.113635  -0.000265  0.944348  0.0  0.123969  -0.000327  1.001156  0.0  0.127595  -0.000248  0.999788  0.0  0.11069  0.120818  -0.00048  1.003224  0.0
H  H21  1  0.02408720  0.63314391  0.18036877  1  0.113608  -0.000264  0.944527  0.0  0.123987  -0.000327  1.001314  0.0  0.127611  -0.000248  0.999952  0.0  0.110677  0.120859  -0.00048  1.003366  0.0
H  H22  1  0.86734745  0.53406339  0.64154483  1  0.07964  -0.000123  0.949209  0.0  0.088038  -0.000573  1.012941  -0.001  0.090635  -0.000395  1.010251  0.0  0.118644  0.086002  -0.000782  1.015261  -0.001
H  H23  1  0.13264591  0.46590154  0.35847380  1  0.079541  -0.000122  0.949171  0.0  0.087992  -0.000574  1.01287  -0.001  0.090593  -0.000396  1.010179  0.0  0.118575  0.085953  -0.000782  1.015194  -0.001
C  C24  1  0.27503385  0.81196043  0.50296549  1  -0.027277  -0.005087  3.78549  -0.005  -0.03458  -0.008466  4.039233  -0.008  -0.036306  -0.006949  4.057834  -0.006  0.08924  -0.033973  -0.010161  4.027529  -0.009
C  C25  1  0.72494879  0.18804946  0.49702099  1  -0.027381  -0.004999  3.785663  -0.005  -0.034578  -0.008458  4.039194  -0.008  -0.036319  -0.006949  4.057819  -0.006  0.089214  -0.034012  -0.010162  4.027537  -0.009
C  C26  1  0.16797370  0.88427698  0.42217782  1  -0.051914  0.00016  3.796349  0.0  -0.053515  -0.002029  4.064943  -0.001  -0.058915  -0.000725  4.083809  -0.001  0.080922  -0.049259  -0.003556  4.051234  -0.003
C  C27  1  0.83201941  0.11573039  0.57780062  1  -0.051711  -6e-06  3.796536  0.0  -0.053303  -0.001999  4.065049  -0.001  -0.058714  -0.000752  4.083947  -0.001  0.081091  -0.049011  -0.003554  4.051314  -0.003
C  C28  1  0.30360679  0.66734864  0.57326855  1  0.648276  -0.002037  3.910803  -0.002  0.597557  -0.005484  4.204225  -0.005  0.631763  -0.003857  4.195533  -0.003  0.22648  0.573288  -0.006964  4.21062  -0.006
C  C29  1  0.69636775  0.33265245  0.42671124  1  0.648042  -0.00204  3.911729  -0.002  0.597374  -0.00549  4.204996  -0.005  0.631592  -0.003857  4.196293  -0.003  0.226418  0.573127  -0.00697  4.211375  -0.006
C  C30  1  0.04061915  0.83838830  0.37937962  1  0.637442  -0.000495  3.87184  -0.001  0.584965  -0.000684  4.178187  -0.001  0.617058  -0.000479  4.170729  0.0  0.224702  0.562929  -0.000906  4.182487  -0.001
C  C31  1  0.95937647  0.16163295  0.62055045  1  0.637102  -0.00041  3.871482  0.0  0.584685  -0.000691  4.177796  -0.001  0.616748  -0.000483  4.170367  0.0  0.224611  0.562642  -0.000906  4.18207  -0.001
C  C32  1  0.32324265  0.98372631  0.82524240  1  0.160372  -0.003468  3.676295  -0.003  0.127216  -0.006463  3.934422  -0.005  0.136252  -0.005351  3.950418  -0.005  0.064936  0.120995  -0.007898  3.923059  -0.006
C  C33  1  0.67675936  0.01626542  0.17476452  1  0.160408  -0.003399  3.676475  -0.003  0.127235  -0.006459  3.934641  -0.005  0.136277  -0.005343  3.950626  -0.005  0.064922  0.121011  -0.007892  3.923303  -0.006
C  C34  1  0.24356734  0.01863536  0.95076053  1  -0.107664  0.001294  3.722039  0.001  -0.120977  0.000868  3.973365  0.0  -0.127773  0.001458  3.993755  0.001  -0.07827  -0.115985  0.000526  3.959007  0.0
C  C35  1  0.75643729  0.98135964  0.04924763  1  -0.107625  0.001224  3.722271  0.001  -0.120956  0.000869  3.973578  0.0  -0.127753  0.001453  3.993971  0.001  -0.078281  -0.115971  0.000524  3.959216  0.0
C  C36  1  0.29086102  0.93713014  0.06041878  1  -0.042473  -0.002901  3.664295  -0.003  -0.067995  -0.004678  3.912605  -0.004  -0.065262  -0.004002  3.930465  -0.003  -0.061807  -0.069748  -0.005951  3.900054  -0.005
C  C37  1  0.70915255  0.06288003  0.93959044  1  -0.042747  -0.002826  3.664559  -0.002  -0.068223  -0.004677  3.91286  -0.004  -0.065492  -0.003997  3.930718  -0.003  -0.061818  -0.069962  -0.005948  3.900289  -0.005
C  C38  1  0.41843788  0.81925900  0.04419428  1  0.022676  0.000567  3.79481  0.0  0.036895  0.000164  4.029996  0.0  0.033969  0.00057  4.055508  0.0  -0.002357  0.038804  -0.000163  4.013204  0.0
C  C39  1  0.58157697  0.18075557  0.95581724  1  0.022911  0.000507  3.794331  0.0  0.037165  0.000162  4.029638  0.0  0.03424  0.000567  4.055158  0.0  -0.002353  0.039069  -0.000164  4.012844  0.0
C  C40  1  0.47543177  0.72770530  0.15143952  1  -0.086871  0.000852  3.722597  0.0  -0.107998  0.000755  3.976438  0.0  -0.111526  0.0009  4.00124  0.0  -0.081814  -0.105851  0.000471  3.959702  0.0
C  C41  1  0.52459275  0.27231577  0.84857481  1  -0.086884  0.000942  3.722441  0.0  -0.107992  0.000756  3.976295  0.0  -0.111554  0.000897  4.001068  0.0  -0.081684  -0.105844  0.000472  3.959547  0.0
C  C42  1  0.59892041  0.61488528  0.13043817  1  -0.097431  -0.000127  3.722105  0.0  -0.120933  -8.5e-05  3.978163  0.0  -0.123942  0.0  3.999522  0.0  -0.083645  -0.118907  -0.000157  3.963137  0.0
C  C43  1  0.40110214  0.38513468  0.86957461  1  -0.09763  -0.000205  3.722173  0.0  -0.12113  -8.8e-05  3.978261  0.0  -0.124132  3e-06  3.999626  0.0  -0.08389  -0.119115  -0.000158  3.96323  0.0
C  C44  1  0.67654615  0.58605673  0.00022833  1  0.024237  0.00148  3.799196  0.001  0.039971  0.000911  4.032712  0.001  0.037289  0.001415  4.057836  0.001  -0.000839  0.041913  0.000556  4.014975  0.0
C  C45  1  0.32346276  0.41394943  0.99979168  1  0.024569  0.001537  3.798987  0.001  0.040265  0.000917  4.032535  0.001  0.037587  0.00141  4.057644  0.001  -0.000571  0.042211  0.000557  4.014785  0.0
C  C46  1  0.80632252  0.47255622  0.97325081  1  -0.047055  -0.003849  3.694037  -0.003  -0.072955  -0.0057  3.943759  -0.004  -0.070288  -0.004948  3.962197  -0.004  -0.060459  -0.074489  -0.006997  3.930421  -0.005
C  C47  1  0.19367609  0.52743599  0.02677208  1  -0.046714  -0.003863  3.693764  -0.003  -0.072644  -0.005706  3.943519  -0.004  -0.069956  -0.004942  3.961965  -0.004  -0.060331  -0.074173  -0.006999  3.930178  -0.005
C  C48  1  0.87609892  0.45321547  0.84474445  1  -0.121671  0.00219  3.738738  0.001  -0.136219  0.001465  3.996176  0.001  -0.143478  0.002142  4.017273  0.001  -0.084214  -0.131151  0.000968  3.981974  0.001
C  C49  1  0.12388477  0.54676373  0.15527412  1  -0.122037  0.002198  3.739074  0.001  -0.136677  0.001472  3.996628  0.001  -0.143935  0.002136  4.017718  0.001  -0.084374  -0.131625  0.000969  3.982429  0.001
C  C50  1  0.81496562  0.54670934  0.74359138  1  0.153604  -0.004453  3.68458  -0.004  0.120246  -0.007223  3.940116  -0.006  0.128921  -0.006111  3.956371  -0.005  0.061366  0.11398  -0.008671  3.929329  -0.007
C  C51  1  0.18502589  0.45326423  0.25642373  1  0.153938  -0.004457  3.68443  -0.004  0.120555  -0.007227  3.94001  -0.006  0.129227  -0.00611  3.956268  -0.005  0.061543  0.114291  -0.008674  3.929232  -0.007
C  C52  1  0.62299524  0.67437841  0.89138734  1  0.135651  -0.002014  3.739099  -0.002  0.130118  -0.004225  3.973351  -0.004  0.134341  -0.003414  3.995638  -0.003  0.123852  0.127091  -0.00521  3.957203  -0.005
C  C53  1  0.37701485  0.32562217  0.10862821  1  0.135208  -0.002067  3.739304  -0.002  0.129789  -0.004228  3.973632  -0.004  0.134011  -0.003415  3.995919  -0.003  0.123674  0.126764  -0.005212  3.957482  -0.005
C  C54  1  0.49157007  0.79174126  0.91379706  1  0.129743  -0.001754  3.755698  -0.002  0.12354  -0.004189  3.992367  -0.004  0.127546  -0.003252  4.015149  -0.003  0.11985  0.120644  -0.005107  3.97655  -0.004
C  C55  1  0.50844615  0.20826686  0.08621782  1  0.130156  -0.001695  3.755293  -0.002  0.123724  -0.004185  3.992293  -0.004  0.127729  -0.003248  4.015072  -0.003  0.119938  0.120827  -0.005105  3.976479  -0.004
N  N56  1  0.37140385  0.89972038  0.50622666  1  -0.242101  -0.02969  3.154046  -0.019  -0.19655  -0.037708  3.443081  -0.022  -0.208384  -0.033006  3.458343  -0.018  -0.213729  -0.188002  -0.041833  3.43243  -0.025
N  N57  1  0.62857456  0.10028349  0.49377658  1  -0.242247  -0.029718  3.154056  -0.019  -0.196792  -0.037727  3.443101  -0.022  -0.208626  -0.033  3.458364  -0.018  -0.213784  -0.188235  -0.041839  3.432468  -0.025
N  N58  1  0.32489697  0.02039180  0.43159239  1  -0.088521  -0.029182  3.166834  -0.016  -0.039166  -0.035743  3.478338  -0.017  -0.048072  -0.030761  3.490634  -0.013  -0.106646  -0.031596  -0.040173  3.469613  -0.021
N  N59  1  0.67508811  0.97961192  0.56840796  1  -0.088258  -0.029172  3.166568  -0.016  -0.038756  -0.035728  3.477839  -0.017  -0.047656  -0.030772  3.490126  -0.013  -0.10645  -0.031192  -0.040167  3.469123  -0.021
N  N60  1  0.20339543  0.01374704  0.37899031  1  -0.202632  -0.008823  2.950512  -0.01  -0.201631  -0.013576  3.238351  -0.014  -0.202485  -0.01157  3.249973  -0.012  -0.201957  -0.200265  -0.016005  3.229412  -0.016
N  N61  1  0.79659945  0.98625723  0.62099500  1  -0.202642  -0.008766  2.950346  -0.01  -0.201708  -0.013599  3.238163  -0.014  -0.202556  -0.011539  3.249778  -0.012  -0.202038  -0.200347  -0.016003  3.229215  -0.016
N  N62  1  0.44331251  0.87331332  0.80716446  1  -0.360006  -0.029209  3.262835  -0.018  -0.294084  -0.033659  3.537252  -0.018  -0.314616  -0.029531  3.5548  -0.015  -0.316345  -0.279146  -0.03734  3.524685  -0.021
N  N63  1  0.55669523  0.12668269  0.19284218  1  -0.360178  -0.029272  3.262863  -0.018  -0.294197  -0.033668  3.537368  -0.018  -0.314724  -0.029541  3.554908  -0.015  -0.316375  -0.279262  -0.037349  3.524814  -0.021
N  N64  1  0.69179191  0.65324241  0.76535077  1  -0.335649  -0.02609  3.224853  -0.014  -0.268928  -0.030588  3.495926  -0.014  -0.287267  -0.026646  3.510304  -0.011  -0.308224  -0.255118  -0.034377  3.485464  -0.017
N  N65  1  0.30821450  0.34674946  0.23466327  1  -0.335577  -0.026078  3.225025  -0.014  -0.268916  -0.030588  3.49616  -0.014  -0.287255  -0.026645  3.510543  -0.011  -0.308199  -0.25511  -0.034374  3.485702  -0.017
O  O66  1  0.42503158  0.62672238  0.62250319  1  -0.574272  -0.026214  1.980618  -0.019  -0.515063  -0.033411  2.222125  -0.025  -0.541235  -0.029424  2.211267  -0.021  -0.290753  -0.495286  -0.03676  2.229506  -0.028
O  O67  1  0.57493164  0.37327487  0.37749026  1  -0.574162  -0.026223  1.980921  -0.019  -0.514993  -0.033416  2.222424  -0.025  -0.54117  -0.029426  2.21156  -0.021  -0.290604  -0.495219  -0.036757  2.229805  -0.028
O  O68  1  0.20299098  0.59045112  0.57945386  1  -0.619072  -0.002693  2.022632  -0.003  -0.557966  -0.0053  2.236667  -0.006  -0.58307  -0.00386  2.224185  -0.005  -0.309337  -0.539176  -0.006705  2.245846  -0.007
O  O69  1  0.79698791  0.40955011  0.42049325  1  -0.619001  -0.002686  2.022847  -0.003  -0.557951  -0.005296  2.236758  -0.006  -0.583059  -0.003858  2.224322  -0.005  -0.309478  -0.539155  -0.006706  2.245933  -0.007
O  O70  1  0.00718315  0.71549083  0.43982077  1  -0.593032  -0.00018  2.145184  0.0  -0.531359  -0.000659  2.369803  -0.001  -0.555354  -0.000344  2.354904  -0.001  -0.328545  -0.514036  -0.000983  2.379843  -0.001
O  O71  1  0.99280742  0.28452295  0.56011271  1  -0.592795  -0.000201  2.14465  0.0  -0.531405  -0.000649  2.36924  -0.001  -0.555293  -0.000349  2.354413  -0.001  -0.328644  -0.514109  -0.000982  2.379313  -0.001
O  O72  1  0.96904535  0.90496203  0.29346965  1  -0.53232  0.00016  1.910483  0.0  -0.499786  -0.000258  2.12991  -0.001  -0.518381  -1.8e-05  2.122542  0.0  -0.288716  -0.48692  -0.00079  2.135124  -0.001
O  O73  1  0.03100715  0.09504132  0.70646672  1  -0.532439  0.000102  1.9095  0.0  -0.499888  -0.000262  2.128858  -0.001  -0.518506  -7e-06  2.121527  0.0  -0.2888  -0.487019  -0.000791  2.134053  -0.001
O  O74  1  0.71086683  0.69730987  0.43965238  1  -0.816939  -0.031443  1.899573  -0.02  -0.755706  -0.041761  2.11036  -0.027  -0.779188  -0.03706  2.075358  -0.023  -0.575167  -0.738105  -0.046377  2.138457  -0.031
O  O75  1  0.28913617  0.30268262  0.56038249  1  -0.816804  -0.031442  1.899816  -0.02  -0.755614  -0.041758  2.110351  -0.027  -0.779082  -0.037055  2.075416  -0.023  -0.575191  -0.738017  -0.046373  2.138437  -0.031
