# generated using pymatgen
data_ZnH21C34NO4
_symmetry_space_group_name_H-M   'P 1'
_cell_length_a   15.66049600
_cell_length_b   18.29019409
_cell_length_c   19.65442367
_cell_angle_alpha   89.83917758
_cell_angle_beta   90.37335840
_cell_angle_gamma   112.90933152
_symmetry_Int_Tables_number   1
_chemical_formula_structural   ZnH21C34NO4
_chemical_formula_sum   'Zn2 H42 C68 N2 O8'
_cell_volume   5185.51702960
_cell_formula_units_Z   2
loop_
 _symmetry_equiv_pos_site_id
 _symmetry_equiv_pos_as_xyz
  1  'x, y, z'
loop_
 _atom_site_type_symbol
 _atom_site_label
 _atom_site_symmetry_multiplicity
 _atom_site_fract_x
 _atom_site_fract_y
 _atom_site_fract_z
 _atom_site_occupancy
 _atom_site_pbe_bader_charge
 _atom_site_pbe_bader_spin_density
 _atom_site_pbe_cm5_charge
 _atom_site_pbe_ddec_charge
 _atom_site_pbe_ddec_spin_density
 _atom_site_pbe_ddec_sum_bond_order
 _atom_site_pbe_magmom
Zn  Zn0  1  0.49531144  0.42131043  0.49877257  1  1.291097  0  0.665193  0.821889  0  2.430591  0
Zn  Zn1  1  0.50472357  0.57828385  0.49755586  1  1.292481  0  0.665711  0.821813  0  2.434898  0
H  H2  1  0.39848553  0.38023341  0.93486212  1  0.0564  0  0.100143  0.098852  0  1.004048  0
H  H3  1  0.61199722  0.86624361  0.57191247  1  0.089187  0  0.110958  0.11695  0  0.994139  0
H  H4  1  0.39441699  0.27086585  0.42891016  1  0.133474  0  0.130721  0.10628  0  0.965468  0
H  H5  1  0.60726813  0.72782109  0.56705114  1  0.128191  0  0.130011  0.106858  0  0.970862  0
H  H6  1  0.47482728  0.05819958  0.39206593  1  0.041201  0  0.107299  0.10683  0  0.993046  0
H  H7  1  0.52488723  0.94102247  0.60943173  1  0.052506  0  0.106615  0.103093  0  0.994553  0
H  H8  1  0.47056907  0.92190548  0.39353204  1  0.071086  0  0.107672  0.108074  0  0.990256  0
H  H9  1  0.52918839  0.07740910  0.60804146  1  0.084289  0  0.107581  0.10715  0  0.994023  0
H  H10  1  0.77249278  0.47123724  0.52576574  1  0.098505  0  0.100961  0.104118  0  1.037959  0
H  H11  1  0.23002716  0.53136913  0.51286940  1  0.115516  0  0.101388  0.105485  0  1.037802  0
H  H12  1  0.81370745  0.71538540  0.51142793  1  0.1085  0  0.101795  0.10595  0  1.00177  0
H  H13  1  0.60131501  0.61969586  0.06193480  1  0.058691  0  0.100101  0.099004  0  1.004873  0
H  H14  1  0.18831427  0.28751956  0.53011710  1  0.069009  0  0.102529  0.107897  0  1.000687  0
H  H15  1  0.02072677  0.25130295  0.55361133  1  0.071075  0  0.096314  0.0975  0  1.025157  0
H  H16  1  0.98447170  0.75519681  0.52169885  1  0.075043  0  0.097019  0.098583  0  1.024903  0
H  H17  1  0.82272905  0.39518031  0.56135056  1  0.010351  0  0.099203  0.10158  0  1.027535  0
H  H18  1  0.18489505  0.61385165  0.53340610  1  0.084301  0  0.100523  0.103998  0  1.026155  0
H  H19  1  0.50389171  0.61835047  0.71461099  1  0.085594  0  0.101005  0.104118  0  1.00602  0
H  H20  1  0.49333562  0.38023640  0.28200615  1  0.091676  0  0.101101  0.103577  0  1.005904  0
H  H21  1  0.50422588  0.61922339  0.84186633  1  0.049099  0  0.09732  0.095361  0  1.009776  0
H  H22  1  0.49452808  0.38014743  0.15486272  1  0.051461  0  0.097719  0.095812  0  1.008795  0
H  H23  1  0.49663501  0.38128191  0.84254115  1  0.031831  0  0.097775  0.095784  0  1.008689  0
H  H24  1  0.39809986  0.37970308  0.06072203  1  0.065919  0  0.099906  0.098589  0  1.004553  0
H  H25  1  0.50439846  0.61879181  0.15465899  1  0.042663  0  0.097904  0.096131  0  1.008112  0
H  H26  1  0.49544571  0.38153087  0.71528435  1  0.092838  0  0.101619  0.105702  0  1.004343  0
H  H27  1  0.50667334  0.61858561  0.28183579  1  0.094502  0  0.101646  0.105199  0  1.004278  0
H  H28  1  0.84518451  0.29809303  0.67614082  1  0.052194  0  0.103386  0.105914  0  0.993224  0
H  H29  1  0.73974469  0.16027172  0.70545721  1  0.071468  0  0.099846  0.096522  0  0.993431  0
H  H30  1  0.70038583  0.05342141  0.61795344  1  0.025977  0  0.092849  0.086309  0  1.02141  0
H  H31  1  0.76466540  0.08571741  0.50102170  1  0.051386  0  0.100309  0.097718  0  0.992608  0
H  H32  1  0.87157522  0.22336515  0.47266321  1  0.059053  0  0.104758  0.107212  0  0.988247  0
H  H33  1  0.19610542  0.73589889  0.62919683  1  0.071501  0  0.102428  0.104161  0  0.993996  0
H  H34  1  0.30819880  0.87655179  0.62753127  1  0.054383  0  0.096703  0.091999  0  0.9983  0
H  H35  1  0.60186928  0.62016446  0.93607041  1  0.067425  0  0.099788  0.098641  0  1.004199  0
H  H36  1  0.31870408  0.96046724  0.52546721  1  0.080034  0  0.090587  0.085813  0  1.037673  0
H  H37  1  0.21755340  0.90255192  0.42460385  1  0.07482  0  0.096208  0.091787  0  0.999093  0
H  H38  1  0.10535040  0.76223044  0.42674747  1  0.104579  0  0.10302  0.105055  0  0.993021  0
H  H39  1  0.61018658  0.34350420  0.56818095  1  0.119377  0  0.128678  0.102059  0  0.971289  0
H  H40  1  0.38533320  0.65590343  0.43306131  1  0.121654  0  0.130634  0.105916  0  0.963138  0
H  H41  1  0.61726724  0.20888968  0.57112828  1  0.104005  0  0.108396  0.115778  0  1.02052  0
H  H42  1  0.37815981  0.79059564  0.43308750  1  0.111043  0  0.112303  0.12022  0  0.996301  0
H  H43  1  0.38900673  0.13228121  0.42707108  1  0.083314  0  0.111494  0.11732  0  0.993911  0
C  C44  1  0.50031003  0.49954732  0.36561138  1  1.495147  0  0.213358  0.594195  0  4.170982  0
C  C45  1  0.49544303  0.43211386  0.18253949  1  -0.045225  0  -0.095938  -0.142361  0  3.999862  0
C  C46  1  0.50045880  0.50026556  0.85108861  1  -0.0625  0  -0.006938  0.073658  0  4.007582  0
C  C47  1  0.49942708  0.49946482  0.14576121  1  -0.042483  0  -0.007016  0.073776  0  4.008631  0
C  C48  1  0.49717817  0.43312347  0.81462156  1  -0.037687  0  -0.096038  -0.141551  0  4.000019  0
C  C49  1  0.50346040  0.56671889  0.18243611  1  -0.05558  0  -0.09608  -0.142913  0  4.000008  0
C  C50  1  0.49724680  0.43307924  0.74386857  1  0.000365  0  -0.087139  -0.08844  0  3.996424  0
C  C51  1  0.50379620  0.56672272  0.25321437  1  -0.019236  0  -0.08709  -0.087013  0  3.996553  0
C  C52  1  0.49998830  0.50001669  0.70761793  1  0.047862  0  -0.020554  -0.034414  0  3.970887  0
C  C53  1  0.49979299  0.49934080  0.28938461  1  0.055971  0  -0.020431  -0.035616  0  3.968981  0
C  C54  1  0.44431767  0.43245428  0.96270262  1  -0.055903  0  -0.093607  -0.130445  0  4.005274  0
C  C55  1  0.49957807  0.49957982  0.63144824  1  1.499046  0  0.21202  0.590423  0  4.178629  0
C  C56  1  0.55553408  0.56746665  0.03412195  1  -0.062917  0  -0.093777  -0.130863  0  4.005227  0
C  C57  1  0.44409731  0.43216783  0.03349053  1  -0.055257  0  -0.093811  -0.129686  0  4.004774  0
C  C58  1  0.55588006  0.56769374  0.96332993  1  -0.050243  0  -0.093569  -0.129711  0  4.004532  0
C  C59  1  0.31876086  0.43667678  0.50402110  1  1.567243  0  0.2122  0.593425  0  4.171249  0
C  C60  1  0.68153035  0.56382314  0.50697972  1  1.584188  0  0.212657  0.594092  0  4.170652  0
C  C61  1  0.49966944  0.49968768  0.07066288  1  -0.017418  0  -0.011137  0.063878  0  4.0124  0
C  C62  1  0.50025176  0.50018932  0.92616756  1  -0.019615  0  -0.011148  0.063556  0  4.013809  0
C  C63  1  0.56295677  0.29449794  0.53770699  1  0.498536  0  0.061096  0.107884  0  3.919593  0
C  C64  1  0.43408315  0.70477900  0.46284632  1  0.45381  0  0.060974  0.104439  0  3.923383  0
C  C65  1  0.56560432  0.21943155  0.53955963  1  0.00689  0  -0.079612  -0.176988  0  3.934876  0
C  C66  1  0.89671404  0.41155254  0.55357239  1  -0.076317  0  -0.091203  -0.180575  0  3.987994  0
C  C67  1  0.43125885  0.77979359  0.46265489  1  -0.013052  0  -0.078001  -0.176598  0  3.942479  0
C  C68  1  0.50293558  0.15853702  0.49926765  1  -0.048079  0  0.014902  0.112939  0  3.994702  0
C  C69  1  0.49577354  0.84053568  0.50199849  1  -0.000634  0  0.015517  0.112475  0  3.994976  0
C  C70  1  0.44046290  0.17740526  0.45836993  1  -0.052813  0  -0.082234  -0.184429  0  3.959512  0
C  C71  1  0.55951440  0.82131747  0.54108836  1  -0.037633  0  -0.081111  -0.181693  0  3.954992  0
C  C72  1  0.44227665  0.25388839  0.45934320  1  0.50761  0  0.0613  0.108407  0  3.926609  0
C  C73  1  0.55799600  0.74496268  0.53849947  1  0.481244  0  0.06005  0.106175  0  3.922723  0
C  C74  1  0.48460485  0.03226598  0.44005311  1  -0.009571  0  -0.08311  -0.120265  0  3.982047  0
C  C75  1  0.51522271  0.96705577  0.56145192  1  -0.004126  0  -0.082677  -0.120706  0  3.986137  0
C  C76  1  0.48245017  0.95556867  0.44083425  1  -0.056021  0  -0.08208  -0.118256  0  3.983264  0
C  C77  1  0.10996024  0.59638411  0.53346709  1  -0.062652  0  -0.090562  -0.180568  0  3.982589  0
C  C78  1  0.51722502  0.04373758  0.56075884  1  -0.043191  0  -0.080098  -0.115387  0  3.980766  0
C  C79  1  0.49770107  0.92172340  0.50158093  1  -0.034659  0  -0.002929  0.061165  0  4.004421  0
C  C80  1  0.50184678  0.07757514  0.50002855  1  -0.03208  0  -0.00402  0.058404  0  4.001753  0
C  C81  1  0.21765899  0.41238991  0.51892730  1  -0.06852  0  -0.019305  -0.025626  0  3.982703  0
C  C82  1  0.78408237  0.59001902  0.51729897  1  -0.035886  0  -0.019528  -0.02665  0  3.984627  0
C  C83  1  0.06596139  0.31296482  0.54416369  1  -0.101731  0  -0.097036  -0.139918  0  4.010629  0
C  C84  1  0.93841999  0.69265211  0.52272127  1  -0.063328  0  -0.096948  -0.140345  0  4.012985  0
C  C85  1  0.15885965  0.33254825  0.53110256  1  0.004889  0  -0.087926  -0.095137  0  4.002248  0
C  C86  1  0.84376501  0.67105280  0.51713884  1  -0.035445  0  -0.088761  -0.095122  0  4.004579  0
C  C87  1  0.18197012  0.47070413  0.52214149  1  0.062548  0  -0.08312  -0.132414  0  3.944062  0
C  C88  1  0.93044804  0.35247703  0.55667094  1  0.010279  0  -0.00853  0.016716  0  4.004168  0
C  C89  1  0.82086520  0.53294352  0.52645364  1  -0.058628  0  -0.083103  -0.133007  0  3.943745  0
C  C90  1  0.08774803  0.45291143  0.53535255  1  -0.065123  0  -0.004114  0.035817  0  3.967516  0
C  C91  1  0.91688806  0.55291654  0.53330562  1  -0.00716  0  -0.004926  0.035926  0  3.963609  0
C  C92  1  0.02745319  0.37153380  0.54520513  1  -0.031744  0  -0.004547  0.037917  0  3.972341  0
C  C93  1  0.97772369  0.63487450  0.52873338  1  -0.037148  0  -0.005068  0.037544  0  3.968954  0
C  C94  1  0.05122456  0.51435041  0.53691361  1  -0.020741  0  -0.006342  0.035483  0  3.993695  0
C  C95  1  0.95444303  0.49258911  0.54138369  1  0.058855  0  -0.005151  0.03582  0  3.992755  0
C  C96  1  0.86596742  0.26996086  0.57261478  1  0.07255  0  -0.004854  0.080018  0  4.003261  0
C  C97  1  0.82710248  0.25143903  0.63775888  1  -0.094971  0  -0.092414  -0.13767  0  3.980777  0
C  C98  1  0.76788047  0.17391125  0.65414148  1  -0.141919  0  -0.099906  -0.094494  0  4.060543  0
C  C99  1  0.07626305  0.65551774  0.53042355  1  -0.026731  0  -0.00805  0.018638  0  4.00032  0
C  C100  1  0.74599303  0.11404899  0.60520150  1  0.015397  0  -0.102725  -0.100914  0  4.062013  0
C  C101  1  0.78260406  0.13207082  0.53971541  1  -0.036918  0  -0.097908  -0.08715  0  4.046556  0
C  C102  1  0.84255217  0.20937036  0.52366459  1  -0.067475  0  -0.089688  -0.136104  0  3.982561  0
C  C103  1  0.14280531  0.73965480  0.52834457  1  -0.003715  0  -0.007045  0.076213  0  4.005866  0
C  C104  1  0.20120743  0.77259553  0.58429885  1  -0.002155  0  -0.092378  -0.135445  0  3.977586  0
C  C105  1  0.26396767  0.85162063  0.58330220  1  -0.145298  0  -0.09834  -0.084459  0  4.047176  0
C  C106  1  0.26972829  0.89878539  0.52615820  1  0.021181  0  -0.10299  -0.097314  0  4.048722  0
C  C107  1  0.21291337  0.86627710  0.46973232  1  -0.137082  0  -0.101056  -0.093475  0  4.059014  0
C  C108  1  0.14969927  0.78742288  0.47084383  1  -0.123335  0  -0.092922  -0.139357  0  3.992344  0
C  C109  1  0.50297176  0.56708393  0.74345269  1  -0.015339  0  -0.087426  -0.088026  0  3.997904  0
C  C110  1  0.49549499  0.43200312  0.25333324  1  -0.034269  0  -0.087139  -0.08657  0  3.995989  0
C  C111  1  0.50363389  0.56734061  0.81423019  1  -0.049514  0  -0.095555  -0.14167  0  4.000834  0
N  N112  1  0.50234448  0.31142320  0.49844710  1  -1.247791  0  -0.31765  -0.195519  0  3.513904  0
N  N113  1  0.49675481  0.68782122  0.49967984  1  -1.234082  0  -0.317719  -0.195059  0  3.512809  0
O  O114  1  0.48900563  0.43443477  0.39543383  1  -1.165345  0  -0.321064  -0.554561  0  2.329195  0
O  O115  1  0.49832391  0.56104727  0.60149528  1  -1.168197  0  -0.321645  -0.554462  0  2.329437  0
O  O116  1  0.51213850  0.56497427  0.39478278  1  -1.172538  0  -0.321778  -0.550382  0  2.325631  0
O  O117  1  0.50042150  0.43763410  0.60244606  1  -1.172645  0  -0.3209  -0.551824  0  2.331201  0
O  O118  1  0.35183093  0.38313894  0.50467015  1  -1.161296  0  -0.320429  -0.547055  0  2.287316  0
O  O119  1  0.64775048  0.61693543  0.50703964  1  -1.161725  0  -0.319742  -0.548083  0  2.295893  0
O  O120  1  0.36437671  0.51029609  0.49243256  1  -1.178821  0  -0.323662  -0.56595  0  2.353166  0
O  O121  1  0.63594717  0.48959799  0.49873476  1  -1.170802  0  -0.321891  -0.561346  0  2.3461  0
