# generated using pymatgen
data_BaH3C7NO4
_symmetry_space_group_name_H-M   'P 1'
_cell_length_a   6.93776664
_cell_length_b   6.93774997
_cell_length_c   17.56032883
_cell_angle_alpha   87.59604697
_cell_angle_beta   87.59607431
_cell_angle_gamma   63.13341823
_symmetry_Int_Tables_number   1
_chemical_formula_structural   BaH3C7NO4
_chemical_formula_sum   'Ba4 H12 C28 N4 O16'
_cell_volume   753.07593748
_cell_formula_units_Z   4
loop_
 _symmetry_equiv_pos_site_id
 _symmetry_equiv_pos_as_xyz
  1  'x, y, z'
loop_
 _atom_site_type_symbol
 _atom_site_label
 _atom_site_symmetry_multiplicity
 _atom_site_fract_x
 _atom_site_fract_y
 _atom_site_fract_z
 _atom_site_occupancy
 _atom_site_hle17_bader_spin_density
 _atom_site_hle17_ddec_charge
 _atom_site_hle17_ddec_spin_density
 _atom_site_hle17_ddec_sum_bond_order
 _atom_site_hle17_magmom
 _atom_site_hse06_10hf_bader_spin_density
 _atom_site_hse06_10hf_ddec_charge
 _atom_site_hse06_10hf_ddec_spin_density
 _atom_site_hse06_10hf_ddec_sum_bond_order
 _atom_site_hse06_10hf_magmom
 _atom_site_hse06_bader_spin_density
 _atom_site_hse06_ddec_charge
 _atom_site_hse06_ddec_spin_density
 _atom_site_hse06_ddec_sum_bond_order
 _atom_site_hse06_magmom
 _atom_site_pbe_bader_spin_density
 _atom_site_pbe_cm5_charge
 _atom_site_pbe_ddec_charge
 _atom_site_pbe_ddec_spin_density
 _atom_site_pbe_ddec_sum_bond_order
 _atom_site_pbe_magmom
Ba  Ba0  1  0.67809970  0.98752200  0.69360027  1  0  1.615493  0  1.180262  0  0  1.458294  0  1.585283  0  0  1.502148  0  1.540994  0  0  0.977332  1.426329  0  1.616275  0
Ba  Ba1  1  0.01247735  0.32189681  0.80639848  1  0  1.615499  0  1.180251  0  0  1.4583  0  1.58527  0  0  1.502154  0  1.54098  0  0  0.977343  1.42631  0  1.616304  0
Ba  Ba2  1  0.32190044  0.01248050  0.30640028  1  0  1.615494  0  1.18026  0  0  1.4583  0  1.585261  0  0  1.502155  0  1.540973  0  0  0.977327  1.426316  0  1.616284  0
Ba  Ba3  1  0.98752498  0.67809759  0.19360046  1  0  1.615506  0  1.180269  0  0  1.458317  0  1.585268  0  0  1.502154  0  1.541014  0  0  0.977343  1.426377  0  1.616215  0
H  H4  1  0.78729355  0.60350899  0.47655707  1  0  0.110886  0  0.960959  0  0  0.116443  0  1.0325  0  0  0.120548  0  1.029289  0  0  0.112621  0.113363  0  1.03513  0
H  H5  1  0.39649583  0.21270101  0.02344317  1  0  0.110901  0  0.960949  0  0  0.116455  0  1.032496  0  0  0.120561  0  1.029286  0  0  0.112636  0.113376  0  1.035125  0
H  H6  1  0.21269501  0.39649996  0.52344186  1  0  0.110869  0  0.960988  0  0  0.116466  0  1.032484  0  0  0.120569  0  1.029276  0  0  0.112631  0.113385  0  1.035116  0
H  H7  1  0.60350722  0.78729826  0.97655852  1  0  0.1109  0  0.960934  0  0  0.116437  0  1.032492  0  0  0.120541  0  1.029284  0  0  0.112621  0.113359  0  1.03512  0
H  H8  1  0.76199154  0.09665420  0.35022882  1  0  0.121423  0  0.956093  0  0  0.13094  0  1.018289  0  0  0.135328  0  1.015238  0  0  0.133034  0.127759  0  1.020576  0
H  H9  1  0.90335162  0.23800260  0.14977031  1  0  0.121433  0  0.956008  0  0  0.130935  0  1.018239  0  0  0.135325  0  1.015182  0  0  0.133033  0.127753  0  1.020528  0
H  H10  1  0.23801443  0.90333862  0.64977350  1  0  0.121539  0  0.95599  0  0  0.131045  0  1.018181  0  0  0.135431  0  1.015136  0  0  0.133152  0.127872  0  1.020472  0
H  H11  1  0.09665720  0.76199017  0.85022741  1  0  0.121488  0  0.955932  0  0  0.130975  0  1.018159  0  0  0.135362  0  1.01511  0  0  0.13308  0.127794  0  1.020443  0
H  H12  1  0.71313540  0.93427106  0.47585542  1  0  0.068297  0  0.942563  0  0  0.078196  0  1.00799  0  0  0.081058  0  1.005228  0  0  0.122818  0.076015  0  1.010225  0
H  H13  1  0.06573169  0.28685934  0.02414254  1  0  0.068287  0  0.942558  0  0  0.078189  0  1.007979  0  0  0.081051  0  1.005216  0  0  0.122822  0.076008  0  1.010213  0
H  H14  1  0.28686189  0.06572822  0.52414751  1  0  0.068275  0  0.942592  0  0  0.078173  0  1.008013  0  0  0.081033  0  1.005253  0  0  0.122807  0.075993  0  1.010247  0
H  H15  1  0.93427710  0.71313667  0.97585455  1  0  0.068281  0  0.942697  0  0  0.078184  0  1.008111  0  0  0.081046  0  1.00535  0  0  0.122811  0.076004  0  1.010345  0
C  C16  1  0.76036869  0.34667180  0.54090843  1  0  0.086936  0  3.750355  0  0  0.094589  0  3.99594  0  0  0.093746  0  4.01572  0  0  0.114649  0.09488  0  3.982675  0
C  C17  1  0.65332630  0.23963191  0.95909147  1  0  0.086975  0  3.750288  0  0  0.094712  0  3.995776  0  0  0.093866  0  4.015554  0  0  0.114682  0.095003  0  3.98251  0
C  C18  1  0.23962999  0.65333393  0.45909208  1  0  0.086994  0  3.750159  0  0  0.09465  0  3.995743  0  0  0.093805  0  4.015523  0  0  0.114678  0.094943  0  3.982472  0
C  C19  1  0.34667166  0.76037220  0.04090852  1  0  0.087031  0  3.750268  0  0  0.094722  0  3.995787  0  0  0.093879  0  4.015563  0  0  0.114726  0.095014  0  3.982521  0
C  C20  1  0.77454660  0.45365838  0.47361336  1  0  -0.105643  0  3.683894  0  0  -0.140761  0  3.936449  0  0  -0.142908  0  3.955938  0  0  -0.063891  -0.139238  0  3.923529  0
C  C21  1  0.54634326  0.22544837  0.02638580  1  0  -0.1057  0  3.683858  0  0  -0.140856  0  3.936413  0  0  -0.143009  0  3.95591  0  0  -0.063951  -0.139332  0  3.923497  0
C  C22  1  0.22544561  0.54634249  0.52638679  1  0  -0.105656  0  3.683918  0  0  -0.140809  0  3.936493  0  0  -0.142959  0  3.955986  0  0  -0.063927  -0.139286  0  3.923572  0
C  C23  1  0.45365833  0.77455089  0.97361364  1  0  -0.105704  0  3.683911  0  0  -0.14079  0  3.936509  0  0  -0.142944  0  3.95601  0  0  -0.063942  -0.139267  0  3.923591  0
C  C24  1  0.77743619  0.36402767  0.40360530  1  0  -0.01532  0  3.713332  0  0  0.005799  0  3.948143  0  0  0.002704  0  3.966339  0  0  0.015555  0.007674  0  3.936059  0
C  C25  1  0.63597808  0.22255872  0.09639494  1  0  -0.015364  0  3.713448  0  0  0.005787  0  3.948236  0  0  0.002688  0  3.966423  0  0  0.015517  0.007654  0  3.93617  0
C  C26  1  0.22256036  0.63596997  0.59639427  1  0  -0.015345  0  3.713312  0  0  0.005769  0  3.948175  0  0  0.002671  0  3.966369  0  0  0.015546  0.007646  0  3.936089  0
C  C27  1  0.36403220  0.77743733  0.90360725  1  0  -0.015422  0  3.713267  0  0  0.00561  0  3.94824  0  0  0.002513  0  3.966435  0  0  0.015466  0.007481  0  3.936163  0
C  C28  1  0.75907710  0.17179789  0.40381658  1  0  -0.111598  0  3.676221  0  0  -0.13951  0  3.931395  0  0  -0.141341  0  3.947678  0  0  -0.053451  -0.138236  0  3.920522  0
C  C29  1  0.82820645  0.24091689  0.09618086  1  0  -0.111568  0  3.676231  0  0  -0.139479  0  3.931392  0  0  -0.141309  0  3.947671  0  0  -0.053407  -0.138206  0  3.920529  0
C  C30  1  0.24092163  0.82819814  0.59618468  1  0  -0.111762  0  3.676127  0  0  -0.139672  0  3.931347  0  0  -0.141502  0  3.947629  0  0  -0.053557  -0.138414  0  3.92049  0
C  C31  1  0.17180307  0.75908074  0.90381733  1  0  -0.111587  0  3.675951  0  0  -0.139433  0  3.931163  0  0  -0.141262  0  3.947445  0  0  -0.053432  -0.138157  0  3.92029  0
C  C32  1  0.73390557  0.08142957  0.47379245  1  0  0.136091  0  3.720543  0  0  0.107449  0  3.989214  0  0  0.11245  0  4.005064  0  0  0.061673  0.104122  0  3.978382  0
C  C33  1  0.91856975  0.26609146  0.02620617  1  0  0.136082  0  3.720571  0  0  0.107441  0  3.98925  0  0  0.112444  0  4.005095  0  0  0.061653  0.104115  0  3.978417  0
C  C34  1  0.26609385  0.91857131  0.52620757  1  0  0.136216  0  3.720489  0  0  0.107588  0  3.989149  0  0  0.11259  0  4.004997  0  0  0.061734  0.10426  0  3.97832  0
C  C35  1  0.08142968  0.73390618  0.97379333  1  0  0.136096  0  3.720642  0  0  0.107447  0  3.989304  0  0  0.112449  0  4.005148  0  0  0.061671  0.104119  0  3.978475  0
C  C36  1  0.77514851  0.43489768  0.61691891  1  0  0.657628  0  3.916349  0  0  0.607614  0  4.212205  0  0  0.641596  0  4.203354  0  0  0.228989  0.584589  0  4.217444  0
C  C37  1  0.56509732  0.22485222  0.88308047  1  0  0.657635  0  3.916333  0  0  0.60759  0  4.212203  0  0  0.641579  0  4.203342  0  0  0.22898  0.584563  0  4.217441  0
C  C38  1  0.22484511  0.56510966  0.38308110  1  0  0.657658  0  3.916102  0  0  0.607653  0  4.211956  0  0  0.64164  0  4.203097  0  0  0.228988  0.584628  0  4.217195  0
C  C39  1  0.43489848  0.77515351  0.11692010  1  0  0.657714  0  3.916114  0  0  0.607704  0  4.211954  0  0  0.641686  0  4.2031  0  0  0.229043  0.584678  0  4.217195  0
C  C40  1  0.80460119  0.47076933  0.33026216  1  0  0.682366  0  3.909134  0  0  0.633763  0  4.196315  0  0  0.668617  0  4.186355  0  0  0.227302  0.610039  0  4.202288  0
C  C41  1  0.52923697  0.19539076  0.16973641  1  0  0.682443  0  3.909047  0  0  0.633801  0  4.196269  0  0  0.668682  0  4.186276  0  0  0.227395  0.610078  0  4.202244  0
C  C42  1  0.19539465  0.52922344  0.66973637  1  0  0.682475  0  3.908935  0  0  0.633838  0  4.196174  0  0  0.668706  0  4.186199  0  0  0.227294  0.610116  0  4.202146  0
C  C43  1  0.47077836  0.80460366  0.83026458  1  0  0.682452  0  3.90886  0  0  0.633808  0  4.196165  0  0  0.66867  0  4.186198  0  0  0.227253  0.610088  0  4.202135  0
N  N44  1  0.73768122  0.16305394  0.54127291  1  0  -0.384324  0  3.171001  0  0  -0.33781  0  3.433945  0  0  -0.349643  0  3.452462  0  0  -0.344245  -0.329522  0  3.421276  0
N  N45  1  0.83694777  0.26231835  0.95872581  1  0  -0.384332  0  3.170958  0  0  -0.337844  0  3.43388  0  0  -0.349674  0  3.452393  0  0  -0.344248  -0.329552  0  3.42121  0
N  N46  1  0.26231675  0.83695018  0.45872878  1  0  -0.384427  0  3.17105  0  0  -0.337915  0  3.433993  0  0  -0.349746  0  3.452507  0  0  -0.344315  -0.329623  0  3.421321  0
N  N47  1  0.16305452  0.73768251  0.04127302  1  0  -0.384356  0  3.171061  0  0  -0.337852  0  3.433991  0  0  -0.349677  0  3.4525  0  0  -0.344252  -0.329566  0  3.421325  0
O  O48  1  0.81251412  0.30783375  0.67518382  1  0  -0.731109  0  1.99729  0  0  -0.664062  0  2.24471  0  0  -0.691545  0  2.234821  0  0  -0.400797  -0.644676  0  2.250951  0
O  O49  1  0.69215905  0.18748953  0.82481384  1  0  -0.731123  0  1.997249  0  0  -0.664066  0  2.244665  0  0  -0.691551  0  2.234773  0  0  -0.400799  -0.644681  0  2.250907  0
O  O50  1  0.18747949  0.69217359  0.32481561  1  0  -0.731152  0  1.997191  0  0  -0.664104  0  2.244595  0  0  -0.691582  0  2.234702  0  0  -0.400836  -0.644723  0  2.250836  0
O  O51  1  0.30782949  0.81252265  0.17518560  1  0  -0.731153  0  1.997163  0  0  -0.664115  0  2.244578  0  0  -0.691593  0  2.23469  0  0  -0.400823  -0.644732  0  2.250818  0
O  O52  1  0.75255736  0.62614086  0.61685667  1  0  -0.693577  0  1.9777  0  0  -0.637981  0  2.224025  0  0  -0.665293  0  2.217143  0  0  -0.364381  -0.618773  0  2.228246  0
O  O53  1  0.37385713  0.24744363  0.88314320  1  0  -0.693576  0  1.977746  0  0  -0.637988  0  2.224095  0  0  -0.665297  0  2.217204  0  0  -0.364368  -0.618778  0  2.228318  0
O  O54  1  0.24743769  0.37386648  0.38314274  1  0  -0.693589  0  1.977687  0  0  -0.637993  0  2.223991  0  0  -0.665296  0  2.217087  0  0  -0.364329  -0.618785  0  2.228214  0
O  O55  1  0.62613940  0.75256049  0.11685795  1  0  -0.693648  0  1.977679  0  0  -0.638051  0  2.22398  0  0  -0.665364  0  2.217111  0  0  -0.364412  -0.618849  0  2.228202  0
O  O56  1  0.72011502  0.67617487  0.32692588  1  0  -0.720935  0  1.958986  0  0  -0.658433  0  2.204715  0  0  -0.685939  0  2.194669  0  0  -0.389238  -0.638907  0  2.211023  0
O  O57  1  0.32382791  0.27987894  0.17307325  1  0  -0.720915  0  1.95888  0  0  -0.658392  0  2.204617  0  0  -0.6859  0  2.194549  0  0  -0.389217  -0.638867  0  2.210924  0
O  O58  1  0.27987431  0.32381951  0.67307159  1  0  -0.720943  0  1.959008  0  0  -0.65843  0  2.20478  0  0  -0.685925  0  2.194687  0  0  -0.389176  -0.638901  0  2.211088  0
O  O59  1  0.67618451  0.72012197  0.82692880  1  0  -0.72094  0  1.958949  0  0  -0.658405  0  2.204706  0  0  -0.685902  0  2.194627  0  0  -0.389127  -0.638875  0  2.211013  0
O  O60  1  0.91566581  0.34919771  0.27631978  1  0  -0.716598  0  1.973931  0  0  -0.654524  0  2.214789  0  0  -0.681532  0  2.204434  0  0  -0.37799  -0.635406  0  2.221363  0
O  O61  1  0.65081143  0.08432675  0.22368044  1  0  -0.71668  0  1.973905  0  0  -0.654595  0  2.214782  0  0  -0.681612  0  2.204414  0  0  -0.378076  -0.635477  0  2.221357  0
O  O62  1  0.08433293  0.65079508  0.72367983  1  0  -0.716659  0  1.973789  0  0  -0.654561  0  2.214656  0  0  -0.681576  0  2.204295  0  0  -0.378011  -0.635441  0  2.221233  0
O  O63  1  0.34920751  0.91566606  0.77631993  1  0  -0.716659  0  1.973814  0  0  -0.654551  0  2.214692  0  0  -0.681564  0  2.204334  0  0  -0.37801  -0.635431  0  2.221269  0
