# generated using pymatgen
data_NiH32C21(N3O2)2
_symmetry_space_group_name_H-M   'P 1'
_cell_length_a   9.27805994
_cell_length_b   16.16861813
_cell_length_c   16.29269062
_cell_angle_alpha   90.51411745
_cell_angle_beta   106.54515521
_cell_angle_gamma   89.98408947
_symmetry_Int_Tables_number   1
_chemical_formula_structural   NiH32C21(N3O2)2
_chemical_formula_sum   'Ni4 H128 C84 N24 O16'
_cell_volume   2342.82371370
_cell_formula_units_Z   4
loop_
 _symmetry_equiv_pos_site_id
 _symmetry_equiv_pos_as_xyz
  1  'x, y, z'
loop_
 _atom_site_type_symbol
 _atom_site_label
 _atom_site_symmetry_multiplicity
 _atom_site_fract_x
 _atom_site_fract_y
 _atom_site_fract_z
 _atom_site_occupancy
 _atom_site_pbe_bader_charge
 _atom_site_pbe_bader_spin_density
 _atom_site_pbe_cm5_charge
 _atom_site_pbe_ddec_charge
 _atom_site_pbe_ddec_spin_density
 _atom_site_pbe_ddec_sum_bond_order
 _atom_site_pbe_magmom
Ni  Ni0  1  0.24700607  0.22726165  0.27655405  1  1.043549  -1.490686  0.648314  0.594571  -1.760693  2.490942  -1.477
Ni  Ni1  1  0.97048955  0.27265559  0.72348741  1  1.045166  1.490585  0.648559  0.594496  1.759938  2.491938  1.477
Ni  Ni2  1  0.75299345  0.77273630  0.72344309  1  1.043501  1.490674  0.648283  0.594656  1.760679  2.490789  1.477
Ni  Ni3  1  0.02951120  0.72734602  0.27651544  1  1.045104  -1.490574  0.648566  0.594493  -1.759926  2.491934  -1.477
H  H4  1  0.57822378  0.24243898  0.17954194  1  0.042494  -0.004459  0.097585  0.073257  -0.002119  0.995847  -0.002
H  H5  1  0.39870583  0.25758718  0.82050647  1  0.054196  0.004429  0.097129  0.072173  0.00212  0.99599  0.002
H  H6  1  0.42177638  0.75756144  0.82045585  1  0.042514  0.004459  0.097597  0.073252  0.002119  0.995871  0.002
H  H7  1  0.60129459  0.74241318  0.17949715  1  0.05421  -0.004428  0.097148  0.0722  -0.00212  0.995991  -0.002
H  H8  1  0.52373860  0.32062990  0.24260627  1  0.033924  -0.00041  0.106345  0.086845  -7.4e-05  0.986187  0.0
H  H9  1  0.28120023  0.17941655  0.75740522  1  0.070972  0.000413  0.106277  0.086536  7.6e-05  0.986294  0.0
H  H10  1  0.47626121  0.67936926  0.75739451  1  0.033903  0.00041  0.10633  0.086842  7.4e-05  0.98616  0.0
H  H11  1  0.71880332  0.82058383  0.24259705  1  0.070896  -0.000413  0.106251  0.086485  -7.6e-05  0.986324  0.0
H  H12  1  0.31095260  0.21977354  0.09837252  1  0.059535  -0.00024  0.106926  0.054294  2.4e-05  0.990617  0.0
H  H13  1  0.21247582  0.28020942  0.90164713  1  0.05453  0.000242  0.107082  0.053886  -2.5e-05  0.991116  0.0
H  H14  1  0.68904761  0.78022999  0.90162313  1  0.059229  0.00024  0.106909  0.054256  -2.4e-05  0.99052  0.0
H  H15  1  0.78752864  0.71978971  0.09835714  1  0.054516  -0.000242  0.10708  0.053882  2.5e-05  0.991116  0.0
H  H16  1  0.27674779  0.35482676  0.01899440  1  0.039451  9.4e-05  0.08702  0.119865  4.5e-05  1.050468  0.0
H  H17  1  0.25798977  0.14518307  0.98103066  1  0.032666  -9.6e-05  0.086849  0.119141  -4.6e-05  1.050754  0.0
H  H18  1  0.72326114  0.64518042  0.98100768  1  0.039251  -9.4e-05  0.087028  0.119872  -4.5e-05  1.050501  0.0
H  H19  1  0.74201065  0.85481729  0.01897296  1  0.032623  9.6e-05  0.086849  0.119152  4.6e-05  1.050761  0.0
H  H20  1  0.46711539  0.32278700  0.04665245  1  0.008627  -0.001636  0.092351  0.128852  -0.000691  0.993982  -0.001
H  H21  1  0.42062687  0.17726147  0.95335899  1  0.015746  0.001643  0.091775  0.127927  0.000695  0.994583  0.001
H  H22  1  0.53289288  0.67721770  0.95335118  1  0.008655  0.001636  0.092352  0.12887  0.000691  0.993972  0.001
H  H23  1  0.57937479  0.82273766  0.04664363  1  0.015654  -0.001643  0.091766  0.127913  -0.000695  0.994597  -0.001
H  H24  1  0.40980542  0.40221436  0.10710214  1  0.030877  5e-06  0.095704  0.139763  3.8e-05  0.986181  0.0
H  H25  1  0.30298493  0.09781160  0.89291403  1  0.053084  -1e-05  0.095601  0.139799  -3.8e-05  0.98552  0.0
H  H26  1  0.59020187  0.59778846  0.89290385  1  0.030409  -5e-06  0.095728  0.139781  -3.8e-05  0.986153  0.0
H  H27  1  0.69701671  0.90218629  0.10709077  1  0.052816  1e-05  0.095576  0.139767  3.8e-05  0.98553  0.0
H  H28  1  0.05885091  0.36006939  0.07042726  1  0.066911  -0.006004  0.103776  0.059231  -0.002815  1.030775  -0.004
H  H29  1  0.98867701  0.13983670  0.92961747  1  0.063  0.006018  0.103647  0.059331  0.002817  1.03042  0.004
H  H30  1  0.94115017  0.63993163  0.92957257  1  0.066939  0.006004  0.103763  0.059212  0.002815  1.030784  0.004
H  H31  1  0.01132094  0.86016676  0.07038597  1  0.063017  -0.006018  0.10365  0.059307  -0.002817  1.030332  -0.004
H  H32  1  0.04979931  0.24982178  0.07276952  1  0.062844  -0.000382  0.116867  0.074567  -5.1e-05  0.989919  0.0
H  H33  1  0.97706649  0.25007897  0.92722685  1  0.063759  0.000381  0.116645  0.07475  5.2e-05  0.989964  0.0
H  H34  1  0.95020147  0.75017863  0.92722889  1  0.062779  0.000382  0.116876  0.074588  5.1e-05  0.989877  0.0
H  H35  1  0.02293490  0.74992450  0.07277665  1  0.06387  -0.000381  0.116636  0.074705  -5.2e-05  0.989938  0.0
H  H36  1  0.94954544  0.18133251  0.16578126  1  0.118441  -0.000636  0.120766  0.093524  -0.000158  1.047478  -0.001
H  H37  1  0.78385021  0.31851876  0.83424695  1  0.112724  0.000638  0.120589  0.09283  0.000158  1.048959  0.001
H  H38  1  0.05045875  0.81866605  0.83421717  1  0.118613  0.000636  0.120741  0.093438  0.000158  1.047566  0.001
H  H39  1  0.21615306  0.68148532  0.16575619  1  0.112856  -0.000638  0.120617  0.092801  -0.000158  1.048966  -0.001
H  H40  1  0.80509285  0.23611004  0.19883209  1  0.026113  -0.004684  0.098959  0.053053  -0.002184  1.00023  -0.002
H  H41  1  0.60636129  0.26377390  0.80118889  1  0.031403  0.004658  0.098686  0.052209  0.002182  1.001929  0.002
H  H42  1  0.19490885  0.76388790  0.80116609  1  0.026064  0.004684  0.09895  0.052994  0.002184  1.000266  0.002
H  H43  1  0.39363948  0.73623202  0.19881625  1  0.03143  -0.004658  0.098704  0.052254  -0.002182  1.001924  -0.002
H  H44  1  0.86568757  0.41647067  0.20646982  1  0.064843  -6.4e-05  0.099235  0.089639  -5.3e-05  0.990793  0.0
H  H45  1  0.65949869  0.08338037  0.79351202  1  0.064648  6.6e-05  0.098984  0.089464  5.4e-05  0.992061  0.0
H  H46  1  0.13431568  0.58352911  0.79353102  1  0.064814  6.4e-05  0.099229  0.089647  5.3e-05  0.99079  0.0
H  H47  1  0.34049770  0.91662431  0.20649322  1  0.064849  -6.6e-05  0.098995  0.089471  -5.4e-05  0.992096  0.0
H  H48  1  0.06223478  0.41810796  0.22076223  1  0.042493  8.2e-05  0.108133  0.095161  7.3e-05  1.004059  0.0
H  H49  1  0.84174082  0.08177275  0.77918505  1  0.052266  -8.1e-05  0.108112  0.094819  -7.3e-05  1.004425  0.0
H  H50  1  0.93776846  0.58189058  0.77923859  1  0.042501  -8.2e-05  0.108148  0.09519  -7.3e-05  1.004017  0.0
H  H51  1  0.15825648  0.91822946  0.22081997  1  0.052008  8.2e-05  0.108127  0.094858  7.3e-05  1.004317  0.0
H  H52  1  0.08392577  0.35752343  0.35803151  1  0.068545  -0.001077  0.10478  0.095695  -0.000342  1.011712  -0.001
H  H53  1  0.72582478  0.14236051  0.64191421  1  0.077059  0.001076  0.104763  0.095904  0.000342  1.010635  0.001
H  H54  1  0.91607373  0.64247450  0.64196784  1  0.06852  0.001078  0.104776  0.095705  0.000342  1.011713  0.001
H  H55  1  0.27417190  0.85764171  0.35809020  1  0.07691  -0.001076  0.104803  0.095877  -0.000341  1.010658  -0.001
H  H56  1  0.88759991  0.33213481  0.32639504  1  0.006829  -0.004799  0.088563  0.054153  -0.002207  1.003998  -0.002
H  H57  1  0.56127837  0.16779688  0.67369520  1  0.019185  0.004794  0.088871  0.054513  0.002211  1.003853  0.002
H  H58  1  0.11240146  0.66786313  0.67360394  1  0.0068  0.004799  0.088544  0.05413  0.002207  1.004031  0.002
H  H59  1  0.43872021  0.83220719  0.32630887  1  0.019199  -0.004793  0.088873  0.054504  -0.00221  1.003893  -0.002
H  H60  1  0.98928670  0.12300281  0.31334586  1  0.105137  8e-05  0.11619  0.110257  0.000128  0.97375  0.0
H  H61  1  0.67603434  0.37689660  0.68675427  1  0.087839  -8.4e-05  0.116282  0.110204  -0.000128  0.974549  0.0
H  H62  1  0.01070970  0.87699453  0.68665041  1  0.105294  -8e-05  0.116233  0.110317  -0.000128  0.973716  0.0
H  H63  1  0.32396704  0.62310624  0.31324921  1  0.087944  8.4e-05  0.11629  0.110194  0.000128  0.974603  0.0
H  H64  1  0.91146820  0.19637907  0.37091371  1  0.03427  -0.00323  0.095893  0.067742  -0.001541  1.016371  -0.001
H  H65  1  0.54058728  0.30360455  0.62915039  1  0.04712  0.003213  0.095857  0.067928  0.00154  1.016748  0.001
H  H66  1  0.08853038  0.80361826  0.62908360  1  0.034241  0.003231  0.095869  0.067753  0.001542  1.016366  0.001
H  H67  1  0.45941349  0.69639891  0.37085250  1  0.047097  -0.003213  0.095845  0.067941  -0.00154  1.016765  -0.001
H  H68  1  0.17553130  0.24093560  0.45215340  1  0.069737  7.8e-05  0.110588  0.094909  0.000114  0.986248  0.0
H  H69  1  0.72352942  0.25904808  0.54787736  1  0.04874  -8.2e-05  0.110598  0.095366  -0.000114  0.986529  0.0
H  H70  1  0.82446442  0.75905985  0.54784664  1  0.069635  -7.8e-05  0.110605  0.094973  -0.000114  0.986384  0.0
H  H71  1  0.27647101  0.74095352  0.45212628  1  0.081283  7.7e-05  0.110612  0.09539  0.000114  0.986471  0.0
H  H72  1  0.13706902  0.13549230  0.47014742  1  0.03474  -0.002452  0.097123  0.077181  -0.001145  1.021087  -0.001
H  H73  1  0.66688616  0.36448632  0.52991980  1  0.05473  0.00244  0.097075  0.077327  0.001144  1.021449  0.001
H  H74  1  0.86292796  0.86450133  0.52984939  1  0.035049  0.002451  0.097117  0.077186  0.001145  1.021064  0.001
H  H75  1  0.33311397  0.63551529  0.47008244  1  0.054695  -0.00244  0.097059  0.077348  -0.001144  1.021396  -0.001
H  H76  1  0.22200911  0.04522759  0.31859966  1  0.120857  -0.001274  0.109056  0.104945  -0.00044  1.01144  -0.001
H  H77  1  0.90307734  0.45477044  0.68154060  1  0.101243  0.001284  0.10919  0.10528  0.000441  1.011034  0.001
H  H78  1  0.77799261  0.95477098  0.68139632  1  0.120392  0.001275  0.109081  0.104942  0.00044  1.011395  0.001
H  H79  1  0.09692842  0.54523181  0.31846053  1  0.101398  -0.001284  0.109171  0.105277  -0.000441  1.01099  -0.001
H  H80  1  0.27862590  0.03324135  0.43247400  1  0.048542  -0.003807  0.090722  0.064844  -0.00177  1.025033  -0.002
H  H81  1  0.84590757  0.46677460  0.56767312  1  0.01339  0.003847  0.091103  0.06549  0.001771  1.024519  0.002
H  H82  1  0.72137144  0.96675661  0.56752210  1  0.048462  0.003808  0.090696  0.064812  0.00177  1.025002  0.002
H  H83  1  0.15409632  0.53322764  0.43232839  1  0.013373  -0.003847  0.091083  0.065468  -0.001771  1.024526  -0.002
H  H84  1  0.44280327  0.24726867  0.45339982  1  0.083703  -0.000646  0.119504  0.093798  -0.000153  1.029393  -0.001
H  H85  1  0.98975896  0.25282869  0.54678192  1  0.085205  0.000647  0.119382  0.0941  0.000154  1.029337  0.001
H  H86  1  0.55719282  0.75273051  0.54659728  1  0.083733  0.000646  0.119468  0.093743  0.000153  1.029485  0.001
H  H87  1  0.01023990  0.74717106  0.45322127  1  0.085195  -0.000647  0.119392  0.094136  -0.000154  1.029312  -0.001
H  H88  1  0.44282791  0.15334939  0.51316656  1  0.01958  -0.004667  0.099218  0.051687  -0.002135  0.988473  -0.002
H  H89  1  0.92974996  0.34669945  0.48695853  1  0.022374  0.004654  0.099222  0.051861  0.002135  0.988989  0.002
H  H90  1  0.55717130  0.84665040  0.48683141  1  0.019534  0.004667  0.09921  0.051722  0.002135  0.988443  0.002
H  H91  1  0.07025141  0.65329970  0.51304268  1  0.022329  -0.004654  0.099199  0.051845  -0.002135  0.989017  -0.002
H  H92  1  0.52355933  0.01051716  0.42508760  1  0.04149  0.000223  0.092912  0.068199  0.000118  1.000261  0.0
H  H93  1  0.09817846  0.48965811  0.57517359  1  0.032024  -0.000223  0.093029  0.068434  -0.000119  1.001095  0.0
H  H94  1  0.47644174  0.98948200  0.57491219  1  0.041489  -0.000223  0.092916  0.068155  -0.000118  1.000288  0.0
H  H95  1  0.90182697  0.51033982  0.42482605  1  0.031993  0.000223  0.093083  0.068509  0.000119  1.001177  0.0
H  H96  1  0.48010412  0.04391502  0.31705517  1  0.077425  -3e-05  0.111261  0.098824  -5e-06  0.992503  0.0
H  H97  1  0.16275638  0.45619316  0.68318677  1  0.10352  2.6e-05  0.111351  0.098638  4e-06  0.993367  0.0
H  H98  1  0.51989882  0.95608353  0.68294425  1  0.077462  3e-05  0.111279  0.098805  5e-06  0.99251  0.0
H  H99  1  0.83724875  0.54380662  0.31681371  1  0.103339  -2.6e-05  0.111357  0.098655  -4e-06  0.993412  0.0
H  H100  1  0.67585439  0.15983232  0.33273336  1  0.063861  -0.00662  0.105103  0.057391  -0.003124  0.996903  -0.004
H  H101  1  0.34315051  0.34037791  0.66752929  1  0.035621  0.006727  0.105114  0.057651  0.00313  0.996051  0.004
H  H102  1  0.32414449  0.84016561  0.66726537  1  0.063895  0.006621  0.105113  0.057438  0.003124  0.996859  0.004
H  H103  1  0.65685052  0.65962000  0.33247270  1  0.035741  -0.006727  0.105129  0.057626  -0.00313  0.996104  -0.004
H  H104  1  0.61267541  0.25143328  0.37345806  1  0.029743  -0.000633  0.114517  0.070085  -0.000183  0.985591  0.0
H  H105  1  0.23948333  0.24876246  0.62666365  1  0.036361  0.000626  0.114066  0.069602  0.000184  0.985495  0.0
H  H106  1  0.38732411  0.74856529  0.62653908  1  0.029747  0.000633  0.114517  0.07004  0.000183  0.985648  0.0
H  H107  1  0.76051550  0.75123482  0.37333948  1  0.03641  -0.000626  0.1141  0.069603  -0.000184  0.985459  0.0
H  H108  1  0.90784661  0.06633764  0.11343746  1  0.068508  -6e-06  0.104463  0.11021  -3.3e-05  1.0107  0.0
H  H109  1  0.79412745  0.43360006  0.88676005  1  0.081603  6e-06  0.104506  0.110082  3.3e-05  1.010881  0.0
H  H110  1  0.09215841  0.93366601  0.88654400  1  0.08198  8e-06  0.104461  0.110276  3.3e-05  1.010716  0.0
H  H111  1  0.20587019  0.56640034  0.11323971  1  0.081598  -6e-06  0.1045  0.110071  -3.3e-05  1.010879  0.0
H  H112  1  0.27477081  0.99348331  0.01768627  1  0.081644  -1.3e-05  0.106776  0.111856  4e-06  0.996844  0.0
H  H113  1  0.25684686  0.50640294  0.98201736  1  0.099824  1.3e-05  0.107054  0.112302  -4e-06  0.997491  0.0
H  H114  1  0.72523543  0.00651724  0.98229636  1  0.081269  1.3e-05  0.106852  0.111956  -4e-06  0.996719  0.0
H  H115  1  0.74315510  0.49359373  0.01798441  1  0.099833  -1.3e-05  0.107045  0.112272  4e-06  0.997507  0.0
H  H116  1  0.57032399  0.52469184  0.36597734  1  0.080693  -0.000228  0.101718  0.10213  -0.000112  1.017444  0.0
H  H117  1  0.20434108  0.97503188  0.63396104  1  0.076694  0.000228  0.101534  0.101844  0.000112  1.016834  0.0
H  H118  1  0.42966458  0.47530487  0.63402121  1  0.080111  0.000228  0.101711  0.102054  0.000112  1.017442  0.0
H  H119  1  0.79565340  0.02496971  0.36604452  1  0.076872  -0.000228  0.101492  0.101866  -0.000112  1.016879  0.0
H  H120  1  0.30877271  0.39248854  0.50167362  1  0.08816  4.9e-05  0.09528  0.087517  -0.0  1.065671  0.0
H  H121  1  0.80741349  0.10772457  0.49849914  1  0.082125  -5.1e-05  0.095209  0.087299  -1e-06  1.06633  0.0
H  H122  1  0.69121834  0.60750876  0.49832738  1  0.088216  -4.9e-05  0.095254  0.087497  0.0  1.065755  0.0
H  H123  1  0.19258193  0.89227640  0.50150622  1  0.082189  5.1e-05  0.095179  0.087264  1e-06  1.066271  0.0
H  H124  1  0.43494428  0.14440767  0.23134901  1  0.494189  0.000429  0.284415  0.243837  -0.000108  1.024937  0.001
H  H125  1  0.20338443  0.35562460  0.76876970  1  0.488295  -0.000423  0.284744  0.244346  0.000108  1.024283  -0.001
H  H126  1  0.56506023  0.85559027  0.76864861  1  0.49425  -0.00043  0.284451  0.243916  0.000107  1.024895  -0.001
H  H127  1  0.79661819  0.64437577  0.23123276  1  0.488238  0.000423  0.284715  0.244279  -0.000108  1.024392  0.001
H  H128  1  0.25419921  0.35925029  0.20132444  1  0.470175  0.000288  0.28501  0.24428  -0.000236  1.024361  0.0
H  H129  1  0.05317592  0.14065310  0.79873974  1  0.495958  -0.000286  0.285692  0.245529  0.000233  1.022354  0.0
H  H130  1  0.74579967  0.64075011  0.79867655  1  0.470191  -0.000288  0.285028  0.244296  0.000236  1.02436  0.0
H  H131  1  0.94682139  0.85934789  0.20126305  1  0.495927  0.000286  0.285724  0.245553  -0.000233  1.022246  0.0
C  C132  1  0.48772705  0.26246515  0.20691144  1  0.275476  -0.000901  -0.067854  -0.077762  -0.000935  3.876052  0.001
C  C133  1  0.28086130  0.23756533  0.79313739  1  0.243242  0.00091  -0.067134  -0.075696  0.000933  3.875238  -0.001
C  C134  1  0.51227340  0.73753402  0.79308775  1  0.275473  0.000901  -0.067855  -0.077764  0.000935  3.876038  -0.001
C  C135  1  0.71913881  0.76243443  0.20686482  1  0.243293  -0.00091  -0.067113  -0.075662  -0.000933  3.875083  0.001
C  C136  1  0.34492959  0.27844484  0.13330471  1  0.279548  -0.000725  0.001  0.16802  -0.000765  3.826835  0.001
C  C137  1  0.21167135  0.22154154  0.86672676  1  0.276313  0.000739  0.000936  0.167673  0.000758  3.827311  -0.001
C  C138  1  0.65507182  0.72155680  0.86669433  1  0.279665  0.000725  0.000986  0.168177  0.000765  3.826539  -0.001
C  C139  1  0.78833125  0.77845699  0.13327566  1  0.27633  -0.000739  0.000933  0.167706  -0.000758  3.827138  0.001
C  C140  1  0.37614906  0.34322510  0.07295578  1  -0.046563  -0.003735  -0.244758  -0.422951  -0.002504  3.910572  -0.003
C  C141  1  0.30340630  0.15678915  0.92707693  1  -0.056364  0.003719  -0.243865  -0.421247  0.002505  3.909097  0.003
C  C142  1  0.62385704  0.65677960  0.92704681  1  -0.045767  0.003735  -0.244776  -0.423034  0.002504  3.910489  0.003
C  C143  1  0.69659475  0.84321061  0.07292509  1  -0.055847  -0.00372  -0.243838  -0.421219  -0.002505  3.909103  -0.003
C  C144  1  0.06899066  0.30621685  0.11255513  1  0.579366  -0.000488  0.021938  0.060526  -0.000894  3.909275  0.002
C  C145  1  0.95658246  0.19366772  0.88746360  1  0.60958  0.000478  0.021897  0.059728  0.000897  3.911558  -0.002
C  C146  1  0.93101074  0.69378356  0.88744389  1  0.579452  0.000488  0.021955  0.060587  0.000893  3.909216  -0.002
C  C147  1  0.04341736  0.80633512  0.11253946  1  0.609585  -0.000478  0.021922  0.059829  -0.000897  3.911166  0.002
C  C148  1  0.92308506  0.23747870  0.19618865  1  0.566277  0.000883  0.017511  0.002061  0.000201  3.907764  0.002
C  C149  1  0.72697964  0.26238680  0.80382595  1  0.567308  -0.000863  0.017791  0.003875  -0.000204  3.910957  -0.002
C  C150  1  0.07691820  0.76251986  0.80380997  1  0.566264  -0.000883  0.017558  0.002244  -0.000201  3.907684  -0.002
C  C151  1  0.27302207  0.73761729  0.19617676  1  0.566702  0.000864  0.017709  0.003741  0.000203  3.911069  0.002
C  C152  1  0.96688649  0.37774091  0.22003608  1  0.277006  -3.8e-05  -0.069595  -0.08228  6.3e-05  3.83143  0.0
C  C153  1  0.74707515  0.12212588  0.77995118  1  0.267583  3.4e-05  -0.068859  -0.081299  -6.3e-05  3.832925  0.0
C  C154  1  0.03311552  0.62225764  0.77996352  1  0.276985  3.8e-05  -0.069609  -0.082315  -6.3e-05  3.831448  0.0
C  C155  1  0.25292184  0.87787818  0.22005467  1  0.267385  -3.5e-05  -0.068807  -0.081204  6.3e-05  3.832736  0.0
C  C156  1  0.99192448  0.33188005  0.30618984  1  0.235792  0.000509  -0.072748  -0.087849  -0.000123  3.85045  0.002
C  C157  1  0.68580637  0.16802108  0.69380991  1  0.210148  -0.000485  -0.07304  -0.088364  0.000126  3.849283  -0.002
C  C158  1  0.00807658  0.66811787  0.69380993  1  0.235787  -0.000508  -0.072749  -0.087887  0.000123  3.850462  -0.002
C  C159  1  0.31419127  0.83198299  0.30619434  1  0.210423  0.000485  -0.073079  -0.088368  -0.000126  3.849395  0.002
C  C160  1  0.00890501  0.18319782  0.34671457  1  0.239854  -0.000438  -0.067988  -0.091273  -0.000628  3.893457  0.001
C  C161  1  0.66223077  0.31672599  0.65333963  1  0.244638  0.000461  -0.06783  -0.091208  0.000632  3.894346  -0.001
C  C162  1  0.99109419  0.81679950  0.65328335  1  0.239796  0.000438  -0.067999  -0.091336  0.000627  3.893459  -0.001
C  C163  1  0.33776999  0.68327686  0.34666324  1  0.244636  -0.000461  -0.067812  -0.091198  -0.000632  3.894339  0.001
C  C164  1  0.15194325  0.17946054  0.42175290  1  0.277183  -0.000349  -0.068352  -0.08386  -0.000499  3.875249  0.001
C  C165  1  0.73023289  0.32051250  0.57830542  1  0.290235  0.000337  -0.069263  -0.085917  0.000499  3.879275  -0.001
C  C166  1  0.84805469  0.82053493  0.57824376  1  0.276915  0.000348  -0.068438  -0.08406  0.000499  3.875374  -0.001
C  C167  1  0.26976692  0.67948911  0.42169761  1  0.258334  -0.000333  -0.069283  -0.086  -0.000499  3.879357  0.001
C  C168  1  0.30032129  0.06698838  0.37860350  1  0.196893  0.000161  -0.072623  -0.092085  -0.000293  3.812605  0.001
C  C169  1  0.92151080  0.43304386  0.62154770  1  0.246888  -0.000189  -0.073443  -0.093508  0.000299  3.811698  -0.001
C  C170  1  0.69967729  0.93300956  0.62139382  1  0.19747  -0.000161  -0.072683  -0.09215  0.000294  3.812453  -0.001
C  C171  1  0.07849309  0.56695776  0.37845379  1  0.246826  0.000189  -0.073338  -0.093364  -0.000299  3.811765  0.001
C  C172  1  0.43061871  0.17992552  0.44895446  1  0.591653  0.001205  0.016888  0.000254  0.000399  3.912936  0.002
C  C173  1  0.98177283  0.32016205  0.55118819  1  0.597977  -0.001211  0.017348  9.8e-05  -0.000405  3.912527  -0.002
C  C174  1  0.56937800  0.82007366  0.55104326  1  0.591592  -0.001206  0.016972  0.000238  -0.000399  3.912974  -0.002
C  C175  1  0.01822634  0.67983709  0.44881419  1  0.598161  0.001212  0.017379  5.6e-05  0.000405  3.912616  0.002
C  C176  1  0.46790890  0.05925435  0.38047395  1  0.211832  -2.5e-05  -0.065824  -0.07252  6.4e-05  3.833286  0.0
C  C177  1  0.08725247  0.44085925  0.61973912  1  0.202589  2.4e-05  -0.065968  -0.072727  -5.9e-05  3.836147  0.0
C  C178  1  0.53209154  0.94074420  0.61952522  1  0.211351  2.5e-05  -0.06586  -0.07245  -6.4e-05  3.833302  0.0
C  C179  1  0.91275015  0.55913991  0.38026110  1  0.202206  -2.4e-05  -0.066065  -0.072916  5.9e-05  3.836354  0.0
C  C180  1  0.57770445  0.18970650  0.34602818  1  0.614182  -0.00074  0.025294  0.059466  -0.001067  3.933521  0.002
C  C181  1  0.23175046  0.31046266  0.65413046  1  0.623333  0.000692  0.026352  0.060788  0.001074  3.93154  -0.002
C  C182  1  0.42229414  0.81029207  0.65396915  1  0.614104  0.000741  0.025319  0.059445  0.001067  3.933664  -0.002
C  C183  1  0.76825026  0.68953586  0.34587233  1  0.623097  -0.000693  0.026322  0.060825  -0.001074  3.931447  0.002
C  C184  1  0.21421671  0.07625586  0.14823663  1  1.558536  -0.001446  0.201547  0.546848  -0.001934  4.235  -0.001
C  C185  1  0.06560709  0.42369109  0.85169485  1  1.554131  0.001421  0.201215  0.545845  0.001931  4.233409  0.001
C  C186  1  0.78579566  0.92373907  0.85175202  1  1.557988  0.001442  0.201703  0.547107  0.001933  4.234729  0.001
C  C187  1  0.93439493  0.57630993  0.14830479  1  1.554104  -0.00142  0.201157  0.545708  -0.00193  4.233523  -0.001
C  C188  1  0.10287533  0.03500711  0.07290933  1  -0.05735  -0.006706  -0.020249  -0.045562  -0.004096  3.979752  -0.005
C  C189  1  0.02973306  0.46493345  0.92705138  1  -0.020466  0.006692  -0.020398  -0.044713  0.004101  3.980806  0.005
C  C190  1  0.89713336  0.96499156  0.92707571  1  -0.057069  0.006707  -0.020306  -0.045431  0.004096  3.979472  0.005
C  C191  1  0.97026797  0.53506384  0.07295059  1  -0.020064  -0.006692  -0.020403  -0.044747  -0.004101  3.980905  -0.005
C  C192  1  0.94767023  0.03810200  0.06303722  1  -0.037905  0.001344  -0.085983  -0.10038  0.000792  3.97205  0.001
C  C193  1  0.88447224  0.46185959  0.93705384  1  -0.16772  -0.001384  -0.085502  -0.098775  -0.000804  3.971279  -0.001
C  C194  1  0.05233413  0.96189854  0.93694577  1  -0.051494  -0.001346  -0.086003  -0.100634  -0.000792  3.972104  -0.001
C  C195  1  0.11552879  0.53813770  0.06294813  1  -0.167669  0.001384  -0.085456  -0.098673  0.000804  3.971252  0.001
C  C196  1  0.15411586  0.99586060  0.00933153  1  -0.035157  -0.00058  -0.082996  -0.09687  -0.000408  3.987226  -0.001
C  C197  1  0.14464340  0.50409067  0.99051992  1  0.037197  0.000549  -0.083819  -0.099718  0.000404  3.991426  0.001
C  C198  1  0.84589190  0.00413931  0.99065372  1  -0.034034  0.00058  -0.083167  -0.097133  0.000408  3.987401  0.001
C  C199  1  0.85535918  0.49590599  0.00948246  1  0.036767  -0.000549  -0.08378  -0.099561  -0.000404  3.991378  -0.001
C  C200  1  0.36332790  0.40460827  0.34567941  1  1.588732  0.00039  0.199358  0.551875  -0.000778  4.232355  0.0
C  C201  1  0.01813443  0.09535141  0.65441276  1  1.573103  -0.000349  0.199666  0.550478  0.000779  4.234338  0.0
C  C202  1  0.63665854  0.59539217  0.65431595  1  1.588722  -0.00039  0.199388  0.55169  0.000778  4.232349  0.0
C  C203  1  0.98186476  0.90465204  0.34559191  1  1.572599  0.000347  0.199606  0.550407  -0.00078  4.234273  0.0
C  C204  1  0.43367406  0.45363963  0.42581348  1  -0.121045  -0.006841  -0.021707  -0.036268  -0.004165  3.990224  -0.005
C  C205  1  0.00810203  0.04633411  0.57424079  1  -0.028276  0.006775  -0.021873  -0.036645  0.004166  3.990992  0.005
C  C206  1  0.56631045  0.54635830  0.57418663  1  -0.121178  0.00684  -0.021744  -0.036109  0.004164  3.989983  0.005
C  C207  1  0.99189557  0.95366809  0.42576564  1  -0.028878  -0.006775  -0.021845  -0.036609  -0.004166  3.990876  -0.005
C  C208  1  0.54078069  0.51445801  0.42528021  1  -0.057746  -0.000229  -0.091578  -0.114888  -0.000185  4.005396  0.0
C  C209  1  0.11553469  0.98539323  0.57467031  1  -0.112967  0.000235  -0.091554  -0.114939  0.000184  4.005056  0.0
C  C210  1  0.45920601  0.48553992  0.57471873  1  -0.057  0.000228  -0.091621  -0.114883  0.000185  4.005298  0.0
C  C211  1  0.88446103  0.01460896  0.42533648  1  -0.112465  -0.000234  -0.091441  -0.114954  -0.000184  4.00509  0.0
C  C212  1  0.39317245  0.43931665  0.50110621  1  -0.01437  0.000829  -0.094588  -0.114041  0.000486  4.008857  0.001
C  C213  1  0.89227081  0.06082171  0.49898888  1  -0.010577  -0.000815  -0.094175  -0.112672  -0.000486  4.007486  -0.001
C  C214  1  0.60681455  0.56068127  0.49889414  1  -0.013719  -0.000829  -0.094519  -0.114054  -0.000486  4.008973  -0.001
C  C215  1  0.10772306  0.93918050  0.50101608  1  -0.010986  0.000815  -0.094164  -0.112691  0.000486  4.007375  0.001
N  N216  1  0.45683445  0.20051653  0.26527718  1  -1.099294  -0.081746  -0.502567  -0.349354  -0.049785  3.548895  -0.071
N  N217  1  0.19151846  0.29953251  0.73481349  1  -1.106306  0.081819  -0.503232  -0.350688  0.049812  3.547936  0.071
N  N218  1  0.54316600  0.79948080  0.73471976  1  -1.099296  0.081751  -0.502602  -0.349474  0.049787  3.548915  0.071
N  N219  1  0.80848227  0.70046725  0.26518932  1  -1.106223  -0.081823  -0.503192  -0.350622  -0.049814  3.547806  -0.071
N  N220  1  0.22373576  0.30180535  0.17198696  1  -1.05027  -0.086095  -0.497546  -0.385793  -0.052037  3.474376  -0.074
N  N221  1  0.05188345  0.19810088  0.82804183  1  -1.094543  0.086113  -0.498525  -0.38629  0.052077  3.475257  0.074
N  N222  1  0.77626408  0.69819444  0.82801162  1  -1.050283  0.086096  -0.497555  -0.385914  0.052038  3.474357  0.074
N  N223  1  0.94811542  0.80190011  0.17196138  1  -1.09455  -0.086117  -0.49858  -0.386387  -0.052079  3.475208  -0.074
N  N224  1  0.02531366  0.24600654  0.28515258  1  -0.987979  -0.067326  -0.344782  -0.116167  -0.041636  3.498432  -0.06
N  N225  1  0.74023271  0.25387297  0.71485681  1  -0.990365  0.067285  -0.344651  -0.116047  0.041604  3.498997  0.06
N  N226  1  0.97468710  0.75399140  0.71484578  1  -0.987853  0.06733  -0.344795  -0.11615  0.041638  3.498277  0.06
N  N227  1  0.25976556  0.74612988  0.28514582  1  -0.990009  -0.067287  -0.344608  -0.115948  -0.041605  3.49888  -0.06
N  N228  1  0.28108676  0.15697081  0.39062280  1  -0.980879  -0.065812  -0.343185  -0.1138  -0.040728  3.494945  -0.059
N  N229  1  0.89046708  0.34304550  0.60947684  1  -1.00821  0.06585  -0.342901  -0.112944  0.040742  3.495891  0.059
N  N230  1  0.71890994  0.84302714  0.60937490  1  -0.980906  0.065818  -0.343125  -0.113602  0.04073  3.494776  0.059
N  N231  1  0.10953398  0.65695550  0.39052520  1  -1.009021  -0.06585  -0.342952  -0.113039  -0.040742  3.496111  -0.059
N  N232  1  0.53696357  0.14093389  0.41085212  1  -1.013882  -0.001435  -0.340092  -0.184877  -0.000621  3.459209  -0.001
N  N233  1  0.12613153  0.35923695  0.58932324  1  -1.006865  0.00144  -0.340402  -0.18502  0.000622  3.459447  0.001
N  N234  1  0.46303532  0.85906528  0.58914663  1  -1.013453  0.001434  -0.340106  -0.184842  0.000621  3.459369  0.001
N  N235  1  0.87387107  0.64076157  0.41067918  1  -1.006406  -0.00144  -0.340438  -0.184993  -0.000622  3.459456  -0.001
N  N236  1  0.94981411  0.31162284  0.15413051  1  -1.027784  -0.001492  -0.343555  -0.181041  -0.000654  3.460652  -0.002
N  N237  1  0.79584230  0.18822890  0.84587383  1  -1.029617  0.00149  -0.343491  -0.181585  0.000655  3.461949  0.002
N  N238  1  0.05018697  0.68837694  0.84586929  1  -1.02779  0.001492  -0.343553  -0.181085  0.000654  3.460654  0.002
N  N239  1  0.20415845  0.81177455  0.15413127  1  -1.02947  -0.001489  -0.343571  -0.181617  -0.000655  3.461762  -0.002
O  O240  1  0.15719246  0.12203163  0.19590891  1  -1.163342  -0.063716  -0.317496  -0.554431  -0.038218  2.362076  -0.058
O  O241  1  0.96107326  0.37779258  0.80415019  1  -1.169808  0.063718  -0.317023  -0.553744  0.038296  2.361733  0.058
O  O242  1  0.84281714  0.87796578  0.80407813  1  -1.162972  0.063724  -0.317529  -0.554615  0.038222  2.362229  0.058
O  O243  1  0.03892658  0.62220783  0.19584840  1  -1.16986  -0.063717  -0.317016  -0.553662  -0.038295  2.36169  -0.058
O  O244  1  0.35318977  0.06501267  0.15846905  1  -1.181626  -0.001609  -0.334953  -0.556828  -0.000618  2.130813  -0.001
O  O245  1  0.19423440  0.43508227  0.84132464  1  -1.182055  0.001613  -0.334669  -0.556093  0.000617  2.130153  0.001
O  O246  1  0.64681945  0.93498039  0.84152092  1  -1.181803  0.001611  -0.334983  -0.556846  0.000619  2.130772  0.001
O  O247  1  0.80576329  0.56492124  0.15867297  1  -1.182  -0.001612  -0.334624  -0.556032  -0.000617  2.130134  -0.001
O  O248  1  0.32685093  0.33006072  0.35843018  1  -1.163295  -0.067497  -0.318451  -0.552471  -0.040698  2.385086  -0.063
O  O249  1  0.96887679  0.16991310  0.64171323  1  -1.174694  0.067539  -0.318509  -0.552069  0.040776  2.38646  0.063
O  O250  1  0.67313829  0.66993724  0.64156679  1  -1.163246  0.067491  -0.318423  -0.552409  0.040694  2.385259  0.063
O  O251  1  0.03112023  0.83009098  0.35829041  1  -1.174445  -0.067542  -0.318443  -0.551973  -0.040777  2.386487  -0.063
O  O252  1  0.34617848  0.43914144  0.27439073  1  -1.182788  0.001081  -0.328984  -0.547667  0.000921  2.122907  0.001
O  O253  1  0.07245577  0.06078395  0.72567406  1  -1.187927  -0.00111  -0.329767  -0.547777  -0.000935  2.122797  -0.001
O  O254  1  0.65381009  0.56085833  0.72561008  1  -1.182743  -0.001081  -0.329008  -0.547624  -0.00092  2.122764  -0.001
O  O255  1  0.92754845  0.93922382  0.27433117  1  -1.187932  0.001109  -0.329819  -0.54785  0.000934  2.12261  0.001
