# generated using pymatgen
data_NpH8C4Cl2O3
_symmetry_space_group_name_H-M   'P 1'
_cell_length_a   7.31850133
_cell_length_b   7.31388994
_cell_length_c   8.66974041
_cell_angle_alpha   75.16259764
_cell_angle_beta   75.18472490
_cell_angle_gamma   86.48990422
_symmetry_Int_Tables_number   1
_chemical_formula_structural   NpH8C4Cl2O3
_chemical_formula_sum   'Np2 H16 C8 Cl4 O6'
_cell_volume   433.67147036
_cell_formula_units_Z   2
loop_
 _symmetry_equiv_pos_site_id
 _symmetry_equiv_pos_as_xyz
  1  'x, y, z'
loop_
 _atom_site_type_symbol
 _atom_site_label
 _atom_site_symmetry_multiplicity
 _atom_site_fract_x
 _atom_site_fract_y
 _atom_site_fract_z
 _atom_site_occupancy
 _atom_site_pbe_cm5_charge
 _atom_site_pbe_ddec_charge
 _atom_site_pbe_ddec_spin_density
 _atom_site_pbe_ddec_sum_bond_order
 _atom_site_pbe_magmom
Np  Np0  1  0.44117157  0.55884143  0.75014695  1  1.80169  2.178636  1.179492  4.848192  1.155
Np  Np1  1  0.55915076  0.44074432  0.25005164  1  1.803175  2.179005  1.177784  4.850433  1.154
H  H2  1  0.35904155  0.03370430  0.60136871  1  0.11286  0.08338  -0.000872  1.020231  -0.001
H  H3  1  0.96652374  0.64096506  0.89859523  1  0.112756  0.083034  -0.000872  1.020333  -0.001
H  H4  1  0.64081739  0.96644164  0.39868462  1  0.113525  0.084237  -0.000883  1.019467  -0.001
H  H5  1  0.03324242  0.35924304  0.10125700  1  0.113458  0.084133  -0.000886  1.019392  -0.001
H  H6  1  0.28576652  0.02480501  0.81677721  1  0.108922  0.082258  -0.001292  0.994709  -0.001
H  H7  1  0.97558138  0.71442035  0.68310282  1  0.108945  0.082149  -0.001294  0.994241  -0.001
H  H8  1  0.71448806  0.97512152  0.18322243  1  0.109646  0.082063  -0.001283  0.993713  -0.001
H  H9  1  0.02458239  0.28541673  0.31679684  1  0.109747  0.08199  -0.001284  0.993773  -0.001
H  H10  1  0.04649928  0.11294543  0.56358690  1  0.094044  0.098914  -0.000157  0.99928  0.0
H  H11  1  0.88755081  0.95392502  0.93614614  1  0.093958  0.099037  -0.000157  0.999227  0.0
H  H12  1  0.95361052  0.88873559  0.43659658  1  0.094176  0.099825  -0.00016  0.998547  0.0
H  H13  1  0.11086039  0.04604942  0.06353722  1  0.094047  0.099734  -0.00016  0.998993  0.0
H  H14  1  0.04008670  0.22826782  0.72194212  1  0.103145  0.122369  -0.000224  0.987683  0.0
H  H15  1  0.77227241  0.96031891  0.77774775  1  0.103029  0.122479  -0.000223  0.988003  0.0
H  H16  1  0.95979906  0.77175309  0.27935135  1  0.103725  0.123592  -0.000229  0.987239  0.0
H  H17  1  0.22771609  0.03991188  0.22087803  1  0.103524  0.123256  -0.000229  0.987272  0.0
C  C18  1  0.24224161  0.99880986  0.71194470  1  -0.057884  0.034143  -0.000915  3.794626  0.0
C  C19  1  0.00146000  0.75790769  0.78800101  1  -0.057744  0.034714  -0.000914  3.794007  0.0
C  C20  1  0.75765429  0.00127408  0.28814742  1  -0.057371  0.035083  -0.000922  3.792206  0.0
C  C21  1  0.99846196  0.24224116  0.21183064  1  -0.057492  0.034819  -0.000921  3.792127  0.0
C  C22  1  0.05582368  0.09092249  0.69141045  1  -0.164105  -0.175721  -0.000554  3.898315  0.0
C  C23  1  0.90951400  0.94454002  0.80835461  1  -0.163939  -0.176021  -0.000557  3.898849  0.0
C  C24  1  0.94408408  0.90956178  0.30895134  1  -0.164808  -0.176253  -0.000589  3.899103  0.0
C  C25  1  0.09002956  0.05557270  0.19117093  1  -0.164644  -0.176197  -0.000586  3.89901  0.0
Cl  Cl26  1  0.66025638  0.34861790  0.94210099  1  -0.230991  -0.555077  -0.02731  1.238691  -0.024
Cl  Cl27  1  0.65135809  0.33973762  0.55798039  1  -0.231052  -0.555364  -0.027239  1.237814  -0.024
Cl  Cl28  1  0.34944229  0.66012169  0.05391969  1  -0.232115  -0.555593  -0.027205  1.233582  -0.024
Cl  Cl29  1  0.33988029  0.65039552  0.44616450  1  -0.232209  -0.555678  -0.027242  1.232692  -0.024
O  O30  1  0.61602099  0.74057770  0.66860918  1  -0.721495  -0.634018  -0.048745  1.969785  -0.045
O  O31  1  0.25966656  0.38368447  0.83165308  1  -0.721328  -0.634166  -0.048795  1.969185  -0.045
O  O32  1  0.38456798  0.25864948  0.32426617  1  -0.721587  -0.634459  -0.048712  1.967602  -0.045
O  O33  1  0.74091659  0.61563110  0.17565163  1  -0.721663  -0.634314  -0.048692  1.968791  -0.045
O  O34  1  0.20632743  0.79377610  0.75006096  1  -0.291464  -0.292775  -0.018492  2.609712  -0.018
O  O35  1  0.79353863  0.20636285  0.24999120  1  -0.292485  -0.293214  -0.018681  2.61285  -0.018
