# generated using pymatgen
data_ZnH22C32(N5O2)2
_symmetry_space_group_name_H-M   'P 1'
_cell_length_a   9.46634912
_cell_length_b   11.98276379
_cell_length_c   14.14900000
_cell_angle_alpha   78.04833489
_cell_angle_beta   88.74548562
_cell_angle_gamma   88.79735069
_symmetry_Int_Tables_number   1
_chemical_formula_structural   ZnH22C32(N5O2)2
_chemical_formula_sum   'Zn2 H44 C64 N20 O8'
_cell_volume   1569.57398467
_cell_formula_units_Z   2
loop_
 _symmetry_equiv_pos_site_id
 _symmetry_equiv_pos_as_xyz
  1  'x, y, z'
loop_
 _atom_site_type_symbol
 _atom_site_label
 _atom_site_symmetry_multiplicity
 _atom_site_fract_x
 _atom_site_fract_y
 _atom_site_fract_z
 _atom_site_occupancy
 _atom_site_hle17_bader_spin_density
 _atom_site_hle17_ddec_charge
 _atom_site_hle17_ddec_spin_density
 _atom_site_hle17_ddec_sum_bond_order
 _atom_site_hle17_magmom
 _atom_site_hse06_10hf_bader_spin_density
 _atom_site_hse06_10hf_ddec_charge
 _atom_site_hse06_10hf_ddec_spin_density
 _atom_site_hse06_10hf_ddec_sum_bond_order
 _atom_site_hse06_10hf_magmom
 _atom_site_hse06_bader_spin_density
 _atom_site_hse06_ddec_charge
 _atom_site_hse06_ddec_spin_density
 _atom_site_hse06_ddec_sum_bond_order
 _atom_site_hse06_magmom
 _atom_site_pbe_bader_charge
 _atom_site_pbe_bader_spin_density
 _atom_site_pbe_cm5_charge
 _atom_site_pbe_ddec_charge
 _atom_site_pbe_ddec_spin_density
 _atom_site_pbe_ddec_sum_bond_order
 _atom_site_pbe_magmom
Zn  Zn0  1  0.15566561  0.44122221  0.82372599  1  0  1.013622  0  1.908795  0  0  0.825034  0  2.393832  0  0  0.870864  0  2.337368  0  1.262357  0  0.706863  0.793088  0  2.432575  0
Zn  Zn1  1  0.84433322  0.55877863  0.17628017  1  0  1.013706  0  1.908839  0  0  0.825089  0  2.393891  0  0  0.870929  0  2.337441  0  1.262246  0  0.706859  0.793144  0  2.432638  0
H  H2  1  0.31925731  0.31539882  0.01764583  1  0  0.098142  0  0.915404  0  0  0.111168  0  0.969881  0  0  0.112757  0  0.969142  0  0.116803  0  0.141174  0.109901  0  0.970527  0
H  H3  1  0.68074803  0.68459349  0.98236031  1  0  0.098172  0  0.915369  0  0  0.111205  0  0.96983  0  0  0.112791  0  0.969093  0  0.116751  0  0.141238  0.109942  0  0.970478  0
H  H4  1  0.24450012  0.66449001  0.90833952  1  0  0.115609  0  0.913721  0  0  0.128125  0  0.970582  0  0  0.130964  0  0.966201  0  0.173834  0  0.153605  0.125894  0  0.973933  0
H  H5  1  0.75549036  0.33550572  0.09167190  1  0  0.115563  0  0.913762  0  0  0.128134  0  0.970556  0  0  0.130974  0  0.966167  0  0.173716  0  0.153634  0.125902  0  0.973909  0
H  H6  1  0.07644737  0.51944784  0.34416163  1  0  0.11113  0  0.898905  0  0  0.124441  0  0.949973  0  0  0.12686  0  0.947463  0  0.139212  0  0.150792  0.122608  0  0.95188  0
H  H7  1  0.92355888  0.48055130  0.65584260  1  0  0.111111  0  0.898994  0  0  0.124416  0  0.95005  0  0  0.12684  0  0.947541  0  0.139255  0  0.150775  0.122584  0  0.951956  0
H  H8  1  0.02916381  0.34109637  0.11871058  1  0  0.123934  0  0.987255  0  0  0.130626  0  1.055297  0  0  0.134386  0  1.050915  0  0.26327  0  0.139223  0.127809  0  1.058476  0
H  H9  1  0.97083488  0.65891044  0.88128817  1  0  0.123844  0  0.987311  0  0  0.130593  0  1.055293  0  0  0.134286  0  1.051005  0  0.263198  0  0.139176  0.127769  0  1.058485  0
H  H10  1  0.39325167  0.53181331  0.22656581  1  0  0.119783  0  0.956882  0  0  0.124476  0  1.025684  0  0  0.12734  0  1.02465  0  0.126534  0  0.112566  0.122492  0  1.026375  0
H  H11  1  0.60674088  0.46818412  0.77344457  1  0  0.119797  0  0.95678  0  0  0.124528  0  1.025551  0  0  0.127393  0  1.024517  0  0.126562  0  0.112619  0.122544  0  1.026242  0
H  H12  1  0.44151661  0.67742026  0.32286647  1  0  0.113737  0  0.952897  0  0  0.124425  0  1.01049  0  0  0.126592  0  1.011108  0  0.128569  0  0.110517  0.12295  0  1.009982  0
H  H13  1  0.55846733  0.32258485  0.67713987  1  0  0.113835  0  0.95266  0  0  0.124394  0  1.010405  0  0  0.126595  0  1.010978  0  0.128385  0  0.110498  0.122914  0  1.009912  0
H  H14  1  0.39683217  0.94314818  0.06741419  1  0  0.104837  0  0.944299  0  0  0.116935  0  1.000134  0  0  0.119769  0  0.999439  0  0.054551  0  0.105413  0.114913  0  1.000797  0
H  H15  1  0.60316994  0.05684669  0.93258237  1  0  0.10487  0  0.944276  0  0  0.116921  0  1.000156  0  0  0.119753  0  0.999464  0  0.054485  0  0.105468  0.114899  0  1.000819  0
H  H16  1  0.35195777  0.79836110  0.97128547  1  0  0.098683  0  0.953204  0  0  0.111658  0  1.011042  0  0  0.113875  0  1.010539  0  0.082891  0  0.107507  0.110097  0  1.011408  0
H  H17  1  0.64805824  0.20162609  0.02871435  1  0  0.0987  0  0.95331  0  0  0.111621  0  1.011196  0  0  0.113835  0  1.010695  0  0.082899  0  0.107521  0.11006  0  1.011561  0
H  H18  1  0.68182482  0.89663562  0.54351454  1  0  0.09572  0  0.969539  0  0  0.105398  0  1.03439  0  0  0.107415  0  1.034825  0  0.070678  0  0.102939  0.103874  0  1.03418  0
H  H19  1  0.31817611  0.10336523  0.45648311  1  0  0.095686  0  0.969602  0  0  0.105348  0  1.034468  0  0  0.107365  0  1.034902  0  0.070577  0  0.102909  0.103824  0  1.034262  0
H  H20  1  0.47107945  0.93000464  0.44100718  1  0  0.103243  0  0.947403  0  0  0.116648  0  1.002876  0  0  0.119173  0  1.00243  0  0.083926  0  0.106428  0.114716  0  1.003404  0
H  H21  1  0.52891213  0.06998852  0.55899407  1  0  0.10328  0  0.947332  0  0  0.116651  0  1.002848  0  0  0.119174  0  1.002406  0  0.083384  0  0.106444  0.114722  0  1.003373  0
H  H22  1  0.70314484  0.80742405  0.21621204  1  0  0.112001  0  0.962548  0  0  0.120694  0  1.025376  0  0  0.124055  0  1.023188  0  0.12941  0  0.106539  0.118277  0  1.027019  0
H  H23  1  0.29684341  0.19257679  0.78378367  1  0  0.11191  0  0.962542  0  0  0.120588  0  1.025397  0  0  0.123949  0  1.023211  0  0.129501  0  0.10654  0.118172  0  1.027038  0
H  H24  1  0.91524122  0.77924726  0.31641433  1  0  0.118285  0  0.937678  0  0  0.125649  0  1.000776  0  0  0.129563  0  0.997518  0  0.120647  0  0.111749  0.12254  0  1.003929  0
H  H25  1  0.08475021  0.22075358  0.68357710  1  0  0.118243  0  0.937769  0  0  0.125649  0  1.00081  0  0  0.129575  0  0.997544  0  0.120571  0  0.111766  0.122533  0  1.00398  0
H  H26  1  0.57016211  0.09846903  0.27649053  1  0  0.116927  0  0.939609  0  0  0.130189  0  0.990657  0  0  0.133339  0  0.989703  0  0.10815  0  0.109748  0.127963  0  0.991414  0
H  H27  1  0.42983682  0.90152669  0.72350310  1  0  0.116973  0  0.939504  0  0  0.130166  0  0.990635  0  0  0.133314  0  0.989683  0  0.10811  0  0.109742  0.127939  0  0.991393  0
H  H28  1  0.44360741  0.28183613  0.26815207  1  0  0.133426  0  0.950125  0  0  0.138877  0  1.0169  0  0  0.1431  0  1.01272  0  0.162933  0  0.112767  0.135844  0  1.019787  0
H  H29  1  0.55640411  0.71816386  0.73183921  1  0  0.133362  0  0.950073  0  0  0.138836  0  1.016834  0  0  0.143048  0  1.012654  0  0.162811  0  0.112763  0.135804  0  1.019718  0
H  H30  1  0.05666304  0.12623631  0.20873242  1  0  0.107905  0  0.954183  0  0  0.118331  0  1.01575  0  0  0.120875  0  1.014482  0  0.087124  0  0.108309  0.116475  0  1.016695  0
H  H31  1  0.94334191  0.87377477  0.79126478  1  0  0.107907  0  0.95415  0  0  0.118307  0  1.015759  0  0  0.120852  0  1.014486  0  0.087096  0  0.10829  0.116438  0  1.016717  0
H  H32  1  0.18439930  0.94346128  0.21230855  1  0  0.111653  0  0.945433  0  0  0.12392  0  1.000332  0  0  0.126676  0  1.000268  0  0.098631  0  0.107477  0.12181  0  1.000868  0
H  H33  1  0.81558994  0.05654297  0.78768867  1  0  0.111622  0  0.945509  0  0  0.123867  0  1.000435  0  0  0.126621  0  1.000374  0  0.098629  0  0.107453  0.121757  0  1.00097  0
H  H34  1  0.56719772  0.64468512  0.59329289  1  0  0.091231  0  0.985935  0  0  0.093818  0  1.062612  0  0  0.097638  0  1.059744  0  0.114822  0  0.095137  0.09115  0  1.064567  0
H  H35  1  0.43279976  0.35532937  0.40670878  1  0  0.091221  0  0.986089  0  0  0.093797  0  1.062767  0  0  0.097613  0  1.059905  0  0.114977  0  0.095137  0.09113  0  1.064723  0
H  H36  1  0.29111409  0.37923447  0.55227348  1  0  0.09973  0  0.971456  0  0  0.106822  0  1.036508  0  0  0.109844  0  1.035657  0  0.100749  0  0.097912  0.10467  0  1.037244  0
H  H37  1  0.70887709  0.62077832  0.44772575  1  0  0.099673  0  0.971463  0  0  0.106807  0  1.036473  0  0  0.109828  0  1.035622  0  0.100705  0  0.097927  0.104654  0  1.03721  0
H  H38  1  0.14917271  0.07903612  0.85636921  1  0  0.09568  0  0.990448  0  0  0.103533  0  1.056194  0  0  0.106652  0  1.054727  0  0.092837  0  0.099291  0.101259  0  1.05742  0
H  H39  1  0.85082925  0.92096643  0.14363519  1  0  0.095638  0  0.990561  0  0  0.103548  0  1.056265  0  0  0.106669  0  1.054792  0  0.092763  0  0.099291  0.101271  0  1.057491  0
H  H40  1  0.88123372  0.13169729  0.09212588  1  0  0.085475  0  0.956039  0  0  0.096277  0  1.017956  0  0  0.099961  0  1.014852  0  0.044484  0  0.099345  0.093584  0  1.020177  0
H  H41  1  0.11876925  0.86830697  0.90788033  1  0  0.085324  0  0.956275  0  0  0.096133  0  1.018167  0  0  0.099834  0  1.015043  0  0.044664  0  0.099325  0.093451  0  1.020386  0
H  H42  1  0.89869682  0.94017070  0.58997377  1  0  0.093356  0  0.943657  0  0  0.10473  0  1.003917  0  0  0.106665  0  1.001668  0  0.132628  0  0.132857  0.103177  0  1.005236  0
H  H43  1  0.10130938  0.05983099  0.41001658  1  0  0.093347  0  0.943488  0  0  0.104658  0  1.003837  0  0  0.106594  0  1.001584  0  0.133003  0  0.132787  0.103106  0  1.005157  0
H  H44  1  0.23985059  0.72560668  0.55025306  1  0  0.092012  0  0.936091  0  0  0.101891  0  0.993918  0  0  0.103313  0  0.9929  0  0.136926  0  0.127661  0.100797  0  0.994483  0
H  H45  1  0.76014015  0.27437624  0.44974011  1  0  0.091948  0  0.936303  0  0  0.10182  0  0.994139  0  0  0.10324  0  0.993123  0  0.136862  0  0.12765  0.100727  0  0.994706  0
C  C46  1  0.31570970  0.40719883  0.01093274  1  0  0.202354  0  3.712888  0  0  0.144639  0  4.012481  0  0  0.156083  0  4.025315  0  1.022429  0  0.151284  0.137173  0  4.003518  0
C  C47  1  0.68429559  0.59279605  0.98907366  1  0  0.202393  0  3.713031  0  0  0.144678  0  4.01261  0  0  0.156127  0  4.025439  0  1.022575  0  0.151255  0.137199  0  4.003651  0
C  C48  1  0.27734019  0.58421939  0.95306938  1  0  0.22046  0  3.594846  0  0  0.140172  0  3.860626  0  0  0.157095  0  3.867681  0  1.023728  0  0.1808  0.129241  0  3.855677  0
C  C49  1  0.72265874  0.41577634  0.04694050  1  0  0.220697  0  3.59458  0  0  0.140396  0  3.860378  0  0  0.157332  0  3.867424  0  1.024275  0  0.180836  0.129461  0  3.855427  0
C  C50  1  0.09081826  0.45729800  0.29863858  1  0  0.208051  0  3.680182  0  0  0.154445  0  3.966991  0  0  0.166268  0  3.978743  0  0.99001  0  0.158121  0.146719  0  3.958818  0
C  C51  1  0.90918895  0.54270625  0.70136050  1  0  0.208121  0  3.68013  0  0  0.154524  0  3.966926  0  0  0.166343  0  3.978679  0  0.989957  0  0.158173  0.146798  0  3.958753  0
C  C52  1  0.06176969  0.36749009  0.18425635  1  0  0.173538  0  3.598564  0  0  0.096047  0  3.857857  0  0  0.110173  0  3.868128  0  0.929082  0  0.163602  0.087205  0  3.85066  0
C  C53  1  0.93823435  0.63251417  0.81574206  1  0  0.173715  0  3.598514  0  0  0.096137  0  3.85778  0  0  0.110316  0  3.868081  0  0.929081  0  0.163652  0.087295  0  3.85058  0
C  C54  1  0.36811039  0.65588263  0.09362826  1  0  0.147444  0  3.784758  0  0  0.124565  0  4.037375  0  0  0.127501  0  4.061733  0  0.211259  0  0.088975  0.122842  0  4.020509  0
C  C55  1  0.63189278  0.34411224  0.90637818  1  0  0.147391  0  3.784545  0  0  0.124622  0  4.037103  0  0  0.12758  0  4.061429  0  0.21159  0  0.08894  0.122897  0  4.020241  0
C  C56  1  0.39411634  0.62189850  0.19241409  1  0  -0.112855  0  3.723763  0  0  -0.136179  0  3.981484  0  0  -0.138584  0  4.002073  0  0.024782  0  -0.083082  -0.13452  0  3.967429  0
C  C57  1  0.60588261  0.37809638  0.80759170  1  0  -0.11294  0  3.723665  0  0  -0.136331  0  3.981377  0  0  -0.138738  0  4.001963  0  0.024061  0  -0.083152  -0.134671  0  3.967326  0
C  C58  1  0.42058247  0.70379862  0.24598058  1  0  -0.121542  0  3.711494  0  0  -0.140157  0  3.957714  0  0  -0.143289  0  3.977838  0  -0.021622  0  -0.082897  -0.137914  0  3.944275  0
C  C59  1  0.57941857  0.29619711  0.75402361  1  0  -0.121481  0  3.711325  0  0  -0.139985  0  3.957562  0  0  -0.143143  0  3.977677  0  -0.020624  0  -0.08283  -0.137745  0  3.944119  0
C  C60  1  0.42216767  0.82010262  0.20200057  1  0  0.190459  0  3.792406  0  0  0.183517  0  4.040922  0  0  0.190571  0  4.062285  0  0.408328  0  0.096081  0.178498  0  4.02646  0
C  C61  1  0.57782277  0.17989481  0.79800278  1  0  0.190199  0  3.792574  0  0  0.183271  0  4.041053  0  0  0.19032  0  4.062427  0  0.409944  0  0.095985  0.178255  0  4.026586  0
C  C62  1  0.39546147  0.85316025  0.10267295  1  0  -0.145431  0  3.75384  0  0  -0.163829  0  4.004284  0  0  -0.16764  0  4.0255  0  -0.066316  0  -0.093346  -0.161107  0  3.989895  0
C  C63  1  0.60454275  0.14683547  0.89732908  1  0  -0.145348  0  3.753993  0  0  -0.163715  0  4.004433  0  0  -0.167525  0  4.025645  0  -0.067901  0  -0.093407  -0.160994  0  3.990044  0
C  C64  1  0.36912466  0.77144270  0.04858700  1  0  -0.133804  0  3.779623  0  0  -0.156134  0  4.039519  0  0  -0.159774  0  4.062954  0  0.024902  0  -0.090093  -0.153434  0  4.023155  0
C  C65  1  0.63088175  0.22854876  0.95141716  1  0  -0.133809  0  3.779662  0  0  -0.156108  0  4.039494  0  0  -0.159748  0  4.062916  0  0.024617  0  -0.090068  -0.153408  0  4.023133  0
C  C66  1  0.81449369  0.84172897  0.43422364  1  0  0.161392  0  3.778119  0  0  0.140879  0  4.028102  0  0  0.154298  0  4.051888  0  0.230208  0  0.097977  0.13794  0  4.012559  0
C  C67  1  0.18550306  0.15827016  0.56576872  1  0  0.161107  0  3.778114  0  0  0.140528  0  4.028171  0  0  0.153955  0  4.051966  0  0.229602  0  0.097888  0.137593  0  4.012623  0
C  C68  1  0.68847660  0.88211937  0.47004454  1  0  -0.129903  0  3.751992  0  0  -0.151559  0  4.009633  0  0  -0.154911  0  4.029455  0  0.022791  0  -0.088806  -0.148212  0  3.993882  0
C  C69  1  0.31152445  0.11787635  0.52995047  1  0  -0.129806  0  3.751876  0  0  -0.151425  0  4.009482  0  0  -0.154773  0  4.029298  0  0.023322  0  -0.088785  -0.148076  0  3.993724  0
C  C70  1  0.56943247  0.89972997  0.41277068  1  0  -0.134283  0  3.750379  0  0  -0.152794  0  3.998352  0  0  -0.156372  0  4.020094  0  -0.03019  0  -0.088646  -0.150434  0  3.983699  0
C  C71  1  0.43056527  0.10027258  0.58722884  1  0  -0.134319  0  3.750454  0  0  -0.152835  0  3.998374  0  0  -0.156412  0  4.020113  0  -0.029774  0  -0.088639  -0.150474  0  3.983721  0
C  C72  1  0.57497849  0.87717625  0.31925501  1  0  0.177204  0  3.80011  0  0  0.171244  0  4.050226  0  0  0.176958  0  4.073443  0  0.301341  0  0.089579  0.1664  0  4.034931  0
C  C73  1  0.42501084  0.12282373  0.68074437  1  0  0.177106  0  3.800244  0  0  0.17125  0  4.050195  0  0  0.176964  0  4.073413  0  0.301689  0  0.089485  0.166407  0  4.034897  0
C  C74  1  0.69911881  0.83111671  0.28646802  1  0  -0.128715  0  3.736484  0  0  -0.151172  0  3.992385  0  0  -0.154306  0  4.012412  0  -0.054679  0  -0.086656  -0.148475  0  3.979387  0
C  C75  1  0.30086733  0.16888413  0.71352631  1  0  -0.12853  0  3.736388  0  0  -0.150994  0  3.992235  0  0  -0.154131  0  4.012268  0  -0.054978  0  -0.086517  -0.148295  0  3.979229  0
C  C76  1  0.81883426  0.81409734  0.34305376  1  0  -0.10793  0  3.715721  0  0  -0.131122  0  3.974616  0  0  -0.133001  0  3.990053  0  0.084554  0  -0.080318  -0.130764  0  3.963693  0
C  C77  1  0.18115819  0.18590521  0.65694018  1  0  -0.107799  0  3.715787  0  0  -0.130988  0  3.974604  0  0  -0.132881  0  3.990059  0  0.08488  0  -0.080393  -0.130634  0  3.96368  0
C  C78  1  0.38618876  0.00693947  0.24656309  1  0  0.200141  0  3.803503  0  0  0.189173  0  4.058219  0  0  0.198655  0  4.078778  0  0.341818  0  0.096466  0.182514  0  4.044365  0
C  C79  1  0.61380793  0.99306222  0.75343306  1  0  0.200223  0  3.803371  0  0  0.189159  0  4.058229  0  0  0.198639  0  4.078791  0  0.342254  0  0.096483  0.182487  0  4.044394  0
C  C80  1  0.45772032  0.10423970  0.26077734  1  0  -0.164294  0  3.741396  0  0  -0.179911  0  3.987673  0  0  -0.185608  0  4.008489  0  -0.091436  0  -0.097523  -0.176107  0  3.973653  0
C  C81  1  0.54227750  0.89575859  0.73922363  1  0  -0.164211  0  3.741275  0  0  -0.179747  0  3.987592  0  0  -0.185443  0  4.008405  0  -0.091841  0  -0.097422  -0.175941  0  3.973577  0
C  C82  1  0.38623304  0.20753155  0.25723367  1  0  -0.111539  0  3.730695  0  0  -0.134248  0  3.989982  0  0  -0.134083  0  4.007634  0  0.019118  0  -0.082628  -0.133962  0  3.977681  0
C  C83  1  0.61377415  0.79247356  0.74275678  1  0  -0.111494  0  3.73058  0  0  -0.134241  0  3.989877  0  0  -0.13406  0  4.007514  0  0.018992  0  -0.082644  -0.133952  0  3.977571  0
C  C84  1  0.24147857  0.21436609  0.23878721  1  0  0.122138  0  3.816611  0  0  0.098065  0  4.076668  0  0  0.099307  0  4.101289  0  0.280822  0  0.080697  0.097399  0  4.059761  0
C  C85  1  0.75852962  0.78564158  0.76120560  1  0  0.121983  0  3.816501  0  0  0.097937  0  4.076499  0  0  0.099188  0  4.101105  0  0.281213  0  0.080602  0.097269  0  4.059592  0
C  C86  1  0.17011732  0.12040337  0.22029370  1  0  -0.131152  0  3.789897  0  0  -0.153112  0  4.048808  0  0  -0.154977  0  4.071461  0  0.018474  0  -0.089899  -0.151453  0  4.033204  0
C  C87  1  0.82988455  0.87960345  0.77970430  1  0  -0.131014  0  3.789776  0  0  -0.152974  0  4.048685  0  0  -0.154834  0  4.07133  0  0.018783  0  -0.089821  -0.151303  0  4.033085  0
C  C88  1  0.24178258  0.01734271  0.22362743  1  0  -0.155185  0  3.746865  0  0  -0.174127  0  3.998882  0  0  -0.179466  0  4.019932  0  -0.064455  0  -0.097153  -0.170861  0  3.985039  0
C  C89  1  0.75821516  0.98265984  0.77637138  1  0  -0.15526  0  3.746863  0  0  -0.174164  0  3.998935  0  0  -0.179509  0  4.019992  0  -0.064511  0  -0.09718  -0.170894  0  3.985093  0
C  C90  1  0.33886905  0.52401216  0.67153007  1  0  0.624079  0  3.952853  0  0  0.576982  0  4.246852  0  0  0.61064  0  4.239805  0  1.53034  0  0.193426  0.554225  0  4.250649  0
C  C91  1  0.66112431  0.47599721  0.32847185  1  0  0.62423  0  3.953201  0  0  0.577108  0  4.247219  0  0  0.610766  0  4.240169  0  1.530311  0  0.19346  0.554354  0  4.251015  0
C  C92  1  0.03694291  0.24474740  0.94229915  1  0  0.630121  0  3.944245  0  0  0.582439  0  4.236213  0  0  0.616663  0  4.228233  0  1.581113  0  0.198576  0.559292  0  4.240849  0
C  C93  1  0.96306119  0.75525344  0.05770623  1  0  0.630015  0  3.944462  0  0  0.582322  0  4.236403  0  0  0.61655  0  4.228417  0  1.580164  0  0.198493  0.559173  0  4.241036  0
C  C94  1  0.53755057  0.58213089  0.55182782  1  0  -0.087373  0  3.76672  0  0  -0.108998  0  4.015866  0  0  -0.110269  0  4.036172  0  -0.047434  0  -0.093106  -0.108009  0  4.001959  0
C  C95  1  0.46245023  0.41787678  0.44816863  1  0  -0.087272  0  3.766829  0  0  -0.108873  0  4.015902  0  0  -0.110142  0  4.036202  0  -0.047492  0  -0.093112  -0.107883  0  4.001998  0
C  C96  1  0.42004243  0.51366182  0.58135201  1  0  -0.067683  0  3.769633  0  0  -0.042505  0  3.995338  0  0  -0.049342  0  4.017789  0  -0.056257  0  -0.022573  -0.038051  0  3.980229  0
C  C97  1  0.57995731  0.48634585  0.41864587  1  0  -0.067844  0  3.769995  0  0  -0.042662  0  3.995714  0  0  -0.049498  0  4.01816  0  -0.056303  0  -0.022602  -0.038211  0  3.980606  0
C  C98  1  0.38275336  0.43175743  0.52873496  1  0  -0.076441  0  3.740639  0  0  -0.098044  0  3.986165  0  0  -0.098454  0  4.006055  0  -0.054425  0  -0.091078  -0.09771  0  3.972663  0
C  C99  1  0.61723893  0.56825280  0.47126117  1  0  -0.076332  0  3.740788  0  0  -0.097959  0  3.98632  0  0  -0.098368  0  4.006207  0  -0.054207  0  -0.091151  -0.097623  0  3.972815  0
C  C100  1  0.08430937  0.04390706  0.91939449  1  0  -0.074815  0  3.734173  0  0  -0.094958  0  3.976029  0  0  -0.095326  0  3.995666  0  -0.00049  0  -0.087568  -0.094758  0  3.962969  0
C  C101  1  0.91569789  0.95609464  0.08061422  1  0  -0.074762  0  3.73411  0  0  -0.094963  0  3.975955  0  0  -0.09533  0  3.995589  0  -0.000382  0  -0.087591  -0.094761  0  3.962887  0
C  C102  1  0.01716255  0.11825430  0.97139012  1  0  -0.056762  0  3.759619  0  0  -0.035363  0  3.990909  0  0  -0.042065  0  4.013793  0  -0.056763  0  -0.019839  -0.030978  0  3.975682  0
C  C103  1  0.98285006  0.88174399  0.02861558  1  0  -0.05684  0  3.759597  0  0  -0.035451  0  3.990904  0  0  -0.042157  0  4.013797  0  -0.056744  0  -0.01991  -0.031061  0  3.975672  0
C  C104  1  0.93262443  0.07320573  0.05203570  1  0  -0.078581  0  3.772302  0  0  -0.100376  0  4.022133  0  0  -0.101713  0  4.043108  0  -0.045419  0  -0.087827  -0.099318  0  4.007832  0
C  C105  1  0.06738492  0.92679682  0.94797283  1  0  -0.078358  0  3.77251  0  0  -0.100161  0  4.022354  0  0  -0.10151  0  4.043318  0  -0.04547  0  -0.087814  -0.099122  0  4.00807  0
C  C106  1  0.96866015  0.87912995  0.56505261  1  0  0.148353  0  3.706016  0  0  0.076162  0  3.991025  0  0  0.098262  0  4.004581  0  0.970584  0  0.140575  0.067768  0  3.98373  0
C  C107  1  0.03134299  0.12086662  0.43494151  1  0  0.148507  0  3.705789  0  0  0.076372  0  3.99076  0  0  0.098475  0  4.004331  0  0.969559  0  0.140702  0.067977  0  3.983468  0
C  C108  1  0.13914142  0.77134032  0.54184297  1  0  0.18686  0  3.743476  0  0  0.143919  0  4.036269  0  0  0.154753  0  4.045436  0  0.933563  0  0.128654  0.137421  0  4.027601  0
C  C109  1  0.86084719  0.22864346  0.45814937  1  0  0.187073  0  3.743201  0  0  0.144152  0  4.03597  0  0  0.154993  0  4.045126  0  0.934662  0  0.128656  0.13765  0  4.027305  0
N  N110  1  0.09521251  0.84459212  0.59954262  1  0  -0.393712  0  2.955051  0  0  -0.367674  0  3.241332  0  0  -0.379806  0  3.24773  0  -1.174918  0  -0.357402  -0.359409  0  3.234414  0
N  N111  1  0.90478974  0.15539677  0.40044791  1  0  -0.393972  0  2.954931  0  0  -0.36796  0  3.241234  0  0  -0.380091  0  3.247625  0  -1.174765  0  -0.357522  -0.359696  0  3.234322  0
N  N112  1  0.04791473  0.75885030  0.47451741  1  0  -0.29559  0  2.838296  0  0  -0.296863  0  3.096706  0  0  -0.295191  0  3.11411  0  -0.676589  0  -0.237707  -0.291842  0  3.08836  0
N  N113  1  0.95207687  0.24114202  0.52547268  1  0  -0.295587  0  2.838091  0  0  -0.296883  0  3.096489  0  0  -0.295206  0  3.1139  0  -0.677285  0  -0.237667  -0.291859  0  3.088144  0
N  N114  1  0.26121153  0.48130377  0.93305627  1  0  -0.401639  0  3.274614  0  0  -0.321709  0  3.591049  0  0  -0.34245  0  3.596522  0  -1.230575  0  -0.344925  -0.307855  0  3.587042  0
N  N115  1  0.73879157  0.51869451  0.06695098  1  0  -0.401859  0  3.27471  0  0  -0.321896  0  3.591173  0  0  -0.34264  0  3.596637  0  -1.230856  0  -0.344954  -0.308027  0  3.587155  0
N  N116  1  0.36428532  0.45844292  0.07748246  1  0  -0.248314  0  2.845597  0  0  -0.253876  0  3.124586  0  0  -0.261748  0  3.138966  0  -0.689885  0  -0.212622  -0.248449  0  3.114801  0
N  N117  1  0.63572528  0.54155024  0.92252205  1  0  -0.248255  0  2.845424  0  0  -0.253805  0  3.124468  0  0  -0.261667  0  3.138846  0  -0.689834  0  -0.212609  -0.24838  0  3.114692  0
N  N118  1  0.33812331  0.57161248  0.03996571  1  0  0.020573  0  3.577086  0  0  0.136052  0  3.758768  0  0  0.127187  0  3.778616  0  -0.832368  0  -0.109593  0.141314  0  3.746015  0
N  N119  1  0.66188096  0.42838069  0.96004313  1  0  0.020489  0  3.576935  0  0  0.135828  0  3.758762  0  0  0.126916  0  3.778684  0  -0.832707  0  -0.109675  0.14109  0  3.74601  0
N  N120  1  0.01344479  0.45784913  0.21779458  1  0  -0.402146  0  3.260176  0  0  -0.323159  0  3.574881  0  0  -0.344008  0  3.581553  0  -1.240472  0  -0.348236  -0.309225  0  3.56989  0
N  N121  1  0.98655305  0.54214830  0.78220936  1  0  -0.402173  0  3.259929  0  0  -0.323161  0  3.574621  0  0  -0.344  0  3.58126  0  -1.240465  0  -0.348212  -0.309229  0  3.569638  0
N  N122  1  0.18428469  0.37224722  0.31639599  1  0  -0.239225  0  2.826749  0  0  -0.241128  0  3.098128  0  0  -0.24911  0  3.111912  0  -0.652523  0  -0.204875  -0.235724  0  3.08884  0
N  N123  1  0.81572151  0.62775448  0.68360143  1  0  -0.239171  0  2.826541  0  0  -0.241113  0  3.09789  0  0  -0.249088  0  3.111676  0  -0.652444  0  -0.204824  -0.235709  0  3.088603  0
N  N124  1  0.16389043  0.31582795  0.24320208  1  0  0.018785  0  3.618439  0  0  0.133761  0  3.801713  0  0  0.124348  0  3.824465  0  -0.874983  0  -0.114627  0.138896  0  3.787986  0
N  N125  1  0.83611672  0.68417886  0.75679301  1  0  0.018635  0  3.618446  0  0  0.1337  0  3.801637  0  0  0.124248  0  3.824446  0  -0.87526  0  -0.114724  0.13884  0  3.787904  0
N  N126  1  0.93756029  0.82838239  0.49068227  1  0  0.006102  0  3.613754  0  0  0.117446  0  3.799896  0  0  0.078908  0  3.858799  0  -0.849612  0  -0.125562  0.124966  0  3.782898  0
N  N127  1  0.06243966  0.17161504  0.50931034  1  0  0.006181  0  3.613907  0  0  0.117587  0  3.799943  0  0  0.079019  0  3.858911  0  -0.849562  0  -0.125459  0.125107  0  3.782944  0
N  N128  1  0.45667672  0.90094399  0.25755875  1  0  -0.242685  0  3.476038  0  0  -0.168177  0  3.699946  0  0  -0.188631  0  3.722906  0  -1.235345  0  -0.253305  -0.153329  0  3.683405  0
N  N129  1  0.54331369  0.09905514  0.74244148  1  0  -0.242696  0  3.475944  0  0  -0.168171  0  3.699807  0  0  -0.188616  0  3.722754  0  -1.235616  0  -0.253258  -0.153319  0  3.683271  0
O  O130  1  0.11408532  0.27749278  0.86521493  1  0  -0.639496  0  2.065933  0  0  -0.559493  0  2.330315  0  0  -0.58741  0  2.314152  0  -1.184149  0  -0.328106  -0.539989  0  2.340849  0
O  O131  1  0.88592833  0.72250636  0.13479555  1  0  -0.639512  0  2.066177  0  0  -0.5594  0  2.330427  0  0  -0.587321  0  2.314271  0  -1.183307  0  -0.327999  -0.539898  0  2.340962  0
O  O132  1  0.98213925  0.31023815  0.99205475  1  0  -0.637194  0  1.965073  0  0  -0.599465  0  2.205283  0  0  -0.622986  0  2.19657  0  -1.203686  0  -0.331527  -0.583037  0  2.210466  0
O  O133  1  0.01786376  0.68976440  0.00794752  1  0  -0.637094  0  1.965046  0  0  -0.599389  0  2.205234  0  0  -0.622895  0  2.196531  0  -1.203562  0  -0.331488  -0.582959  0  2.210419  0
O  O134  1  0.25393902  0.43961233  0.70256177  1  0  -0.65227  0  2.071033  0  0  -0.575632  0  2.346078  0  0  -0.605298  0  2.332443  0  -1.171392  0  -0.341576  -0.554742  0  2.354478  0
O  O135  1  0.74604905  0.56039705  0.29743811  1  0  -0.65234  0  2.071169  0  0  -0.575769  0  2.346356  0  0  -0.605439  0  2.332723  0  -1.171431  0  -0.341572  -0.554885  0  2.354767  0
O  O136  1  0.35642196  0.60609230  0.71200027  1  0  -0.623632  0  1.881234  0  0  -0.58145  0  2.099137  0  0  -0.603565  0  2.089856  0  -1.175429  0  -0.337451  -0.566067  0  2.104833  0
O  O137  1  0.64358514  0.39391708  0.28800074  1  0  -0.6237  0  1.881469  0  0  -0.581479  0  2.099364  0  0  -0.603596  0  2.090083  0  -1.175165  0  -0.337491  -0.566098  0  2.105059  0
