# generated using pymatgen
data_MnH16C10SO9
_symmetry_space_group_name_H-M   'P 1'
_cell_length_a   5.03510684
_cell_length_b   11.28242397
_cell_length_c   12.09502967
_cell_angle_alpha   90.00055944
_cell_angle_beta   94.70165897
_cell_angle_gamma   89.99993459
_symmetry_Int_Tables_number   1
_chemical_formula_structural   MnH16C10SO9
_chemical_formula_sum   'Mn2 H32 C20 S2 O18'
_cell_volume   684.78491487
_cell_formula_units_Z   2
loop_
 _symmetry_equiv_pos_site_id
 _symmetry_equiv_pos_as_xyz
  1  'x, y, z'
loop_
 _atom_site_type_symbol
 _atom_site_label
 _atom_site_symmetry_multiplicity
 _atom_site_fract_x
 _atom_site_fract_y
 _atom_site_fract_z
 _atom_site_occupancy
 _atom_site_pbe_cm5_charge
 _atom_site_pbe_ddec_charge
 _atom_site_pbe_ddec_spin_density
 _atom_site_pbe_ddec_sum_bond_order
 _atom_site_pbe_magmom
Mn  Mn0  1  0.57950381  0.22450337  0.90387762  1  0.574378  1.072039  -4.715843  2.115525  -4.526
Mn  Mn1  1  0.42048278  0.72450160  0.09611925  1  0.574368  1.072052  -4.715842  2.115495  -4.526
H  H2  1  0.01893794  0.36187658  0.91650297  1  0.298231  0.378019  -0.000206  0.963337  -0.002
H  H3  1  0.98104049  0.86187255  0.08350226  1  0.298192  0.377965  -0.000206  0.963382  -0.002
H  H4  1  0.75502914  0.43869403  0.91266975  1  0.287819  0.361188  -0.001125  0.997844  -0.001
H  H5  1  0.24496130  0.93868520  0.08733332  1  0.287786  0.36116  -0.001125  0.997874  -0.001
H  H6  1  0.99931499  0.14968800  0.78466602  1  0.294888  0.383477  -0.000209  0.951541  -0.002
H  H7  1  0.00067555  0.64967980  0.21533199  1  0.294916  0.383504  -0.000209  0.951492  -0.002
H  H8  1  0.88356202  0.26674946  0.72713085  1  0.266544  0.315695  -0.000868  1.054807  -0.002
H  H9  1  0.11643652  0.76674091  0.27286686  1  0.266579  0.315799  -0.000868  1.054668  -0.002
H  H10  1  0.86317205  0.04164131  0.96630456  1  0.302346  0.386634  -0.001459  0.945895  -0.002
H  H11  1  0.13680849  0.54163374  0.03369459  1  0.302377  0.386702  -0.001459  0.945798  -0.002
H  H12  1  0.04527865  0.15193817  0.01595179  1  0.299516  0.394283  -0.000303  0.939464  -0.002
H  H13  1  0.95472189  0.65193222  0.98404497  1  0.299462  0.394163  -0.000304  0.939638  -0.002
H  H14  1  0.35039144  0.30431973  0.09177927  1  0.295299  0.38335  -0.000776  0.961746  -0.001
H  H15  1  0.64960498  0.80432558  0.90822366  1  0.295307  0.383336  -0.000776  0.961771  -0.001
H  H16  1  0.41725536  0.16404498  0.10929817  1  0.301857  0.390253  -0.00062  0.944639  -0.001
H  H17  1  0.58274708  0.66404980  0.89070290  1  0.301806  0.3902  -0.00062  0.944708  -0.001
H  H18  1  0.21754706  0.60625721  0.69311724  1  0.104885  0.135803  -0.00071  1.030487  -0.001
H  H19  1  0.78245738  0.10624894  0.30688339  1  0.104852  0.135732  -0.000709  1.030491  -0.001
H  H20  1  0.99546251  0.56832592  0.79228991  1  0.115018  0.159765  -0.000424  0.997379  0.0
H  H21  1  0.00453196  0.06832596  0.20771083  1  0.115009  0.159723  -0.000424  0.997395  0.0
H  H22  1  0.03257952  0.21864470  0.53734212  1  0.099331  0.103804  -0.000211  1.019966  0.0
H  H23  1  0.96741095  0.71864028  0.46265899  1  0.099347  0.103793  -0.000211  1.019814  0.0
H  H24  1  0.31469850  0.16509236  0.38599310  1  0.096964  0.105224  -6.6e-05  1.056003  0.0
H  H25  1  0.68532791  0.66508442  0.61400642  1  0.096958  0.10523  -6.6e-05  1.056016  0.0
H  H26  1  0.58316602  0.52894488  0.37423681  1  0.107737  0.124176  0.000195  1.014697  0.0
H  H27  1  0.41684823  0.02894556  0.62577095  1  0.107728  0.124172  0.000195  1.014623  0.0
H  H28  1  0.29400456  0.58164806  0.51716247  1  0.100186  0.102995  -5.3e-05  1.027304  0.0
H  H29  1  0.70601405  0.08164260  0.48282939  1  0.100126  0.102877  -5.3e-05  1.027398  0.0
H  H30  1  0.89781798  0.34416696  0.18040046  1  0.123162  0.133123  4.9e-05  0.960841  0.0
H  H31  1  0.10218254  0.84415981  0.81959802  1  0.123127  0.133074  4.8e-05  0.960632  0.0
H  H32  1  0.91338927  0.43905500  0.29855795  1  0.106964  0.098265  -1.7e-05  1.013689  0.0
H  H33  1  0.08661940  0.93906344  0.70143342  1  0.106969  0.098162  -1.7e-05  1.013673  0.0
C  C34  1  0.35042244  0.46603346  0.80492109  1  0.227294  0.660189  -0.00928  4.122153  -0.009
C  C35  1  0.64957799  0.96602640  0.19508178  1  0.227288  0.660172  -0.009277  4.12212  -0.009
C  C36  1  0.13238558  0.53095626  0.73515237  1  -0.159089  -0.36137  -0.00152  3.899713  -0.001
C  C37  1  0.86762288  0.03095193  0.26484692  1  -0.159042  -0.361188  -0.00152  3.899518  -0.001
C  C38  1  0.14345395  0.40393464  0.53862826  1  -0.027782  0.023654  -0.000149  4.051657  0.0
C  C39  1  0.85652056  0.90393737  0.46137390  1  -0.027831  0.023687  -0.000149  4.051965  0.0
C  C40  1  0.15245561  0.28646943  0.50083105  1  -0.094398  -0.103484  -0.000316  3.994641  0.0
C  C41  1  0.84752300  0.78647257  0.49916608  1  -0.094403  -0.103382  -0.000315  3.99465  0.0
C  C42  1  0.31223257  0.25597105  0.41665159  1  -0.106083  -0.185897  -0.000195  3.971681  0.0
C  C43  1  0.68775609  0.75596189  0.58334234  1  -0.106056  -0.185952  -0.000195  3.971592  0.0
C  C44  1  0.47148485  0.34204977  0.37084293  1  0.07885  0.245823  -0.000175  4.053937  0.0
C  C45  1  0.52853535  0.84205361  0.62916703  1  0.078918  0.245785  -0.000175  4.053831  0.0
C  C46  1  0.46443995  0.45940419  0.40828642  1  -0.108667  -0.208255  4.3e-05  4.017747  0.0
C  C47  1  0.53558640  0.95940408  0.59171656  1  -0.108738  -0.208254  4.3e-05  4.017922  0.0
C  C48  1  0.29829937  0.48954182  0.49046139  1  -0.095761  -0.115859  -0.000123  4.040399  0.0
C  C49  1  0.70169687  0.98953807  0.50954980  1  -0.095691  -0.115781  -0.000123  4.04094  0.0
C  C50  1  0.77762213  0.39213040  0.23758452  1  -0.068383  -0.146965  -0.001248  3.876583  -0.001
C  C51  1  0.22240038  0.89213143  0.76241192  1  -0.068317  -0.146779  -0.001249  3.876526  -0.001
C  C52  1  0.59822155  0.47973273  0.16970011  1  0.221991  0.604972  -0.007301  4.149419  -0.006
C  C53  1  0.40177282  0.97972993  0.83030596  1  0.221945  0.604845  -0.007303  4.14967  -0.006
S  S54  1  0.92237482  0.44198969  0.63968340  1  0.028007  0.034832  -0.000443  2.842061  -0.001
S  S55  1  0.07760183  0.94197500  0.36031256  1  0.028017  0.0348  -0.000443  2.842104  -0.001
O  O56  1  0.85388657  0.37245846  0.95449486  1  -0.577549  -0.760761  -0.042612  2.1235  -0.029
O  O57  1  0.14608993  0.87245190  0.04550709  1  -0.577481  -0.760639  -0.042616  2.123598  -0.029
O  O58  1  0.82997783  0.19148392  0.76144632  1  -0.570674  -0.754946  -0.041235  2.156629  -0.025
O  O59  1  0.17002066  0.69147231  0.23855320  1  -0.570766  -0.755094  -0.041236  2.156488  -0.025
O  O60  1  0.86261887  0.11761899  0.00652956  1  -0.573928  -0.766728  -0.043861  2.161764  -0.028
O  O61  1  0.13737959  0.61760834  0.99347095  1  -0.573901  -0.76665  -0.043857  2.161733  -0.028
O  O62  1  0.34528478  0.22403005  0.05440036  1  -0.555874  -0.761293  -0.041081  2.156574  -0.026
O  O63  1  0.65471365  0.72403541  0.94560193  1  -0.555806  -0.761247  -0.041079  2.156606  -0.026
O  O64  1  0.30855309  0.35924098  0.83486828  1  -0.312637  -0.592556  -0.041333  2.317237  -0.023
O  O65  1  0.69145728  0.85923268  0.16513567  1  -0.312635  -0.592536  -0.041332  2.317334  -0.023
O  O66  1  0.56212586  0.52339178  0.83258854  1  -0.299023  -0.545352  -0.003177  2.257747  -0.004
O  O67  1  0.43788656  0.02338757  0.16741166  1  -0.299005  -0.545474  -0.003176  2.257818  -0.004
O  O68  1  0.62661127  0.30370470  0.28965377  1  -0.180851  -0.188909  -0.000738  2.585251  -0.001
O  O69  1  0.37338324  0.80370684  0.71034577  1  -0.180869  -0.188874  -0.000738  2.585571  -0.001
O  O70  1  0.68723023  0.58561150  0.16130142  1  -0.306276  -0.571067  -0.038487  2.297689  -0.022
O  O71  1  0.31279233  0.08561274  0.83869228  1  -0.306298  -0.571013  -0.03849  2.297803  -0.022
O  O72  1  0.37654490  0.44386173  0.12582147  1  -0.294281  -0.534121  -0.00412  2.221727  -0.004
O  O73  1  0.62345162  0.94385748  0.87417775  1  -0.294248  -0.534073  -0.004121  2.221836  -0.004
