# generated using pymatgen
data_ZnH8C6(NCl)2
_symmetry_space_group_name_H-M   'P 1'
_cell_length_a   5.93362582
_cell_length_b   10.27125200
_cell_length_c   13.79753181
_cell_angle_alpha   89.99852792
_cell_angle_beta   89.99987175
_cell_angle_gamma   90.00026806
_symmetry_Int_Tables_number   1
_chemical_formula_structural   ZnH8C6(NCl)2
_chemical_formula_sum   'Zn4 H32 C24 N8 Cl8'
_cell_volume   840.90114617
_cell_formula_units_Z   4
loop_
 _symmetry_equiv_pos_site_id
 _symmetry_equiv_pos_as_xyz
  1  'x, y, z'
loop_
 _atom_site_type_symbol
 _atom_site_label
 _atom_site_symmetry_multiplicity
 _atom_site_fract_x
 _atom_site_fract_y
 _atom_site_fract_z
 _atom_site_occupancy
 _atom_site_hle17_bader_spin_density
 _atom_site_hle17_ddec_charge
 _atom_site_hle17_ddec_spin_density
 _atom_site_hle17_ddec_sum_bond_order
 _atom_site_hle17_magmom
 _atom_site_hse06_10hf_bader_spin_density
 _atom_site_hse06_10hf_ddec_charge
 _atom_site_hse06_10hf_ddec_spin_density
 _atom_site_hse06_10hf_ddec_sum_bond_order
 _atom_site_hse06_10hf_magmom
 _atom_site_hse06_bader_spin_density
 _atom_site_hse06_ddec_charge
 _atom_site_hse06_ddec_spin_density
 _atom_site_hse06_ddec_sum_bond_order
 _atom_site_hse06_magmom
 _atom_site_pbe_bader_spin_density
 _atom_site_pbe_cm5_charge
 _atom_site_pbe_ddec_charge
 _atom_site_pbe_ddec_spin_density
 _atom_site_pbe_ddec_sum_bond_order
 _atom_site_pbe_magmom
Zn  Zn0  1  0.60310665  0.25000139  0.50788090  1  0  0.846288  0  2.064029  0  0  0.671158  0  2.541409  0  0  0.712267  0  2.495706  0  0  0.557504  0.642435  0  2.573391  0
Zn  Zn1  1  0.89689663  0.74999526  0.00787714  1  0  0.84636  0  2.063988  0  0  0.671222  0  2.541487  0  0  0.712347  0  2.495778  0  0  0.557511  0.642481  0  2.573469  0
Zn  Zn2  1  0.39691451  0.75000764  0.49212126  1  0  0.846292  0  2.064097  0  0  0.671166  0  2.541523  0  0  0.712293  0  2.495817  0  0  0.55748  0.642425  0  2.573505  0
Zn  Zn3  1  0.10309419  0.24999333  0.99212212  1  0  0.84629  0  2.064066  0  0  0.671149  0  2.541511  0  0  0.712275  0  2.495809  0  0  0.557497  0.642414  0  2.573491  0
H  H4  1  0.91253991  0.37103923  0.64217027  1  0  0.097686  0  0.963294  0  0  0.102872  0  1.032135  0  0  0.105457  0  1.03066  0  0  0.112346  0.100917  0  1.033734  0
H  H5  1  0.58743239  0.62896347  0.14216117  1  0  0.097683  0  0.963127  0  0  0.102833  0  1.032058  0  0  0.105423  0  1.030574  0  0  0.112327  0.100878  0  1.033656  0
H  H6  1  0.08745700  0.87103474  0.35782379  1  0  0.097811  0  0.963004  0  0  0.102985  0  1.031861  0  0  0.105575  0  1.030381  0  0  0.112391  0.10103  0  1.033463  0
H  H7  1  0.41254896  0.12896796  0.85782807  1  0  0.097692  0  0.963186  0  0  0.102878  0  1.032017  0  0  0.105463  0  1.030543  0  0  0.112364  0.100924  0  1.033617  0
H  H8  1  0.08746776  0.62898441  0.35782681  1  0  0.09768  0  0.96284  0  0  0.102935  0  1.031641  0  0  0.105527  0  1.030159  0  0  0.112364  0.100974  0  1.033238  0
H  H9  1  0.41253146  0.37102804  0.85783229  1  0  0.097749  0  0.963026  0  0  0.102951  0  1.031877  0  0  0.10554  0  1.030398  0  0  0.112397  0.100995  0  1.033475  0
H  H10  1  0.91256078  0.12896066  0.64215953  1  0  0.097731  0  0.962991  0  0  0.102882  0  1.031917  0  0  0.105472  0  1.030434  0  0  0.112351  0.100926  0  1.033507  0
H  H11  1  0.58746545  0.87103328  0.14216467  1  0  0.097736  0  0.963086  0  0  0.102926  0  1.031921  0  0  0.105511  0  1.03045  0  0  0.112377  0.100971  0  1.033521  0
H  H12  1  0.81500504  0.35620179  0.29320298  1  0  0.130506  0  0.948624  0  0  0.150979  0  1.009837  0  0  0.15227  0  1.00958  0  0  0.092722  0.149781  0  1.01048  0
H  H13  1  0.68500700  0.64380346  0.79320278  1  0  0.130508  0  0.948601  0  0  0.151  0  1.009806  0  0  0.152291  0  1.009548  0  0  0.092726  0.1498  0  1.010448  0
H  H14  1  0.18501366  0.85618739  0.70679716  1  0  0.130488  0  0.948769  0  0  0.150969  0  1.009975  0  0  0.152259  0  1.009718  0  0  0.092741  0.149771  0  1.010617  0
H  H15  1  0.31499471  0.14380109  0.20679415  1  0  0.130567  0  0.948584  0  0  0.151026  0  1.009807  0  0  0.152317  0  1.009549  0  0  0.092734  0.149827  0  1.010451  0
H  H16  1  0.18502117  0.64379848  0.70680571  1  0  0.130536  0  0.948592  0  0  0.150985  0  1.009838  0  0  0.152275  0  1.009581  0  0  0.092731  0.149788  0  1.010478  0
H  H17  1  0.31497877  0.35618610  0.20680590  1  0  0.130483  0  0.948767  0  0  0.150964  0  1.009965  0  0  0.152255  0  1.00971  0  0  0.092739  0.149769  0  1.010604  0
H  H18  1  0.81500244  0.14381288  0.29320282  1  0  0.130533  0  0.948601  0  0  0.151003  0  1.00984  0  0  0.152294  0  1.009582  0  0  0.092731  0.1498  0  1.010486  0
H  H19  1  0.68499105  0.85619918  0.79319931  1  0  0.130527  0  0.948728  0  0  0.150986  0  1.009952  0  0  0.152277  0  1.009695  0  0  0.09273  0.149788  0  1.01059  0
H  H20  1  0.78964527  0.52679864  0.27299341  1  0  0.130187  0  0.963093  0  0  0.147797  0  1.027411  0  0  0.149311  0  1.027522  0  0  0.089905  0.1467  0  1.027307  0
H  H21  1  0.71037697  0.47320925  0.77299788  1  0  0.130235  0  0.963094  0  0  0.147824  0  1.02746  0  0  0.149339  0  1.027567  0  0  0.089953  0.146726  0  1.027355  0
H  H22  1  0.21037565  0.02677212  0.72699923  1  0  0.130176  0  0.963359  0  0  0.14785  0  1.027638  0  0  0.149364  0  1.027745  0  0  0.089951  0.146754  0  1.027534  0
H  H23  1  0.28964105  0.97320982  0.22699786  1  0  0.13022  0  0.963136  0  0  0.14782  0  1.02746  0  0  0.149333  0  1.02757  0  0  0.089952  0.146722  0  1.027358  0
H  H24  1  0.21036577  0.47320844  0.72700803  1  0  0.130185  0  0.963089  0  0  0.147783  0  1.027442  0  0  0.149298  0  1.027551  0  0  0.089925  0.146685  0  1.027339  0
H  H25  1  0.28962733  0.52678031  0.22700718  1  0  0.130203  0  0.963142  0  0  0.147829  0  1.027469  0  0  0.149344  0  1.027576  0  0  0.089941  0.146732  0  1.027365  0
H  H26  1  0.78962359  0.97321452  0.27299351  1  0  0.130313  0  0.963022  0  0  0.147917  0  1.027359  0  0  0.149433  0  1.027466  0  0  0.089972  0.146816  0  1.027258  0
H  H27  1  0.71035989  0.02678850  0.77298618  1  0  0.130234  0  0.963092  0  0  0.147878  0  1.027388  0  0  0.149393  0  1.027497  0  0  0.089933  0.14678  0  1.027283  0
H  H28  1  0.57646986  0.44015347  0.33815672  1  0  0.126679  0  0.980502  0  0  0.144864  0  1.045284  0  0  0.146119  0  1.045604  0  0  0.087637  0.143883  0  1.045122  0
H  H29  1  0.92352679  0.55984048  0.83815715  1  0  0.126678  0  0.980535  0  0  0.144877  0  1.045299  0  0  0.146132  0  1.045619  0  0  0.087631  0.143896  0  1.045136  0
H  H30  1  0.42354956  0.94013929  0.66184255  1  0  0.126658  0  0.980318  0  0  0.144866  0  1.045106  0  0  0.146121  0  1.045426  0  0  0.087647  0.143883  0  1.044948  0
H  H31  1  0.07645565  0.05984491  0.16183921  1  0  0.126622  0  0.980397  0  0  0.144811  0  1.045187  0  0  0.146065  0  1.045507  0  0  0.087625  0.143823  0  1.045032  0
H  H32  1  0.42353107  0.55984777  0.66184399  1  0  0.126609  0  0.980571  0  0  0.144816  0  1.045331  0  0  0.146071  0  1.045651  0  0  0.087614  0.143824  0  1.045179  0
H  H33  1  0.07644549  0.44014227  0.16184501  1  0  0.126654  0  0.980325  0  0  0.144864  0  1.045113  0  0  0.146118  0  1.045433  0  0  0.087636  0.143877  0  1.044958  0
H  H34  1  0.57646991  0.05985514  0.33815671  1  0  0.126662  0  0.980528  0  0  0.144896  0  1.045264  0  0  0.146152  0  1.045584  0  0  0.087639  0.14391  0  1.045107  0
H  H35  1  0.92351831  0.94015731  0.83814556  1  0  0.126675  0  0.9805  0  0  0.144915  0  1.04522  0  0  0.146173  0  1.045535  0  0  0.087657  0.143911  0  1.045078  0
C  C36  1  0.88016440  0.47510636  0.41702323  1  0  0.289859  0  3.689833  0  0  0.292687  0  3.939918  0  0  0.298384  0  3.959218  0  0  0.133992  0.288567  0  3.927104  0
C  C37  1  0.61984536  0.52490238  0.91702682  1  0  0.289652  0  3.689999  0  0  0.292636  0  3.93992  0  0  0.298333  0  3.959221  0  0  0.134074  0.288517  0  3.927104  0
C  C38  1  0.11984521  0.97510874  0.58298189  1  0  0.289778  0  3.68977  0  0  0.292489  0  3.939986  0  0  0.298172  0  3.959302  0  0  0.133886  0.28838  0  3.92716  0
C  C39  1  0.38017049  0.02489961  0.08297165  1  0  0.289795  0  3.689582  0  0  0.292346  0  3.939989  0  0  0.298039  0  3.959291  0  0  0.133938  0.288235  0  3.927173  0
C  C40  1  0.11985001  0.52491630  0.58298182  1  0  0.289668  0  3.690074  0  0  0.292473  0  3.940166  0  0  0.298168  0  3.959464  0  0  0.134037  0.28836  0  3.927352  0
C  C41  1  0.38014378  0.47509010  0.08297752  1  0  0.289894  0  3.689958  0  0  0.292451  0  3.940353  0  0  0.29814  0  3.959657  0  0  0.134052  0.288344  0  3.927534  0
C  C42  1  0.88014056  0.02492463  0.41704346  1  0  0.289787  0  3.689467  0  0  0.292467  0  3.939683  0  0  0.298152  0  3.958972  0  0  0.133978  0.288367  0  3.926881  0
C  C43  1  0.61984561  0.97510358  0.91701964  1  0  0.289732  0  3.689604  0  0  0.292388  0  3.939918  0  0  0.298081  0  3.959219  0  0  0.133996  0.288274  0  3.927101  0
C  C44  1  0.95294899  0.42898756  0.57822420  1  0  0.05008  0  3.617957  0  0  0.011717  0  3.870701  0  0  0.014373  0  3.887364  0  0  0.058045  0.009592  0  3.86046  0
C  C45  1  0.54702867  0.57101054  0.07821335  1  0  0.050115  0  3.617986  0  0  0.011828  0  3.870813  0  0  0.014485  0  3.887478  0  0  0.058094  0.009691  0  3.860598  0
C  C46  1  0.04704505  0.92897783  0.42177745  1  0  0.050019  0  3.617219  0  0  0.011692  0  3.869977  0  0  0.014348  0  3.88664  0  0  0.0581  0.009575  0  3.859717  0
C  C47  1  0.45295219  0.07102752  0.92177555  1  0  0.050051  0  3.618106  0  0  0.01175  0  3.870883  0  0  0.014406  0  3.887548  0  0  0.058057  0.009616  0  3.860666  0
C  C48  1  0.04703677  0.57102244  0.42179752  1  0  0.049906  0  3.618408  0  0  0.011468  0  3.871207  0  0  0.014111  0  3.887887  0  0  0.058029  0.009335  0  3.861011  0
C  C49  1  0.45295372  0.42897318  0.92178519  1  0  0.050231  0  3.617886  0  0  0.011756  0  3.870629  0  0  0.014409  0  3.887295  0  0  0.058098  0.009617  0  3.860433  0
C  C50  1  0.95297779  0.07100491  0.57820876  1  0  0.04996  0  3.618626  0  0  0.011612  0  3.871324  0  0  0.014241  0  3.887995  0  0  0.058111  0.009497  0  3.861134  0
C  C51  1  0.54704875  0.92898540  0.07820994  1  0  0.049894  0  3.618447  0  0  0.011629  0  3.871286  0  0  0.014277  0  3.88796  0  0  0.058053  0.009508  0  3.861035  0
C  C52  1  0.75802502  0.44866117  0.32517669  1  0  -0.392312  0  3.711607  0  0  -0.473832  0  3.941732  0  0  -0.477453  0  3.950813  0  0  -0.248535  -0.470712  0  3.935432  0
C  C53  1  0.74198180  0.55134005  0.82517964  1  0  -0.392366  0  3.711804  0  0  -0.473948  0  3.941919  0  0  -0.477567  0  3.950994  0  0  -0.248609  -0.470826  0  3.935614  0
C  C54  1  0.24199616  0.94864510  0.67483112  1  0  -0.392288  0  3.711592  0  0  -0.473901  0  3.941732  0  0  -0.477514  0  3.95081  0  0  -0.248605  -0.470784  0  3.935435  0
C  C55  1  0.25801742  0.05134546  0.17482412  1  0  -0.392373  0  3.711381  0  0  -0.473786  0  3.941582  0  0  -0.477401  0  3.950657  0  0  -0.248599  -0.470665  0  3.935294  0
C  C56  1  0.24198265  0.55134494  0.67482547  1  0  -0.392237  0  3.711943  0  0  -0.473746  0  3.94209  0  0  -0.477365  0  3.95117  0  0  -0.248548  -0.470619  0  3.935795  0
C  C57  1  0.25800902  0.44864464  0.17482832  1  0  -0.392345  0  3.711712  0  0  -0.473835  0  3.941884  0  0  -0.477453  0  3.950966  0  0  -0.248594  -0.470713  0  3.935587  0
C  C58  1  0.75801994  0.05134933  0.32518046  1  0  -0.392451  0  3.711565  0  0  -0.473992  0  3.941734  0  0  -0.477614  0  3.950813  0  0  -0.248606  -0.470863  0  3.935432  0
C  C59  1  0.74197845  0.94864994  0.82516571  1  0  -0.392402  0  3.711727  0  0  -0.473936  0  3.941861  0  0  -0.477558  0  3.950933  0  0  -0.248642  -0.470796  0  3.935582  0
N  N60  1  0.83482738  0.40460620  0.49741367  1  0  -0.305992  0  3.250978  0  0  -0.230879  0  3.51706  0  0  -0.245886  0  3.531704  0  0  -0.306111  -0.220651  0  3.508036  0
N  N61  1  0.66517694  0.59539683  0.99740934  1  0  -0.306007  0  3.251468  0  0  -0.230899  0  3.517444  0  0  -0.245912  0  3.532094  0  0  -0.306202  -0.220671  0  3.508421  0
N  N62  1  0.16517488  0.90460565  0.50259642  1  0  -0.306045  0  3.250897  0  0  -0.230822  0  3.51688  0  0  -0.245828  0  3.531526  0  0  -0.306123  -0.220597  0  3.507857  0
N  N63  1  0.33483109  0.09540355  0.00258126  1  0  -0.305861  0  3.251056  0  0  -0.230653  0  3.517204  0  0  -0.245662  0  3.531855  0  0  -0.306063  -0.220432  0  3.508181  0
N  N64  1  0.16516513  0.59540478  0.50259067  1  0  -0.305902  0  3.251794  0  0  -0.230755  0  3.517842  0  0  -0.245761  0  3.532496  0  0  -0.306171  -0.220538  0  3.508813  0
N  N65  1  0.33482568  0.40459955  0.00259282  1  0  -0.306232  0  3.251622  0  0  -0.230923  0  3.517665  0  0  -0.245931  0  3.532321  0  0  -0.306257  -0.220704  0  3.508637  0
N  N66  1  0.83482773  0.09539949  0.49741878  1  0  -0.305934  0  3.251839  0  0  -0.230689  0  3.517863  0  0  -0.245648  0  3.532457  0  0  -0.30616  -0.220528  0  3.508902  0
N  N67  1  0.66517490  0.90460840  0.99740785  1  0  -0.305979  0  3.251468  0  0  -0.230789  0  3.517527  0  0  -0.245796  0  3.532178  0  0  -0.306154  -0.220565  0  3.508504  0
Cl  Cl68  1  0.31385374  0.25000377  0.40592006  1  0  -0.543189  0  0.981411  0  0  -0.472652  0  1.252434  0  0  -0.490169  0  1.235201  0  0  -0.298515  -0.459884  0  1.264781  0
Cl  Cl69  1  0.18614357  0.75000214  0.90591567  1  0  -0.543157  0  0.981397  0  0  -0.472631  0  1.252436  0  0  -0.490151  0  1.235204  0  0  -0.298505  -0.459866  0  1.264788  0
Cl  Cl70  1  0.68615899  0.74999358  0.59408355  1  0  -0.54315  0  0.981478  0  0  -0.472646  0  1.252535  0  0  -0.490175  0  1.235311  0  0  -0.298508  -0.459877  0  1.264882  0
Cl  Cl71  1  0.81384893  0.24999813  0.09408504  1  0  -0.543178  0  0.981473  0  0  -0.472654  0  1.252505  0  0  -0.490182  0  1.23528  0  0  -0.29852  -0.459886  0  1.264852  0
Cl  Cl72  1  0.50805310  0.24999563  0.66504964  1  0  -0.556286  0  0.971841  0  0  -0.490711  0  1.259648  0  0  -0.50705  0  1.238569  0  0  -0.298976  -0.478463  0  1.274506  0
Cl  Cl73  1  0.99193595  0.75000044  0.16504796  1  0  -0.556304  0  0.971848  0  0  -0.490757  0  1.259682  0  0  -0.507095  0  1.238596  0  0  -0.298982  -0.478513  0  1.274545  0
Cl  Cl74  1  0.49194615  0.75000172  0.33495107  1  0  -0.556289  0  0.971919  0  0  -0.490713  0  1.259708  0  0  -0.507053  0  1.238625  0  0  -0.298972  -0.478467  0  1.27457  0
Cl  Cl75  1  0.00804813  0.25000080  0.83495420  1  0  -0.556278  0  0.9719  0  0  -0.490714  0  1.259732  0  0  -0.507049  0  1.238643  0  0  -0.298964  -0.478468  0  1.274596  0
