# generated using pymatgen
data_Zn4H10C28S2Br2Cl2O13
_symmetry_space_group_name_H-M   'P 1'
_cell_length_a   18.55602392
_cell_length_b   19.71211349
_cell_length_c   32.81047385
_cell_angle_alpha   86.02754993
_cell_angle_beta   73.59813614
_cell_angle_gamma   61.95536483
_symmetry_Int_Tables_number   1
_chemical_formula_structural   Zn4H10C28S2Br2Cl2O13
_chemical_formula_sum   'Zn16 H40 C112 S8 Br8 Cl8 O52'
_cell_volume   10132.52847994
_cell_formula_units_Z   4
loop_
 _symmetry_equiv_pos_site_id
 _symmetry_equiv_pos_as_xyz
  1  'x, y, z'
loop_
 _atom_site_type_symbol
 _atom_site_label
 _atom_site_symmetry_multiplicity
 _atom_site_fract_x
 _atom_site_fract_y
 _atom_site_fract_z
 _atom_site_occupancy
 _atom_site_pbe_bader_charge
 _atom_site_pbe_bader_spin_density
 _atom_site_pbe_cm5_charge
 _atom_site_pbe_ddec_charge
 _atom_site_pbe_ddec_spin_density
 _atom_site_pbe_ddec_sum_bond_order
 _atom_site_pbe_magmom
Zn  Zn0  1  0.87287609  0.55435612  0.51842614  1  1.30147  0  0.67137  0.963278  0  2.337485  0
Zn  Zn1  1  0.03772972  0.48530139  0.43907494  1  1.321678  0  0.674172  0.96271  0  2.427197  0
Zn  Zn2  1  0.04317000  0.39833571  0.52404829  1  1.318433  0  0.6733  0.969548  0  2.355819  0
Zn  Zn3  1  0.04623578  0.56099160  0.51798513  1  1.322262  0  0.672987  0.970127  0  2.350988  0
Zn  Zn4  1  0.62557270  0.19279123  0.73321223  1  1.316323  0  0.671826  0.962557  0  2.363626  0
Zn  Zn5  1  0.46397092  0.34947938  0.72512057  1  1.315332  0  0.670797  0.956603  0  2.38877  0
Zn  Zn6  1  0.45659988  0.26538313  0.81281361  1  1.31989  0  0.672896  0.969599  0  2.347395  0
Zn  Zn7  1  0.45494700  0.19153591  0.72897812  1  1.320767  0  0.673133  0.966163  0  2.374029  0
Zn  Zn8  1  0.46316120  0.76210412  0.31252867  1  1.300994  0  0.669916  0.952619  0  2.394754  0
Zn  Zn9  1  0.45267615  0.69222807  0.23196099  1  1.320769  0  0.673232  0.962026  0  2.404911  0
Zn  Zn10  1  0.62616972  0.69375749  0.22929291  1  1.318925  0  0.671714  0.966769  0  2.339681  0
Zn  Zn11  1  0.45676972  0.85208031  0.22645345  1  1.320188  0  0.673913  0.970598  0  2.352076  0
Zn  Zn12  1  0.03621892  0.90045020  0.02515922  1  1.314162  0  0.671907  0.958089  0  2.388242  0
Zn  Zn13  1  0.05124012  0.05580307  0.01830946  1  1.314938  0  0.671117  0.954719  0  2.389176  0
Zn  Zn14  1  0.87539796  0.05915318  0.01979169  1  1.313513  0  0.672514  0.964873  0  2.369722  0
Zn  Zn15  1  0.03823470  0.98447797  0.93731568  1  1.316492  0  0.672082  0.96417  0  2.358573  0
H  H16  1  0.81124648  0.24280058  0.65345100  1  0.128172  0  0.107992  0.127656  0  1.000105  0
H  H17  1  0.54411986  0.48577823  0.62043186  1  0.056453  0  0.099379  0.110954  0  0.977408  0
H  H18  1  0.54970623  0.52602368  0.66573998  1  0.075943  0  0.097496  0.108078  0  0.983878  0
H  H19  1  0.65028966  0.56963071  0.61738323  1  0.060108  0  0.097887  0.109706  0  0.982946  0
H  H20  1  0.64446656  0.52959208  0.57217742  1  0.036592  0  0.098177  0.108459  0  0.983107  0
H  H21  1  0.29336669  0.60214574  0.29609027  1  0.124283  0  0.10874  0.129532  0  0.997948  0
H  H22  1  0.35022187  0.67368254  0.43430213  1  0.05712  0  0.098062  0.107427  0  0.98302  0
H  H23  1  0.25963424  0.76206875  0.43164876  1  0.026544  0  0.096985  0.107539  0  0.98496  0
H  H24  1  0.16284740  0.71223411  0.47759547  1  0.068042  0  0.10007  0.113094  0  0.976747  0
H  H25  1  0.25330488  0.62380136  0.48007044  1  0.067057  0  0.098522  0.11056  0  0.983193  0
H  H26  1  0.81072062  0.60142287  0.29532548  1  0.112812  0  0.108374  0.128859  0  0.997266  0
H  H27  1  0.54743941  0.76237182  0.43001049  1  0.032329  0  0.097032  0.107774  0  0.984806  0
H  H28  1  0.54226955  0.67412521  0.43268159  1  0.028823  0  0.097367  0.106939  0  0.983287  0
H  H29  1  0.64196577  0.62450614  0.47907244  1  0.054468  0  0.098089  0.108494  0  0.981985  0
H  H30  1  0.64725503  0.71268724  0.47643023  1  0.030327  0  0.097486  0.109322  0  0.983547  0
H  H31  1  0.30745578  0.45616233  0.64630476  1  0.116267  0  0.107533  0.12821  0  1.000467  0
H  H32  1  0.33037512  0.17802185  0.62978370  1  0.059602  0  0.099636  0.111093  0  0.977989  0
H  H33  1  0.23973054  0.21882395  0.67519790  1  0.078184  0  0.098766  0.110388  0  0.982418  0
H  H34  1  0.14382088  0.27135137  0.62686166  1  0.078417  0  0.099274  0.112246  0  0.981354  0
H  H35  1  0.23441510  0.23052499  0.58154309  1  0.0666  0  0.1003  0.11324  0  0.976475  0
H  H36  1  0.69022791  0.14789508  0.95540360  1  0.121411  0  0.108997  0.129823  0  0.995924  0
H  H37  1  0.95539250  0.07748396  0.81688298  1  0.043019  0  0.100138  0.110606  0  0.978514  0
H  H38  1  0.95075589  0.98899044  0.81919109  1  0.049902  0  0.099757  0.11067  0  0.978002  0
H  H39  1  0.84935634  0.03951522  0.77365735  1  0.063003  0  0.097984  0.110051  0  0.983609  0
H  H40  1  0.85404404  0.12793350  0.77142302  1  0.070463  0  0.100442  0.113078  0  0.976363  0
H  H41  1  0.19346428  0.05174750  0.84468840  1  0.116286  0  0.108377  0.129282  0  0.998148  0
H  H42  1  0.16939681  0.21621894  0.97565771  1  0.072346  0  0.097437  0.107622  0  0.98523  0
H  H43  1  0.26046119  0.12793639  0.97784015  1  0.035065  0  0.098181  0.107401  0  0.981934  0
H  H44  1  0.35574485  0.17464806  0.92740809  1  0.07659  0  0.099068  0.111795  0  0.980977  0
H  H45  1  0.26484333  0.26296953  0.92527084  1  0.073952  0  0.100847  0.114096  0  0.975009  0
H  H46  1  0.19427284  0.79372465  0.10315024  1  0.124687  0  0.10829  0.128249  0  0.999249  0
H  H47  1  0.26032870  0.03224766  0.07478440  1  0.055806  0  0.097963  0.107931  0  0.982041  0
H  H48  1  0.16923968  0.07260488  0.12002986  1  0.054947  0  0.097467  0.108242  0  0.984538  0
H  H49  1  0.26474830  0.02062526  0.16853968  1  0.066124  0  0.100791  0.113882  0  0.975158  0
H  H50  1  0.35572845  0.98016557  0.12334866  1  0.036816  0  0.099556  0.112391  0  0.98071  0
H  H51  1  0.68866797  0.00698528  0.09665365  1  0.128826  0  0.109444  0.130311  0  0.995258  0
H  H52  1  0.95127060  0.72390932  0.08435599  1  0.063832  0  0.097189  0.107062  0  0.984995  0
H  H53  1  0.95543543  0.76467735  0.12992471  1  0.060967  0  0.100163  0.111739  0  0.976469  0
H  H54  1  0.85530848  0.72029222  0.17762099  1  0.041795  0  0.10131  0.113517  0  0.974547  0
H  H55  1  0.85111216  0.67934348  0.13221106  1  0.053774  0  0.10039  0.11238  0  0.976836  0
C  C56  1  0.86198602  0.56825988  0.43068592  1  1.552584  0  0.224098  0.615278  0  4.174147  0
C  C57  1  0.12404634  0.31612914  0.43868793  1  1.559783  0  0.215098  0.618624  0  4.214098  0
C  C58  1  0.86469999  0.42785851  0.56843108  1  1.597793  0  0.22629  0.62073  0  4.169295  0
C  C59  1  0.13920862  0.43307773  0.56839420  1  1.574834  0  0.225516  0.618413  0  4.168873  0
C  C60  1  0.87337118  0.68373554  0.56036334  1  1.583064  0  0.216788  0.623261  0  4.206535  0
C  C61  1  0.13741549  0.56949386  0.43078765  1  1.541689  0  0.226717  0.618563  0  4.171973  0
C  C62  1  0.63912600  0.31831406  0.68147979  1  1.564431  0  0.230276  0.612857  0  4.170649  0
C  C63  1  0.37687568  0.43473102  0.81022679  1  1.587573  0  0.215259  0.620176  0  4.211248  0
C  C64  1  0.63457320  0.18238356  0.82090892  1  1.558415  0  0.22617  0.618928  0  4.167398  0
C  C65  1  0.36098288  0.18083068  0.81761629  1  1.549831  0  0.227488  0.621351  0  4.167507  0
C  C66  1  0.62643036  0.06574345  0.68888768  1  1.572967  0  0.21692  0.623687  0  4.203224  0
C  C67  1  0.36346240  0.31823256  0.68040844  1  1.560016  0  0.229418  0.609241  0  4.171701  0
C  C68  1  0.36291086  0.68060585  0.31992754  1  1.56499  0  0.228717  0.607107  0  4.176326  0
C  C69  1  0.62255417  0.56632451  0.18870773  1  1.541474  0  0.215326  0.620923  0  4.209679  0
C  C70  1  0.63863154  0.68051201  0.31842923  1  1.578365  0  0.228467  0.609494  0  4.174333  0
C  C71  1  0.63533664  0.82069028  0.18039436  1  1.572245  0  0.225826  0.619485  0  4.169911  0
C  C72  1  0.37621528  0.93252613  0.31234630  1  1.601129  0  0.215081  0.620975  0  4.212511  0
C  C73  1  0.36069926  0.81826842  0.18155080  1  1.564733  0  0.226417  0.619008  0  4.168351  0
C  C74  1  0.13871247  0.93119818  0.06874785  1  1.543002  0  0.228401  0.609899  0  4.171925  0
C  C75  1  0.88059299  0.18375937  0.06109635  1  1.550188  0  0.216899  0.623184  0  4.208467  0
C  C76  1  0.86102674  0.93214140  0.06924204  1  1.582187  0  0.230146  0.612281  0  4.169297  0
C  C77  1  0.86225468  0.06901707  0.93127573  1  1.554381  0  0.229999  0.612094  0  4.169609  0
C  C78  1  0.12170996  0.81529318  0.93999036  1  1.574336  0  0.216867  0.622463  0  4.209719  0
C  C79  1  0.13886133  0.06803512  0.93071969  1  1.555529  0  0.229641  0.611818  0  4.169819  0
C  C80  1  0.73509741  0.80400221  0.60087688  1  -0.016032  0  -0.023644  0.061157  0  3.993348  0
C  C81  1  0.76447533  0.94511604  0.64874653  1  -0.036097  0  -0.02276  0.063902  0  3.996283  0
C  C82  1  0.82276878  0.75845552  0.58558689  1  -0.108201  0  -0.027878  -0.16756  0  3.932733  0
C  C83  1  0.67679540  0.99085122  0.66393255  1  -0.098641  0  -0.028878  -0.17083  0  3.936785  0
C  C84  1  0.78582534  0.87711588  0.62567340  1  -0.118554  0  -0.030647  -0.064009  0  4.099875  0
C  C85  1  0.71366499  0.87216435  0.62385103  1  -0.158377  0  -0.028123  -0.057515  0  4.094288  0
C  C86  1  0.20205285  0.22662794  0.36911297  1  0.053931  0  -0.022225  0.062498  0  3.992466  0
C  C87  1  0.29794234  0.02232989  0.38190282  1  -0.018476  0  -0.023193  0.062263  0  3.99365  0
C  C88  1  0.17324058  0.24204954  0.41312802  1  -0.126974  0  -0.027555  -0.166879  0  3.936546  0
C  C89  1  0.32696733  0.00670102  0.33791762  1  -0.161913  0  -0.029454  -0.17116  0  3.939915  0
C  C90  1  0.25240463  0.10243092  0.39333294  1  -0.094569  0  -0.02891  -0.05873  0  4.099851  0
C  C91  1  0.24759555  0.14647404  0.35771116  1  -0.172731  0  -0.029514  -0.062278  0  4.099432  0
C  C92  1  0.69616095  0.34612198  0.65289426  1  -0.000634  0  -0.011463  -0.060113  0  3.987992  0
C  C93  1  0.81054475  0.39711335  0.59727228  1  0.017878  0  -0.01471  -0.138708  0  3.919681  0
C  C94  1  0.66613573  0.41810614  0.63631215  1  -0.005949  0  -0.005271  0.056919  0  3.888602  0
C  C95  1  0.84069995  0.32367496  0.61448232  1  0.038896  0  0.022601  0.13913  0  3.997417  0
C  C96  1  0.72184568  0.44195585  0.60957973  1  -0.013225  0  0.000265  0.078263  0  3.879227  0
C  C97  1  0.78499003  0.29957005  0.64123974  1  0.01459  0  -0.089533  -0.169819  0  3.960666  0
C  C98  1  0.58731362  0.49220672  0.63498594  1  -0.048767  0  -0.149848  -0.198078  0  3.882703  0
C  C99  1  0.65021106  0.51951871  0.60472670  1  0.00346  0  -0.150408  -0.197257  0  3.877536  0
C  C100  1  0.30577945  0.65265006  0.34814286  1  -0.008155  0  -0.010021  -0.056051  0  3.988107  0
C  C101  1  0.19417521  0.59662005  0.40118361  1  0.036759  0  -0.014842  -0.138745  0  3.923204  0
C  C102  1  0.27984024  0.66430946  0.39238644  1  -0.024369  0  -0.005471  0.056349  0  3.89053  0
C  C103  1  0.22080684  0.58509221  0.35586449  1  0.070198  0  0.023813  0.14084  0  3.996835  0
C  C104  1  0.22611250  0.63699309  0.41757034  1  0.008004  0  -0.000164  0.077182  0  3.884454  0
C  C105  1  0.27476800  0.61237464  0.33057169  1  0.007102  0  -0.088172  -0.169179  0  3.95806  0
C  C106  1  0.28608455  0.69906735  0.43016718  1  0.008138  0  -0.151064  -0.198586  0  3.885532  0
C  C107  1  0.22540369  0.66795547  0.45885120  1  -0.033961  0  -0.149828  -0.198155  0  3.874763  0
C  C108  1  0.69517286  0.65241135  0.34689796  1  0.04111  0  -0.009675  -0.056473  0  3.985828  0
C  C109  1  0.80838820  0.59593209  0.40073116  1  0.06865  0  -0.014415  -0.136675  0  3.922526  0
C  C110  1  0.66448679  0.66418515  0.39116124  1  -0.00042  0  -0.005004  0.058018  0  3.886435  0
C  C111  1  0.83935023  0.58435623  0.35543244  1  0.020328  0  0.024194  0.141335  0  3.995963  0
C  C112  1  0.71969569  0.63667043  0.41669751  1  -0.062467  0  -0.000923  0.075093  0  3.882879  0
C  C113  1  0.78403352  0.61186565  0.32977675  1  0.011749  0  -0.08932  -0.171084  0  3.962397  0
C  C114  1  0.58529007  0.69936691  0.42867377  1  0.012886  0  -0.15145  -0.199191  0  3.884613  0
C  C115  1  0.64767570  0.66829729  0.45774357  1  0.019092  0  -0.149614  -0.195912  0  3.874593  0
C  C116  1  0.30608187  0.34727422  0.65236984  1  -0.03229  0  -0.010296  -0.055835  0  3.982035  0
C  C117  1  0.19579006  0.40704984  0.59698009  1  0.002122  0  -0.014055  -0.137509  0  3.917002  0
C  C118  1  0.27262710  0.30488145  0.63966828  1  0.022643  0  -0.004243  0.058542  0  3.887494  0
C  C119  1  0.22995220  0.45016562  0.61031584  1  0.050494  0  0.023264  0.14206  0  3.997019  0
C  C120  1  0.21965438  0.33422469  0.61297591  1  -0.024453  0  0.000666  0.076836  0  3.874863  0
C  C121  1  0.28308511  0.42084380  0.63701496  1  0.04631  0  -0.091099  -0.175476  0  3.963579  0
C  C122  1  0.26913410  0.22945335  0.64301965  1  -0.047314  0  -0.150683  -0.200604  0  3.885745  0
C  C123  1  0.20910897  0.26237057  0.61279749  1  -0.029637  0  -0.148235  -0.197252  0  3.874715  0
C  C124  1  0.29789470  0.58410200  0.82076213  1  0.025348  0  -0.022688  0.061861  0  3.993311  0
C  C125  1  0.20160112  0.66593033  0.92951494  1  0.033705  0  -0.022317  0.062382  0  3.99461  0
C  C126  1  0.32740330  0.51007609  0.83469158  1  -0.131801  0  -0.027941  -0.168105  0  3.934311  0
C  C127  1  0.17177623  0.73995093  0.91558252  1  -0.105043  0  -0.029874  -0.170968  0  3.93798  0
C  C128  1  0.24752146  0.60904705  0.89499641  1  -0.189426  0  -0.02865  -0.059107  0  4.09617  0
C  C129  1  0.25190471  0.64095822  0.85529202  1  -0.158829  0  -0.029308  -0.060948  0  4.099626  0
C  C130  1  0.80484094  0.09732706  0.90319648  1  -0.023481  0  -0.01102  -0.05882  0  3.981939  0
C  C131  1  0.68917716  0.15478624  0.85047720  1  -0.001598  0  -0.013379  -0.136304  0  3.916326  0
C  C132  1  0.83417072  0.08625013  0.85891166  1  -0.026146  0  -0.005005  0.05575  0  3.886699  0
C  C133  1  0.65969403  0.16560874  0.89578767  1  0.068609  0  0.022941  0.13943  0  3.999578  0
C  C134  1  0.77788869  0.11426300  0.83389358  1  0.004116  0  0.000104  0.077859  0  3.875194  0
C  C135  1  0.71601129  0.13779820  0.92091242  1  0.044974  0  -0.08919  -0.170848  0  3.957323  0
C  C136  1  0.91260191  0.05199204  0.82097157  1  -0.015461  0  -0.149697  -0.197628  0  3.886039  0
C  C137  1  0.84913515  0.08359021  0.79249825  1  -0.011251  0  -0.149564  -0.198759  0  3.877491  0
C  C138  1  0.19482748  0.09696162  0.90216444  1  0.007716  0  -0.010936  -0.05723  0  3.985389  0
C  C139  1  0.30401732  0.15130652  0.84475806  1  0.027106  0  -0.014854  -0.139474  0  3.919204  0
C  C140  1  0.22745978  0.13794828  0.91708690  1  0.0177  0  -0.004621  0.055923  0  3.88753  0
C  C141  1  0.27014284  0.10956915  0.82975877  1  0.051604  0  0.023275  0.141155  0  3.996364  0
C  C142  1  0.27992326  0.16382091  0.88913904  1  -0.037568  0  0.000892  0.079334  0  3.878199  0
C  C143  1  0.21756272  0.08356747  0.85772682  1  -0.014106  0  -0.089982  -0.173506  0  3.962839  0
C  C144  1  0.23072932  0.17084768  0.95649637  1  -0.010712  0  -0.150008  -0.195894  0  3.883013  0
C  C145  1  0.29040203  0.20011819  0.92493931  1  -0.03978  0  -0.149222  -0.198807  0  3.871045  0
C  C146  1  0.64355430  0.44662388  0.14876451  1  -0.030043  0  -0.022689  0.061859  0  3.994953  0
C  C147  1  0.86063963  0.30327470  0.10092418  1  -0.048407  0  -0.023286  0.062556  0  3.993427  0
C  C148  1  0.67164880  0.49155911  0.16370159  1  -0.063092  0  -0.027754  -0.168261  0  3.935346  0
C  C149  1  0.83225354  0.25850922  0.08605769  1  -0.071481  0  -0.028904  -0.172023  0  3.939109  0
C  C150  1  0.79199691  0.37194020  0.12383605  1  -0.143731  0  -0.029548  -0.060814  0  4.096411  0
C  C151  1  0.71245263  0.37803277  0.12594858  1  -0.131738  0  -0.028422  -0.059698  0  4.099711  0
C  C152  1  0.19538091  0.90268119  0.09707067  1  0.025188  0  -0.009315  -0.055842  0  3.98696  0
C  C153  1  0.30456152  0.84393443  0.15284816  1  0.044817  0  -0.013689  -0.136618  0  3.918858  0
C  C154  1  0.22806362  0.94562229  0.10995954  1  -0.04678  0  -0.00436  0.057726  0  3.889072  0
C  C155  1  0.27110275  0.80024996  0.13940245  1  0.055904  0  0.024093  0.141723  0  3.998987  0
C  C156  1  0.28055227  0.91671745  0.13685044  1  0.018295  0  -0.000156  0.076056  0  3.878369  0
C  C157  1  0.21838182  0.82922784  0.11249455  1  -0.002281  0  -0.09002  -0.171701  0  3.962532  0
C  C158  1  0.23079107  0.02141481  0.10686752  1  -0.031239  0  -0.150572  -0.199161  0  3.886873  0
C  C159  1  0.29051465  0.98882959  0.13724058  1  0.019384  0  -0.148838  -0.19716  0  3.871044  0
C  C160  1  0.80395549  0.90371135  0.09715669  1  -0.014838  0  -0.010306  -0.057434  0  3.98482  0
C  C161  1  0.68958005  0.85168042  0.15186840  1  0.027504  0  -0.013737  -0.13706  0  3.91489  0
C  C162  1  0.83397835  0.83145648  0.11345670  1  -0.029557  0  -0.005449  0.055197  0  3.889385  0
C  C163  1  0.65940501  0.92539873  0.13493994  1  0.057843  0  0.024148  0.140221  0  3.994939  0
C  C164  1  0.77834464  0.80708986  0.13977891  1  -0.005362  0  -0.000104  0.076838  0  3.877872  0
C  C165  1  0.71508523  0.95000449  0.10860245  1  0.047499  0  -0.090052  -0.171467  0  3.957632  0
C  C166  1  0.91293896  0.75769757  0.11506828  1  -0.038791  0  -0.149368  -0.197487  0  3.883598  0
C  C167  1  0.85021180  0.72989192  0.14494916  1  0.003629  0  -0.149181  -0.197248  0  3.873738  0
S  S168  1  0.87928204  0.79898843  0.59934947  1  0.323187  0  0.092726  0.154348  0  2.785165  0
S  S169  1  0.62022278  0.95047491  0.65003524  1  0.309669  0  0.091733  0.152595  0  2.783605  0
S  S170  1  0.20163520  0.15860378  0.44060159  1  0.306867  0  0.090553  0.150639  0  2.783885  0
S  S171  1  0.29849925  0.09019300  0.31046750  1  0.314671  0  0.0942  0.156672  0  2.78256  0
S  S172  1  0.29904522  0.51001654  0.89014048  1  0.332458  0  0.093409  0.154657  0  2.781297  0
S  S173  1  0.20005916  0.73997350  0.86012251  1  0.33691  0  0.091713  0.153079  0  2.782639  0
S  S174  1  0.78253307  0.44993261  0.14968025  1  0.309812  0  0.090331  0.150672  0  2.775739  0
S  S175  1  0.72140172  0.30038341  0.10015464  1  0.307307  0  0.095438  0.158842  0  2.782093  0
Br  Br176  1  0.65039228  0.78298740  0.59368569  1  0.000425  0  0.043821  -0.015643  0  1.395998  0
Br  Br177  1  0.84929304  0.96582660  0.65594657  1  0.010089  0  0.046664  -0.009817  0  1.391636  0
Br  Br178  1  0.18649974  0.29821735  0.32738489  1  0.016783  0  0.051479  -0.002459  0  1.412468  0
Br  Br179  1  0.31324888  0.95084663  0.42379585  1  0.004649  0  0.044731  -0.014317  0  1.401337  0
Br  Br180  1  0.31317260  0.61170072  0.76418841  1  0.007708  0  0.046877  -0.009289  0  1.393985  0
Br  Br181  1  0.18669345  0.63833909  0.98606404  1  0.010779  0  0.048976  -0.006905  0  1.394663  0
Br  Br182  1  0.53058649  0.46847810  0.15583301  1  0.021307  0  0.052331  -0.001292  0  1.401824  0
Br  Br183  1  0.97407607  0.28086645  0.09327355  1  0.006682  0  0.046034  -0.012492  0  1.399331  0
Cl  Cl184  1  0.94780394  0.25777558  0.60397317  1  -0.184541  0  -0.021661  -0.083487  0  1.484437  0
Cl  Cl185  1  0.18910442  0.53752836  0.32805004  1  -0.181309  0  -0.01911  -0.078694  0  1.49976  0
Cl  Cl186  1  0.94652846  0.53578706  0.32805319  1  -0.183973  0  -0.019041  -0.07879  0  1.501766  0
Cl  Cl187  1  0.20936596  0.54192833  0.59492298  1  -0.195714  0  -0.023806  -0.086317  0  1.4828  0
Cl  Cl188  1  0.55275721  0.21389943  0.92377434  1  -0.193011  0  -0.020625  -0.082015  0  1.481359  0
Cl  Cl189  1  0.29007349  0.08758978  0.77617541  1  -0.188461  0  -0.021513  -0.083212  0  1.482369  0
Cl  Cl190  1  0.29183473  0.70854838  0.15479170  1  -0.188018  0  -0.020591  -0.080395  0  1.490865  0
Cl  Cl191  1  0.55227255  0.99106350  0.14523452  1  -0.195677  0  -0.020681  -0.082377  0  1.484057  0
O  O192  1  0.99820970  0.50053662  0.50138736  1  -1.223864  0  -0.57124  -1.029153  0  2.525864  0
O  O193  1  0.82194072  0.58225539  0.47048797  1  -1.156515  0  -0.309468  -0.538016  0  2.312694  0
O  O194  1  0.10172432  0.37670081  0.41845467  1  -1.156243  0  -0.311926  -0.530776  0  2.392759  0
O  O195  1  0.94504995  0.38682464  0.55893951  1  -1.18135  0  -0.314188  -0.54806  0  2.424148  0
O  O196  1  0.94228182  0.53323314  0.41483761  1  -1.153069  0  -0.312751  -0.541401  0  2.441427  0
O  O197  1  0.82418668  0.49452508  0.55559431  1  -1.169763  0  -0.31043  -0.53884  0  2.318482  0
O  O198  1  0.10818015  0.31263045  0.47919860  1  -1.144515  0  -0.3191  -0.544663  0  2.320443  0
O  O199  1  0.11704776  0.38437704  0.55989528  1  -1.156347  0  -0.308314  -0.534623  0  2.322965  0
O  O200  1  0.95424616  0.65752114  0.55051188  1  -1.147914  0  -0.319096  -0.543232  0  2.328728  0
O  O201  1  0.11759825  0.49980501  0.55475693  1  -1.178473  0  -0.31493  -0.550046  0  2.419687  0
O  O202  1  0.83336769  0.65247895  0.55077650  1  -1.169557  0  -0.313878  -0.539819  0  2.36983  0
O  O203  1  0.11296750  0.52988425  0.41484574  1  -1.160222  0  -0.31269  -0.540821  0  2.437429  0
O  O204  1  0.11795380  0.58845784  0.47050322  1  -1.149588  0  -0.309431  -0.538878  0  2.314428  0
O  O205  1  0.50049858  0.24963442  0.75022582  1  -1.231943  0  -0.570854  -1.028273  0  2.527527  0
O  O206  1  0.67429673  0.25227509  0.69568865  1  -1.17565  0  -0.313708  -0.543609  0  2.334406  0
O  O207  1  0.39944425  0.43462193  0.76980673  1  -1.174733  0  -0.314117  -0.537476  0  2.383139  0
O  O208  1  0.55417839  0.21808322  0.83660174  1  -1.158348  0  -0.314786  -0.550282  0  2.4185  0
O  O209  1  0.55927438  0.36377806  0.68924868  1  -1.159973  0  -0.308277  -0.533932  0  2.326135  0
O  O210  1  0.67492943  0.16705123  0.78116174  1  -1.161064  0  -0.309492  -0.535968  0  2.326814  0
O  O211  1  0.39247835  0.37586191  0.83233584  1  -1.16688  0  -0.317872  -0.542383  0  2.322418  0
O  O212  1  0.38146177  0.21963040  0.83760422  1  -1.155332  0  -0.309566  -0.537582  0  2.318664  0
O  O213  1  0.54550555  0.09438184  0.69677935  1  -1.150179  0  -0.319138  -0.542467  0  2.328206  0
O  O214  1  0.38493460  0.16561983  0.77757056  1  -1.158271  0  -0.314459  -0.548052  0  2.427777  0
O  O215  1  0.66642555  0.09518861  0.70030476  1  -1.16552  0  -0.314477  -0.540941  0  2.370046  0
O  O216  1  0.38935150  0.36310910  0.68977480  1  -1.167602  0  -0.314109  -0.541502  0  2.34228  0
O  O217  1  0.38193437  0.25049377  0.69254923  1  -1.162691  0  -0.307191  -0.533601  0  2.321971  0
O  O218  1  0.50108737  0.75055705  0.25004998  1  -1.221817  0  -0.57109  -1.028048  0  2.529361  0
O  O219  1  0.38872567  0.71623432  0.33843048  1  -1.173698  0  -0.307906  -0.533712  0  2.328311  0
O  O220  1  0.54182252  0.59523636  0.19970827  1  -1.134465  0  -0.312425  -0.533228  0  2.38644  0
O  O221  1  0.67398118  0.66795543  0.27832571  1  -1.17996  0  -0.312996  -0.543407  0  2.328164  0
O  O222  1  0.38113472  0.66674121  0.27986964  1  -1.179954  0  -0.311888  -0.536684  0  2.343788  0
O  O223  1  0.55881516  0.71505289  0.33722318  1  -1.166948  0  -0.309013  -0.534014  0  2.334642  0
O  O224  1  0.66621078  0.59533897  0.19711995  1  -1.163438  0  -0.319168  -0.546521  0  2.318225  0
O  O225  1  0.67559446  0.75265807  0.19183568  1  -1.165083  0  -0.309578  -0.538098  0  2.316899  0
O  O226  1  0.39241933  0.93648043  0.27186364  1  -1.165601  0  -0.317655  -0.541489  0  2.322958  0
O  O227  1  0.55506925  0.86284557  0.19111100  1  -1.178976  0  -0.31472  -0.549845  0  2.426217  0
O  O228  1  0.39801413  0.87175184  0.33244861  1  -1.173433  0  -0.315063  -0.53908  0  2.38836  0
O  O229  1  0.38271447  0.75125663  0.19478069  1  -1.173301  0  -0.314095  -0.545525  0  2.434252  0
O  O230  1  0.38233200  0.86702261  0.19059370  1  -1.157979  0  -0.309066  -0.537459  0  2.316771  0
O  O231  1  0.00022576  0.00018572  0.99983027  1  -1.228167  0  -0.571063  -1.028021  0  2.533455  0
O  O232  1  0.11071654  0.88729278  0.06045045  1  -1.179136  0  -0.313582  -0.541669  0  2.340678  0
O  O233  1  0.96144303  0.15310006  0.05064555  1  -1.142009  0  -0.315319  -0.540518  0  2.386779  0
O  O234  1  0.82597313  0.99945566  0.05635827  1  -1.179861  0  -0.312749  -0.541449  0  2.332817  0
O  O235  1  0.12293957  0.99770525  0.05528053  1  -1.163862  0  -0.308454  -0.534717  0  2.329407  0
O  O236  1  0.94084517  0.88604301  0.06066728  1  -1.169697  0  -0.308372  -0.535556  0  2.327725  0
O  O237  1  0.83586113  0.15640311  0.05220639  1  -1.167999  0  -0.319561  -0.543087  0  2.324036  0
O  O238  1  0.82713161  0.08468457  0.97128729  1  -1.166443  0  -0.313061  -0.541396  0  2.336606  0
O  O239  1  0.10312694  0.87417528  0.91780043  1  -1.170691  0  -0.319567  -0.54463  0  2.325096  0
O  O240  1  0.94198741  0.03140693  0.91259243  1  -1.158502  0  -0.308713  -0.537585  0  2.320351  0
O  O241  1  0.10149356  0.81547404  0.98042812  1  -1.175062  0  -0.314946  -0.538516  0  2.38324  0
O  O242  1  0.12253111  0.08218832  0.97062380  1  -1.144566  0  -0.308056  -0.533098  0  2.330319  0
O  O243  1  0.11221973  0.03195223  0.91318010  1  -1.172302  0  -0.313708  -0.544466  0  2.330445  0
