# generated using pymatgen
data_ZnH16C26N3O4
_symmetry_space_group_name_H-M   'P 1'
_cell_length_a   18.28535507
_cell_length_b   19.26381865
_cell_length_c   19.67610838
_cell_angle_alpha   90.25034002
_cell_angle_beta   90.00005874
_cell_angle_gamma   89.93329519
_symmetry_Int_Tables_number   1
_chemical_formula_structural   ZnH16C26N3O4
_chemical_formula_sum   'Zn2 H32 C52 N6 O8'
_cell_volume   6930.75497871
_cell_formula_units_Z   2
loop_
 _symmetry_equiv_pos_site_id
 _symmetry_equiv_pos_as_xyz
  1  'x, y, z'
loop_
 _atom_site_type_symbol
 _atom_site_label
 _atom_site_symmetry_multiplicity
 _atom_site_fract_x
 _atom_site_fract_y
 _atom_site_fract_z
 _atom_site_occupancy
 _atom_site_pbe_bader_charge
 _atom_site_pbe_bader_spin_density
 _atom_site_pbe_cm5_charge
 _atom_site_pbe_ddec_charge
 _atom_site_pbe_ddec_spin_density
 _atom_site_pbe_ddec_sum_bond_order
 _atom_site_pbe_magmom
Zn  Zn0  1  0.57665125  0.50001534  0.50075776  1  1.288178  0  0.66306  0.816146  0  2.429885  0
Zn  Zn1  1  0.42335581  0.50011623  0.50073705  1  1.269702  0  0.662922  0.81599  0  2.430187  0
H  H2  1  0.61718319  0.27845106  0.48609652  1  0.111518  0  0.104097  0.108551  0  1.001519  0
H  H3  1  0.61723486  0.50138086  0.28343837  1  0.117902  0  0.10158  0.104925  0  1.005109  0
H  H4  1  0.38280021  0.49782279  0.28340106  1  0.118109  0  0.101582  0.104767  0  1.005007  0
H  H5  1  0.61719330  0.50213003  0.71773935  1  0.082384  0  0.101354  0.104213  0  1.005093  0
H  H6  1  0.38220307  0.49850463  0.84449910  1  0.054475  0  0.09852  0.097373  0  1.006435  0
H  H7  1  0.61779204  0.50151979  0.15663273  1  0.089079  0  0.098638  0.097547  0  1.005775  0
H  H8  1  0.38229809  0.49793009  0.15658722  1  0.088741  0  0.098594  0.097357  0  1.005625  0
H  H9  1  0.61769488  0.50201184  0.84455927  1  0.055427  0  0.098546  0.097298  0  1.006603  0
H  H10  1  0.58175018  0.58046057  0.93826932  1  0.057513  0  0.100381  0.100009  0  1.001999  0
H  H11  1  0.41826575  0.41949589  0.06287770  1  0.051591  0  0.100415  0.099705  0  1.002489  0
H  H12  1  0.58178307  0.58011725  0.06396760  1  0.062936  0  0.100651  0.100067  0  1.000568  0
H  H13  1  0.38282091  0.72138920  0.48661828  1  0.114012  0  0.10409  0.108954  0  1.000206  0
H  H14  1  0.41823120  0.41985684  0.93717232  1  0.053195  0  0.100429  0.099925  0  1.001479  0
H  H15  1  0.69334919  0.57585355  0.57499535  1  0.120864  0  0.130866  0.105925  0  0.965598  0
H  H16  1  0.30711833  0.42434798  0.42564115  1  0.128245  0  0.130614  0.106182  0  0.966921  0
H  H17  1  0.69305840  0.42435440  0.42564143  1  0.127893  0  0.130902  0.106115  0  0.966185  0
H  H18  1  0.30647340  0.57585434  0.57497827  1  0.122182  0  0.131069  0.106152  0  0.96532  0
H  H19  1  0.93269049  0.38919661  0.48438866  1  0.049301  0  0.108021  0.107732  0  0.993372  0
H  H20  1  0.06730354  0.61088059  0.51534457  1  0.048365  0  0.107901  0.107202  0  0.993914  0
H  H21  1  0.93249113  0.61092317  0.51531804  1  0.047146  0  0.107916  0.107128  0  0.993537  0
H  H22  1  0.06751111  0.38915506  0.48441417  1  0.100472  0  0.107932  0.107311  0  0.993648  0
H  H23  1  0.83026389  0.57887216  0.57859132  1  0.062488  0  0.112793  0.118046  0  0.993117  0
H  H24  1  0.61722502  0.72123561  0.48663934  1  0.111782  0  0.104127  0.109035  0  0.999908  0
H  H25  1  0.17019987  0.42127358  0.42137171  1  0.069721  0  0.11285  0.118753  0  0.99247  0
H  H26  1  0.82996896  0.42127517  0.42133668  1  0.067505  0  0.112959  0.118366  0  0.992688  0
H  H27  1  0.16957274  0.57888402  0.57861718  1  0.061973  0  0.112869  0.118237  0  0.993055  0
H  H28  1  0.38278072  0.27860219  0.48611409  1  0.113143  0  0.103856  0.107887  0  1.001705  0
H  H29  1  0.61771298  0.14958269  0.46663569  1  0.080139  0  0.103806  0.102127  0  1.016014  0
H  H30  1  0.38229567  0.85004260  0.46697898  1  0.121292  0  0.104286  0.102467  0  1.015718  0
H  H31  1  0.61765192  0.84987495  0.46699142  1  0.076178  0  0.10416  0.102371  0  1.016092  0
H  H32  1  0.38235126  0.14974837  0.46665476  1  0.077226  0  0.103913  0.102098  0  1.016447  0
H  H33  1  0.38277115  0.49869545  0.71768793  1  0.078678  0  0.101253  0.104017  0  1.005025  0
C  C34  1  0.50002791  0.49909091  0.36724980  1  1.544092  0  0.212205  0.590594  0  4.173587  0
C  C35  1  0.45330924  0.45596075  0.96491900  1  -0.108247  0  -0.092969  -0.130035  0  4.004691  0
C  C36  1  0.50002376  0.49977818  0.07267984  1  -0.046951  0  -0.010671  0.062656  0  4.01673  0
C  C37  1  0.49996645  0.50020371  0.92846365  1  -0.009269  0  -0.010009  0.064546  0  4.013904  0
C  C38  1  0.72637216  0.54273965  0.54193533  1  0.422541  0  0.061886  0.107158  0  3.926694  0
C  C39  1  0.27388048  0.45741838  0.45854356  1  0.41772  0  0.061601  0.106665  0  3.925048  0
C  C40  1  0.72622452  0.45741866  0.45854522  1  0.420466  0  0.061505  0.106486  0  3.924183  0
C  C41  1  0.27352935  0.54275050  0.54192299  1  0.424702  0  0.061913  0.10713  0  3.926007  0
C  C42  1  0.80227067  0.54435100  0.54313956  1  0.024007  0  -0.080324  -0.180337  0  3.955463  0
C  C43  1  0.19797105  0.45579897  0.45696323  1  0.024755  0  -0.080348  -0.180856  0  3.95406  0
C  C44  1  0.80213223  0.45581267  0.45692924  1  0.038142  0  -0.079838  -0.179597  0  3.953478  0
C  C45  1  0.49999341  0.50098376  0.63385617  1  1.591982  0  0.213178  0.592834  0  4.170776  0
C  C46  1  0.19762276  0.54434274  0.54316490  1  0.021034  0  -0.080322  -0.180143  0  3.954395  0
C  C47  1  0.84213534  0.50006854  0.49995630  1  -0.036084  0  0.01474  0.110413  0  4.003262  0
C  C48  1  0.15786414  0.50004318  0.50000262  1  -0.021294  0  0.015211  0.110721  0  4.00297  0
C  C49  1  0.96205052  0.43809599  0.49010120  1  -0.135039  0  -0.083639  -0.119239  0  3.981706  0
C  C50  1  0.03794134  0.56198013  0.50962034  1  -0.074903  0  -0.083376  -0.118193  0  3.981674  0
C  C51  1  0.96193174  0.56199898  0.50959796  1  0.094987  0  -0.083641  -0.118641  0  3.981036  0
C  C52  1  0.03807378  0.43807608  0.49012155  1  -0.016788  0  -0.083363  -0.118518  0  3.981377  0
C  C53  1  0.07729201  0.50001993  0.49989294  1  0.040459  0  -0.00529  0.06105  0  4.003357  0
C  C54  1  0.92270859  0.50005782  0.49984943  1  0.040965  0  -0.005046  0.061074  0  4.003429  0
C  C55  1  0.49994293  0.36354670  0.49531463  1  1.580458  0  0.214205  0.590093  0  4.173913  0
C  C56  1  0.49995317  0.50037613  0.85345668  1  -0.064343  0  -0.006066  0.075238  0  4.008722  0
C  C57  1  0.50004867  0.63656375  0.49708940  1  1.577555  0  0.214116  0.588913  0  4.176616  0
C  C58  1  0.56621108  0.24953634  0.48173640  1  -0.119828  0  -0.083429  -0.090031  0  3.976205  0
C  C59  1  0.43378953  0.75032654  0.48267998  1  -0.130546  0  -0.082536  -0.088857  0  3.975803  0
C  C60  1  0.56622784  0.75023094  0.48269232  1  -0.126453  0  -0.082886  -0.08931  0  3.976033  0
C  C61  1  0.43377660  0.24963044  0.48173830  1  -0.124474  0  -0.083499  -0.089336  0  3.976207  0
C  C62  1  0.56647614  0.17818333  0.47113767  1  0.021505  0  -0.08326  -0.109223  0  3.972025  0
C  C63  1  0.43352821  0.82154642  0.47179403  1  -0.03834  0  -0.084148  -0.109542  0  3.971284  0
C  C64  1  0.56644669  0.82144482  0.47180130  1  0.006754  0  -0.084174  -0.109669  0  3.972221  0
C  C65  1  0.43356314  0.17827768  0.47113650  1  0.007929  0  -0.083828  -0.109933  0  3.972666  0
C  C66  1  0.50003447  0.14190288  0.46517461  1  -0.063894  0  -0.006903  0.017267  0  4.004194  0
C  C67  1  0.50003925  0.49958139  0.14769238  1  0.139831  0  -0.005544  0.075134  0  4.009346  0
C  C68  1  0.49997372  0.85775482  0.46580795  1  -0.032154  0  -0.00633  0.01749  0  4.005905  0
C  C69  1  0.49998036  0.28600831  0.48656656  1  0.088692  0  -0.009056  -0.014554  0  3.937824  0
C  C70  1  0.50002029  0.71396682  0.48791601  1  0.088999  0  -0.009078  -0.014883  0  3.939712  0
C  C71  1  0.49998200  0.93268405  0.45341407  1  0.950596  0  0.238526  0.245774  0  3.992938  0
C  C72  1  0.50002626  0.06680362  0.45308011  1  0.947621  0  0.238849  0.248647  0  3.990261  0
C  C73  1  0.43391383  0.49919916  0.74612542  1  -0.045068  0  -0.086448  -0.08607  0  3.995334  0
C  C74  1  0.56609331  0.50080449  0.25500741  1  -0.132118  0  -0.087676  -0.088803  0  3.997154  0
C  C75  1  0.43395432  0.49794514  0.25498566  1  -0.128738  0  -0.087307  -0.088643  0  3.996084  0
C  C76  1  0.56603317  0.50200301  0.74615424  1  -0.048063  0  -0.086828  -0.087002  0  3.996963  0
C  C77  1  0.43392917  0.49865932  0.81682070  1  -0.027965  0  -0.095598  -0.142732  0  4.000345  0
C  C78  1  0.49997931  0.50079508  0.71000715  1  -0.04528  0  -0.021738  -0.037655  0  3.970057  0
C  C79  1  0.56607141  0.50135160  0.18431214  1  -0.057847  0  -0.09501  -0.141477  0  3.999567  0
C  C80  1  0.43400287  0.49775091  0.18428664  1  -0.062526  0  -0.094933  -0.140625  0  3.998879  0
C  C81  1  0.56599721  0.50218270  0.81685477  1  -0.02958  0  -0.095413  -0.141889  0  4.000497  0
C  C82  1  0.50002786  0.49917583  0.29111396  1  -0.023163  0  -0.020902  -0.035035  0  3.968009  0
C  C83  1  0.54665892  0.54422702  0.96551796  1  -0.07555  0  -0.093829  -0.132157  0  4.006529  0
C  C84  1  0.45335153  0.45573568  0.03563059  1  0.015294  0  -0.092991  -0.129635  0  4.006582  0
C  C85  1  0.54667823  0.54403261  0.03623365  1  -0.024799  0  -0.092829  -0.128653  0  4.003944  0
N  N86  1  0.43517407  0.03391334  0.44433726  1  -0.638764  0  -0.160498  -0.155076  0  3.224648  0
N  N87  1  0.56483392  0.96546278  0.44450180  1  -0.480746  0  -0.160232  -0.153737  0  3.224246  0
N  N88  1  0.43515077  0.96563428  0.44450895  1  -0.472625  0  -0.16002  -0.153397  0  3.224911  0
N  N89  1  0.56485175  0.03374080  0.44432808  1  -0.630349  0  -0.160512  -0.155044  0  3.224356  0
N  N90  1  0.68896136  0.50004319  0.50037408  1  -1.200814  0  -0.317153  -0.192406  0  3.51131  0
N  N91  1  0.31103972  0.50007065  0.50034566  1  -1.202078  0  -0.316844  -0.192654  0  3.511363  0
O  O92  1  0.56209047  0.49919021  0.39682320  1  -1.170283  0  -0.320685  -0.553034  0  2.326375  0
O  O93  1  0.43793465  0.50093688  0.60427875  1  -1.167937  0  -0.321202  -0.55329  0  2.327256  0
O  O94  1  0.56206506  0.50109660  0.60429255  1  -1.167625  0  -0.320965  -0.552821  0  2.327369  0
O  O95  1  0.43797154  0.49903314  0.39683075  1  -1.17113  0  -0.320803  -0.553234  0  2.327373  0
O  O96  1  0.56202730  0.39331685  0.49828849  1  -1.163314  0  -0.318567  -0.551015  0  2.319289  0
O  O97  1  0.43795527  0.60682795  0.50013153  1  -1.164321  0  -0.318969  -0.550838  0  2.320218  0
O  O98  1  0.56218426  0.60676543  0.50014156  1  -1.165046  0  -0.318969  -0.551192  0  2.320408  0
O  O99  1  0.43781145  0.39336445  0.49831757  1  -1.166112  0  -0.318393  -0.550851  0  2.320088  0
