# generated using pymatgen
data_ZnH24C29N2O5
_symmetry_space_group_name_H-M   'P 1'
_cell_length_a   8.96286322
_cell_length_b   9.49267604
_cell_length_c   14.93527332
_cell_angle_alpha   90.41059909
_cell_angle_beta   100.31751982
_cell_angle_gamma   106.79017430
_symmetry_Int_Tables_number   1
_chemical_formula_structural   ZnH24C29N2O5
_chemical_formula_sum   'Zn2 H48 C58 N4 O10'
_cell_volume   1194.53058802
_cell_formula_units_Z   2
loop_
 _symmetry_equiv_pos_site_id
 _symmetry_equiv_pos_as_xyz
  1  'x, y, z'
loop_
 _atom_site_type_symbol
 _atom_site_label
 _atom_site_symmetry_multiplicity
 _atom_site_fract_x
 _atom_site_fract_y
 _atom_site_fract_z
 _atom_site_occupancy
 _atom_site_pbe_bader_spin_density
 _atom_site_pbe_cm5_charge
 _atom_site_pbe_ddec_charge
 _atom_site_pbe_ddec_spin_density
 _atom_site_pbe_ddec_sum_bond_order
 _atom_site_pbe_magmom
Zn  Zn0  1  0.91796643  0.30011506  0.43075306  1  0  0.699171  0.953708  0  2.29128  0
Zn  Zn1  1  0.08203037  0.69988105  0.56924581  1  0  0.69918  0.953762  0  2.291368  0
H  H2  1  0.80681952  0.29725202  0.89177612  1  0  0.301069  0.244472  0  1.008687  0
H  H3  1  0.19317831  0.70274740  0.10822154  1  0  0.30105  0.244457  0  1.008707  0
H  H4  1  0.05980033  0.13489453  0.58643619  1  0  0.101572  0.104331  0  1.06235  0
H  H5  1  0.94020354  0.86510598  0.41356342  1  0  0.101564  0.104337  0  1.06232  0
H  H6  1  0.85221358  0.94469954  0.81107989  1  0  0.104891  0.115052  0  1.027177  0
H  H7  1  0.14778732  0.05529877  0.18891940  1  0  0.104913  0.11509  0  1.027109  0
H  H8  1  0.92092934  0.40882239  0.76704494  1  0  0.11016  0.124838  0  1.007058  0
H  H9  1  0.07906210  0.59117484  0.23295139  1  0  0.110172  0.12488  0  1.00704  0
H  H10  1  0.81088368  0.15179828  0.01175594  1  0  0.10887  0.087361  0  1.013411  0
H  H11  1  0.18911336  0.84820224  0.98824164  1  0  0.1089  0.087416  0  1.013396  0
H  H12  1  0.90403012  0.04538954  0.95685154  1  0  0.101471  0.071105  0  1.005501  0
H  H13  1  0.09597142  0.95461429  0.04314853  1  0  0.101504  0.071121  0  1.005452  0
H  H14  1  0.30705762  0.36371520  0.22662476  1  0  0.097984  0.111092  0  1.037613  0
H  H15  1  0.69294007  0.63629416  0.77337696  1  0  0.097996  0.111154  0  1.037543  0
H  H16  1  0.56341125  0.04521234  0.79999032  1  0  0.096661  0.096628  0  1.043935  0
H  H17  1  0.43659344  0.95478375  0.20000732  1  0  0.096721  0.096646  0  1.043938  0
H  H18  1  0.57432713  0.55360293  0.25452569  1  0  0.094851  0.095064  0  1.018532  0
H  H19  1  0.42567557  0.44640089  0.74547516  1  0  0.094855  0.095073  0  1.018528  0
H  H20  1  0.83557875  0.94830556  0.09169709  1  0  0.094124  0.089317  0  1.045273  0
H  H21  1  0.16442167  0.05169827  0.90830286  1  0  0.094106  0.08929  0  1.045336  0
H  H22  1  0.12331975  0.34538603  0.07969308  1  0  0.098146  0.104566  0  1.004883  0
H  H23  1  0.87667600  0.65462774  0.92031116  1  0  0.09815  0.104598  0  1.004838  0
H  H24  1  0.12649831  0.61783432  0.81156111  1  0  0.099781  0.113911  0  1.033739  0
H  H25  1  0.87350245  0.38217061  0.18843888  1  0  0.099769  0.113875  0  1.033807  0
H  H26  1  0.66387356  0.12888517  0.61930897  1  0  0.108758  0.130951  0  1.035412  0
H  H27  1  0.33612268  0.87110874  0.38069652  1  0  0.108729  0.130952  0  1.035484  0
H  H28  1  0.46045332  0.03284174  0.62389980  1  0  0.106792  0.124425  0  0.99141  0
H  H29  1  0.53954200  0.96715658  0.37610296  1  0  0.106773  0.124451  0  0.991247  0
H  H30  1  0.54904749  0.21508109  0.67508913  1  0  0.104058  0.118522  0  0.992285  0
H  H31  1  0.45094632  0.78491613  0.32491212  1  0  0.104072  0.118604  0  0.992274  0
H  H32  1  0.76731945  0.76731089  0.20357144  1  0  0.093183  0.093717  0  1.058571  0
H  H33  1  0.23267983  0.23269294  0.79642839  1  0  0.093183  0.093699  0  1.058587  0
H  H34  1  0.30790140  0.84501740  0.76719295  1  0  0.098092  0.102588  0  1.013448  0
H  H35  1  0.69210359  0.15497979  0.23280273  1  0  0.098087  0.102572  0  1.013434  0
H  H36  1  0.05913498  0.43455681  0.92710932  1  0  0.09423  0.0904  0  1.06073  0
H  H37  1  0.94085630  0.56545366  0.07289312  1  0  0.094196  0.090325  0  1.060765  0
H  H38  1  0.62674823  0.34415383  0.34780463  1  0  0.099708  0.148936  0  1.032421  0
H  H39  1  0.37326031  0.65584336  0.65219810  1  0  0.099703  0.148951  0  1.032401  0
H  H40  1  0.49030466  0.40476573  0.40028653  1  0  0.109988  0.168837  0  0.965316  0
H  H41  1  0.50970552  0.59522925  0.59971969  1  0  0.110044  0.168941  0  0.965317  0
H  H42  1  0.42914014  0.22816346  0.34348765  1  0  0.108825  0.166944  0  0.994939  0
H  H43  1  0.57086566  0.77183594  0.65651281  1  0  0.108793  0.166968  0  0.994888  0
H  H44  1  0.29326754  0.24419217  0.45114340  1  0  0.109043  0.131691  0  1.04056  0
H  H45  1  0.70674007  0.75580943  0.54885592  1  0  0.10907  0.131717  0  1.040491  0
H  H46  1  0.31573365  0.27930141  0.57068285  1  0  0.10123  0.118864  0  1.002853  0
H  H47  1  0.68427281  0.72070020  0.42931568  1  0  0.101243  0.118874  0  1.002801  0
H  H48  1  0.24982862  0.09410534  0.52329728  1  0  0.108687  0.133695  0  0.992354  0
H  H49  1  0.75016994  0.90589628  0.47670180  1  0  0.10868  0.133696  0  0.992402  0
C  C50  1  0.05489193  0.41378371  0.61817660  1  0  0.222384  0.597852  0  4.142551  0
C  C51  1  0.94510903  0.58621128  0.38182200  1  0  0.222481  0.597936  0  4.142261  0
C  C52  1  0.01115392  0.14840795  0.64629163  1  0  -0.101659  -0.162038  0  3.9886  0
C  C53  1  0.98884961  0.85159146  0.35370860  1  0  -0.10166  -0.162015  0  3.988467  0
C  C54  1  0.97073326  0.88034790  0.66793829  1  0  0.201561  0.569249  0  4.222833  0
C  C55  1  0.02926914  0.11965151  0.33206183  1  0  0.201576  0.569293  0  4.222847  0
C  C56  1  0.99707855  0.28526067  0.67225615  1  0  -0.025923  -0.037507  0  4.04885  0
C  C57  1  0.00291857  0.71473655  0.32774142  1  0  -0.025909  -0.037457  0  4.048777  0
C  C58  1  0.96001843  0.02773089  0.69762414  1  0  -0.021539  -0.012238  0  4.016094  0
C  C59  1  0.03998547  0.97226962  0.30237681  1  0  -0.02153  -0.012314  0  4.016197  0
C  C60  1  0.89518089  0.04250801  0.77434817  1  0  -0.094932  -0.212818  0  3.920324  0
C  C61  1  0.10481774  0.95749030  0.22565090  1  0  -0.095034  -0.212895  0  3.920218  0
C  C62  1  0.93281443  0.30168359  0.74880621  1  0  -0.086946  -0.193652  0  3.901456  0
C  C63  1  0.06718076  0.69831473  0.25119050  1  0  -0.086933  -0.193717  0  3.901555  0
C  C64  1  0.88279578  0.18066314  0.80191888  1  0  0.101052  0.23394  0  4.092592  0
C  C65  1  0.11720318  0.81933627  0.19807889  1  0  0.101077  0.233983  0  4.092438  0
C  C66  1  0.64870067  0.96699489  0.92744507  1  0  -0.011973  0.038124  0  3.918408  0
C  C67  1  0.35130023  0.03300342  0.07255422  1  0  -0.011981  0.038182  0  3.918429  0
C  C68  1  0.46725141  0.74533556  0.97454326  1  0  0.00181  0.005281  0  3.91642  0
C  C69  1  0.53274715  0.25466606  0.02545582  1  0  0.001828  0.005236  0  3.916524  0
C  C70  1  0.80282498  0.09195898  0.94689906  1  0  -0.053421  -0.054651  0  3.979253  0
C  C71  1  0.19717433  0.90804153  0.05309875  1  0  -0.053495  -0.054768  0  3.979282  0
C  C72  1  0.42752352  0.64042420  0.04072523  1  0  -0.001141  -0.00763  0  3.911291  0
C  C73  1  0.57247349  0.35957963  0.95927438  1  0  -0.001141  -0.007628  0  3.911226  0
C  C74  1  0.35618129  0.73835554  0.89167167  1  0  -0.013705  0.063185  0  4.047876  0
C  C75  1  0.64381732  0.26164277  0.10832605  1  0  -0.013737  0.063207  0  4.048011  0
C  C76  1  0.61520434  0.85959867  0.99216513  1  0  -0.010214  0.022717  0  3.995545  0
C  C77  1  0.38479353  0.14040075  0.00783454  1  0  -0.010218  0.022674  0  3.995567  0
C  C78  1  0.34315373  0.44001325  0.17488644  1  0  -0.097521  -0.086376  0  4.033776  0
C  C79  1  0.65684587  0.55999499  0.82511547  1  0  -0.097602  -0.086551  0  4.033891  0
C  C80  1  0.53755935  0.95913743  0.84767077  1  0  -0.098726  -0.134922  0  4.033482  0
C  C81  1  0.46244378  0.04086087  0.15232741  1  0  -0.098799  -0.134988  0  4.033687  0
C  C82  1  0.49065135  0.54720082  0.19068392  1  0  -0.093742  -0.136702  0  3.982234  0
C  C83  1  0.50935133  0.45280300  0.80931626  1  0  -0.093722  -0.136633  0  3.982203  0
C  C84  1  0.58932295  0.24612598  0.47282170  1  0  0.249005  0.514698  0  4.030119  0
C  C85  1  0.41067901  0.75386130  0.52718030  1  0  0.249022  0.514818  0  4.029906  0
C  C86  1  0.53531625  0.64865842  0.12499149  1  0  -0.010787  0.071023  0  4.037926  0
C  C87  1  0.46468190  0.35134541  0.87500823  1  0  -0.010764  0.071093  0  4.037807  0
C  C88  1  0.72206720  0.86244872  0.07641827  1  0  -0.09482  -0.126292  0  4.003042  0
C  C89  1  0.27793475  0.13755290  0.92358048  1  0  -0.094864  -0.126305  0  4.003118  0
C  C90  1  0.23826308  0.42991173  0.09220179  1  0  -0.093537  -0.137359  0  3.972901  0
C  C91  1  0.76173308  0.57009983  0.90780114  1  0  -0.093509  -0.137371  0  3.973015  0
C  C92  1  0.27774212  0.52822482  0.02414671  1  0  -0.015261  0.057562  0  4.051827  0
C  C93  1  0.72225443  0.47178454  0.97585490  1  0  -0.015233  0.05758  0  4.051908  0
C  C94  1  0.20819246  0.62335992  0.87601928  1  0  -0.095025  -0.139566  0  3.994131  0
C  C95  1  0.79180611  0.37664170  0.12398047  1  0  -0.095026  -0.139592  0  3.994184  0
C  C96  1  0.54554935  0.14019248  0.61760637  1  0  -0.134946  -0.26947  0  3.872432  0
C  C97  1  0.45444754  0.85980363  0.38239652  1  0  -0.135027  -0.269718  0  3.872422  0
C  C98  1  0.68417466  0.76163353  0.13977624  1  0  -0.091312  -0.119826  0  3.984797  0
C  C99  1  0.31582504  0.23836809  0.86022363  1  0  -0.091266  -0.119772  0  3.984838  0
C  C100  1  0.39407336  0.84702143  0.82933647  1  0  -0.091812  -0.125168  0  3.981909  0
C  C101  1  0.60592869  0.15297356  0.17066024  1  0  -0.091802  -0.125156  0  3.982068  0
C  C102  1  0.17119191  0.52247865  0.93942706  1  0  -0.097353  -0.136769  0  4.019737  0
C  C103  1  0.82880360  0.47752740  0.06057509  1  0  -0.097289  -0.136607  0  4.019549  0
C  C104  1  0.53054171  0.30940947  0.38617293  1  0  -0.234651  -0.518033  0  3.910178  0
C  C105  1  0.46946352  0.69058442  0.61383011  1  0  -0.234685  -0.518235  0  3.91015  0
C  C106  1  0.32895302  0.20507635  0.51780730  1  0  -0.136044  -0.280874  0  3.876283  0
C  C107  1  0.67105085  0.79492416  0.48219230  1  0  -0.136084  -0.280906  0  3.876209  0
N  N108  1  0.82448701  0.19894768  0.87863848  1  0  -0.444209  -0.332727  0  3.618681  0
N  N109  1  0.17551117  0.80105284  0.12135922  1  0  -0.44418  -0.332696  0  3.618625  0
N  N110  1  0.49195313  0.19923959  0.53190011  1  0  -0.274313  -0.008375  0  3.649258  0
N  N111  1  0.50804756  0.80075430  0.46810181  1  0  -0.274235  -0.00834  0  3.649114  0
O  O112  1  0.07745678  0.54249819  0.65467245  1  0  -0.302402  -0.534816  0  2.362525  0
O  O113  1  0.92254680  0.45749790  0.34532643  1  0  -0.302453  -0.534816  0  2.362451  0
O  O114  1  0.72910749  0.23434431  0.49065884  1  0  -0.306998  -0.530615  0  2.384816  0
O  O115  1  0.27088944  0.76563084  0.50934190  1  0  -0.306992  -0.530646  0  2.38473  0
O  O116  1  0.07662737  0.88739226  0.61680052  1  0  -0.341854  -0.585504  0  2.328504  0
O  O117  1  0.92337500  0.11260714  0.38319826  1  0  -0.341851  -0.585491  0  2.328468  0
O  O118  1  0.88164490  0.76357631  0.68954981  1  0  -0.320976  -0.547997  0  2.125445  0
O  O119  1  0.11835636  0.23642311  0.31045019  1  0  -0.320973  -0.547988  0  2.12546  0
O  O120  1  0.08431599  0.39444418  0.53894238  1  0  -0.329406  -0.582734  0  2.364642  0
O  O121  1  0.91568419  0.60555192  0.46105616  1  0  -0.329453  -0.582834  0  2.364563  0
