# generated using pymatgen
data_NdH8C6O7
_symmetry_space_group_name_H-M   'P 1'
_cell_length_a   7.87058528
_cell_length_b   10.75922404
_cell_length_c   12.95666686
_cell_angle_alpha   95.38866387
_cell_angle_beta   107.69596454
_cell_angle_gamma   111.44200616
_symmetry_Int_Tables_number   1
_chemical_formula_structural   NdH8C6O7
_chemical_formula_sum   'Nd4 H32 C24 O28'
_cell_volume   946.56369645
_cell_formula_units_Z   4
loop_
 _symmetry_equiv_pos_site_id
 _symmetry_equiv_pos_as_xyz
  1  'x, y, z'
loop_
 _atom_site_type_symbol
 _atom_site_label
 _atom_site_symmetry_multiplicity
 _atom_site_fract_x
 _atom_site_fract_y
 _atom_site_fract_z
 _atom_site_occupancy
 _atom_site_hle17_bader_spin_density
 _atom_site_hle17_ddec_charge
 _atom_site_hle17_ddec_spin_density
 _atom_site_hle17_ddec_sum_bond_order
 _atom_site_hle17_magmom
 _atom_site_hse06_10hf_bader_spin_density
 _atom_site_hse06_10hf_ddec_charge
 _atom_site_hse06_10hf_ddec_spin_density
 _atom_site_hse06_10hf_ddec_sum_bond_order
 _atom_site_hse06_10hf_magmom
 _atom_site_hse06_bader_spin_density
 _atom_site_hse06_ddec_charge
 _atom_site_hse06_ddec_spin_density
 _atom_site_hse06_ddec_sum_bond_order
 _atom_site_hse06_magmom
 _atom_site_pbe_bader_spin_density
 _atom_site_pbe_cm5_charge
 _atom_site_pbe_ddec_charge
 _atom_site_pbe_ddec_spin_density
 _atom_site_pbe_ddec_sum_bond_order
 _atom_site_pbe_magmom
Nd  Nd0  1  0.82595747  0.31092010  0.77056600  1  0  2.313357  0  1.641747  0  0  2.151944  0  2.103408  0  0  2.248308  0  1.96115  0  0  1.513031  2.118546  0  2.137231  0
Nd  Nd1  1  0.24444722  0.18908257  0.72944888  1  0  2.314088  0  1.640319  0  0  2.154014  0  2.099489  0  0  2.249012  0  1.959651  0  0  1.513135  2.119937  0  2.134499  0
Nd  Nd2  1  0.17404340  0.68907940  0.22943419  1  0  2.31336  0  1.641768  0  0  2.151952  0  2.103408  0  0  2.248304  0  1.961172  0  0  1.513034  2.118552  0  2.137231  0
Nd  Nd3  1  0.75555456  0.81091796  0.27055048  1  0  2.314102  0  1.640313  0  0  2.15405  0  2.09943  0  0  2.249018  0  1.959647  0  0  1.513124  2.119972  0  2.134437  0
H  H4  1  0.90609198  0.58536917  0.91351676  1  0  0.447797  0  0.845585  0  0  0.417504  0  0.907302  0  0  0.428789  0  0.890864  0  0  0.302637  0.409573  0  0.918944  0
H  H5  1  0.90729125  0.91462671  0.58646935  1  0  0.447023  0  0.846736  0  0  0.416812  0  0.908254  0  0  0.428073  0  0.891861  0  0  0.302237  0.408864  0  0.919938  0
H  H6  1  0.09390779  0.41463034  0.08648368  1  0  0.447763  0  0.84563  0  0  0.417463  0  0.907363  0  0  0.428749  0  0.890922  0  0  0.302608  0.409532  0  0.919005  0
H  H7  1  0.09271022  0.08537382  0.41353104  1  0  0.447039  0  0.846715  0  0  0.416827  0  0.908234  0  0  0.428088  0  0.891841  0  0  0.302244  0.40888  0  0.919918  0
H  H8  1  0.66683667  0.50513256  0.85702947  1  0  0.432314  0  0.861794  0  0  0.403179  0  0.922331  0  0  0.414107  0  0.906507  0  0  0.299582  0.395455  0  0.933593  0
H  H9  1  0.80485612  0.99488718  0.64302921  1  0  0.432855  0  0.861202  0  0  0.403989  0  0.921238  0  0  0.414853  0  0.905484  0  0  0.299777  0.396309  0  0.932451  0
H  H10  1  0.33316371  0.49486797  0.14297116  1  0  0.432355  0  0.861759  0  0  0.403216  0  0.922297  0  0  0.414145  0  0.906472  0  0  0.299591  0.395492  0  0.933559  0
H  H11  1  0.19514257  0.00511233  0.35697148  1  0  0.432853  0  0.86121  0  0  0.403986  0  0.921248  0  0  0.41485  0  0.905494  0  0  0.299766  0.396305  0  0.932462  0
H  H12  1  0.47564422  0.78901474  0.64267535  1  0  0.104882  0  0.912293  0  0  0.124501  0  0.962226  0  0  0.126548  0  0.961481  0  0  0.106783  0.123059  0  0.962667  0
H  H13  1  0.54385812  0.71108834  0.85737742  1  0  0.104926  0  0.912541  0  0  0.124656  0  0.961885  0  0  0.126731  0  0.961055  0  0  0.107016  0.123189  0  0.962409  0
H  H14  1  0.52435478  0.21098477  0.35732432  1  0  0.104892  0  0.912283  0  0  0.124506  0  0.96222  0  0  0.126555  0  0.961473  0  0  0.106781  0.123064  0  0.96266  0
H  H15  1  0.45614181  0.28891219  0.14262142  1  0  0.104901  0  0.9126  0  0  0.124662  0  0.961894  0  0  0.126742  0  0.961066  0  0  0.107028  0.123194  0  0.962418  0
H  H16  1  0.41762253  0.82684535  0.51099022  1  0  0.110383  0  0.942094  0  0  0.122609  0  1.006111  0  0  0.124884  0  1.006112  0  0  0.112057  0.12072  0  1.006692  0
H  H17  1  0.57972244  0.67315961  0.98903425  1  0  0.110112  0  0.943066  0  0  0.122354  0  1.006773  0  0  0.124619  0  1.006717  0  0  0.112179  0.120486  0  1.007348  0
H  H18  1  0.58237599  0.17315518  0.48900989  1  0  0.110365  0  0.942109  0  0  0.122595  0  1.006125  0  0  0.12487  0  1.006125  0  0  0.112052  0.120702  0  1.00671  0
H  H19  1  0.42027857  0.32684092  0.01096435  1  0  0.110134  0  0.942995  0  0  0.122349  0  1.006726  0  0  0.124618  0  1.006674  0  0  0.112182  0.120479  0  1.007302  0
H  H20  1  0.13942172  0.63215299  0.53862718  1  0  0.120198  0  0.91706  0  0  0.135773  0  0.973291  0  0  0.138362  0  0.971673  0  0  0.111821  0.133966  0  0.974332  0
H  H21  1  0.46861385  0.86797756  0.96150724  1  0  0.120707  0  0.915894  0  0  0.136011  0  0.972478  0  0  0.138523  0  0.97084  0  0  0.112128  0.134257  0  0.973495  0
H  H22  1  0.86057636  0.36784549  0.46137332  1  0  0.120172  0  0.917084  0  0  0.135756  0  0.973306  0  0  0.138345  0  0.971688  0  0  0.11181  0.13395  0  0.974346  0
H  H23  1  0.53138438  0.13202195  0.03849166  1  0  0.120706  0  0.915921  0  0  0.136006  0  0.972501  0  0  0.138517  0  0.970864  0  0  0.112122  0.134251  0  0.973519  0
H  H24  1  0.12824141  0.75652037  0.63516641  1  0  0.116425  0  0.912699  0  0  0.132566  0  0.964898  0  0  0.135353  0  0.963023  0  0  0.111399  0.130631  0  0.966073  0
H  H25  1  0.23649108  0.74365387  0.86489974  1  0  0.116621  0  0.913241  0  0  0.13251  0  0.965673  0  0  0.135209  0  0.96381  0  0  0.11152  0.130594  0  0.966871  0
H  H26  1  0.87175712  0.24348016  0.36483369  1  0  0.116429  0  0.912718  0  0  0.132579  0  0.964897  0  0  0.135367  0  0.963025  0  0  0.111414  0.130645  0  0.966072  0
H  H27  1  0.76350623  0.25634461  0.13509998  1  0  0.116615  0  0.913264  0  0  0.132511  0  0.965685  0  0  0.135211  0  0.96382  0  0  0.111537  0.130594  0  0.966883  0
H  H28  1  0.39353862  0.50292482  0.58217014  1  0  0.11035  0  0.902911  0  0  0.128789  0  0.95502  0  0  0.130814  0  0.954406  0  0  0.112786  0.127363  0  0.955418  0
H  H29  1  0.80850706  0.99721428  0.91784626  1  0  0.110883  0  0.903106  0  0  0.129281  0  0.95478  0  0  0.131313  0  0.95421  0  0  0.113129  0.127804  0  0.955283  0
H  H30  1  0.60646070  0.49707468  0.41782851  1  0  0.110329  0  0.90292  0  0  0.128767  0  0.955026  0  0  0.130793  0  0.954411  0  0  0.112775  0.12734  0  0.955424  0
H  H31  1  0.19149380  0.00278523  0.08215394  1  0  0.110892  0  0.903097  0  0  0.129294  0  0.954766  0  0  0.131327  0  0.954194  0  0  0.113132  0.127817  0  0.955269  0
H  H32  1  0.31705898  0.36379570  0.47278045  1  0  0.123309  0  0.922034  0  0  0.139201  0  0.975734  0  0  0.142016  0  0.974311  0  0  0.112347  0.137229  0  0.976629  0
H  H33  1  0.98062011  0.13626718  0.02727056  1  0  0.123819  0  0.92171  0  0  0.139078  0  0.975834  0  0  0.141898  0  0.974455  0  0  0.112391  0.137206  0  0.97659  0
H  H34  1  0.68294031  0.63620484  0.52722043  1  0  0.123287  0  0.922033  0  0  0.139172  0  0.975744  0  0  0.141986  0  0.974324  0  0  0.11234  0.137199  0  0.976639  0
H  H35  1  0.01938076  0.86373233  0.97272963  1  0  0.123844  0  0.921712  0  0  0.139104  0  0.97583  0  0  0.141923  0  0.974456  0  0  0.112394  0.137234  0  0.976583  0
C  C36  1  0.44993073  0.97953415  0.64150358  1  0  0.75855  0  3.800628  0  0  0.715072  0  4.099048  0  0  0.748972  0  4.092237  0  0  0.239696  0.692118  0  4.104851  0
C  C37  1  0.32869615  0.52061243  0.85847073  1  0  0.759344  0  3.800289  0  0  0.715691  0  4.09858  0  0  0.749454  0  4.091957  0  0  0.239886  0.692782  0  4.104313  0
C  C38  1  0.55006982  0.02046536  0.35849763  1  0  0.758471  0  3.800679  0  0  0.715042  0  4.099014  0  0  0.748943  0  4.092202  0  0  0.23969  0.692087  0  4.104817  0
C  C39  1  0.67130628  0.47938605  0.14152879  1  0  0.759406  0  3.800159  0  0  0.715655  0  4.098578  0  0  0.749422  0  4.091961  0  0  0.239856  0.692753  0  4.104299  0
C  C40  1  0.38316963  0.82965366  0.58705956  1  0  -0.239721  0  3.643403  0  0  -0.278887  0  3.894037  0  0  -0.283912  0  3.900935  0  0  -0.151449  -0.275085  0  3.888322  0
C  C41  1  0.46638486  0.67045245  0.91297963  1  0  -0.240403  0  3.644253  0  0  -0.278554  0  3.89293  0  0  -0.283507  0  3.899596  0  0  -0.151922  -0.274805  0  3.887365  0
C  C42  1  0.61682906  0.17034585  0.41294113  1  0  -0.239705  0  3.643431  0  0  -0.278888  0  3.89403  0  0  -0.283915  0  3.90093  0  0  -0.151444  -0.275083  0  3.888317  0
C  C43  1  0.53361385  0.32954603  0.08701883  1  0  -0.240394  0  3.644224  0  0  -0.278502  0  3.892885  0  0  -0.283477  0  3.899578  0  0  -0.151927  -0.274755  0  3.887318  0
C  C44  1  0.16585853  0.74042202  0.56170108  1  0  -0.233127  0  3.642367  0  0  -0.275724  0  3.894046  0  0  -0.279881  0  3.899311  0  0  -0.1544  -0.272518  0  3.889412  0
C  C45  1  0.36368856  0.75972594  0.93837871  1  0  -0.23426  0  3.642108  0  0  -0.276788  0  3.894494  0  0  -0.280682  0  3.899314  0  0  -0.155229  -0.273658  0  3.89007  0
C  C46  1  0.83414125  0.25957749  0.43829936  1  0  -0.233101  0  3.642396  0  0  -0.27571  0  3.894046  0  0  -0.27987  0  3.899314  0  0  -0.154391  -0.272505  0  3.889411  0
C  C47  1  0.63631076  0.24027357  0.06161994  1  0  -0.234277  0  3.642234  0  0  -0.276806  0  3.894586  0  0  -0.280695  0  3.899415  0  0  -0.155249  -0.273678  0  3.890162  0
C  C48  1  0.02839983  0.76643235  0.46472730  1  0  0.755197  0  3.769093  0  0  0.71137  0  4.064312  0  0  0.745098  0  4.059338  0  0  0.230776  0.688218  0  4.07033  0
C  C49  1  0.29722952  0.73356927  0.03530206  1  0  0.755265  0  3.768319  0  0  0.710423  0  4.065012  0  0  0.744054  0  4.060184  0  0  0.229706  0.687245  0  4.071074  0
C  C50  1  0.97160103  0.23356716  0.53527290  1  0  0.755181  0  3.769146  0  0  0.71138  0  4.064314  0  0  0.74511  0  4.059339  0  0  0.230791  0.68823  0  4.070331  0
C  C51  1  0.70276887  0.26642921  0.96469742  1  0  0.755238  0  3.768331  0  0  0.7104  0  4.065015  0  0  0.744031  0  4.060188  0  0  0.229707  0.687222  0  4.071076  0
C  C52  1  0.57760015  0.39769437  0.60560347  1  0  0.733313  0  3.824354  0  0  0.690916  0  4.120657  0  0  0.723831  0  4.117144  0  0  0.210864  0.66826  0  4.125917  0
C  C53  1  0.07435819  0.10229612  0.89443926  1  0  0.734349  0  3.8227  0  0  0.691504  0  4.119304  0  0  0.72449  0  4.115666  0  0  0.211495  0.668847  0  4.124577  0
C  C54  1  0.42239651  0.60230616  0.39439611  1  0  0.733442  0  3.824333  0  0  0.691034  0  4.12066  0  0  0.723949  0  4.117143  0  0  0.210908  0.668376  0  4.125921  0
C  C55  1  0.92564376  0.89770339  0.10556069  1  0  0.734294  0  3.822714  0  0  0.691406  0  4.119389  0  0  0.724394  0  4.11575  0  0  0.211437  0.66875  0  4.124661  0
C  C56  1  0.44834401  0.45179474  0.53063001  1  0  -0.234279  0  3.68636  0  0  -0.274944  0  3.93875  0  0  -0.279736  0  3.945687  0  0  -0.15608  -0.271293  0  3.932944  0
C  C57  1  0.96599018  0.04825800  0.96940074  1  0  -0.235927  0  3.687468  0  0  -0.275436  0  3.937971  0  0  -0.280322  0  3.945039  0  0  -0.156563  -0.271909  0  3.932464  0
C  C58  1  0.55165313  0.54820476  0.46936913  1  0  -0.234228  0  3.686331  0  0  -0.274873  0  3.938721  0  0  -0.279666  0  3.945657  0  0  -0.156047  -0.271222  0  3.932914  0
C  C59  1  0.03401069  0.95174151  0.03059945  1  0  -0.235981  0  3.687506  0  0  -0.275491  0  3.938036  0  0  -0.280376  0  3.945097  0  0  -0.156564  -0.271964  0  3.932524  0
O  O60  1  0.63053668  0.06033150  0.66701846  1  0  -0.746483  0  1.997171  0  0  -0.691752  0  2.2425  0  0  -0.723596  0  2.230153  0  0  -0.363786  -0.673683  0  2.249446  0
O  O61  1  0.40288990  0.43973305  0.83295910  1  0  -0.746377  0  1.996412  0  0  -0.691787  0  2.241711  0  0  -0.723441  0  2.229565  0  0  -0.363704  -0.673633  0  2.248635  0
O  O62  1  0.36946542  0.93966801  0.33298430  1  0  -0.746463  0  1.997195  0  0  -0.691744  0  2.242481  0  0  -0.72359  0  2.230141  0  0  -0.363813  -0.673676  0  2.249427  0
O  O63  1  0.59711266  0.56026748  0.16704104  1  0  -0.746448  0  1.99635  0  0  -0.691833  0  2.241696  0  0  -0.723482  0  2.229551  0  0  -0.363718  -0.673681  0  2.248614  0
O  O64  1  0.32271595  0.01537003  0.65815432  1  0  -0.715555  0  2.026227  0  0  -0.66023  0  2.2796  0  0  -0.692046  0  2.266615  0  0  -0.398035  -0.643003  0  2.28679  0
O  O65  1  0.14898994  0.48483837  0.84176665  1  0  -0.716058  0  2.025912  0  0  -0.660642  0  2.279327  0  0  -0.692632  0  2.266268  0  0  -0.398128  -0.643448  0  2.286506  0
O  O66  1  0.67728444  0.98463050  0.34184632  1  0  -0.715498  0  2.026211  0  0  -0.6602  0  2.27956  0  0  -0.692012  0  2.266579  0  0  -0.398011  -0.642975  0  2.28675  0
O  O67  1  0.85101169  0.51516114  0.15823431  1  0  -0.716046  0  2.025879  0  0  -0.660608  0  2.279334  0  0  -0.692594  0  2.266273  0  0  -0.398092  -0.643417  0  2.286511  0
O  O68  1  0.02579821  0.73414593  0.36582242  1  0  -0.831968  0  2.103718  0  0  -0.77306  0  2.362741  0  0  -0.810147  0  2.35069  0  0  -0.434424  -0.754911  0  2.369544  0
O  O69  1  0.42591275  0.76578163  0.13419336  1  0  -0.83158  0  2.102201  0  0  -0.772103  0  2.361434  0  0  -0.809169  0  2.349528  0  0  -0.433901  -0.753928  0  2.368207  0
O  O70  1  0.97419862  0.26585358  0.63417775  1  0  -0.831956  0  2.103647  0  0  -0.773064  0  2.36268  0  0  -0.810156  0  2.350626  0  0  -0.434452  -0.754916  0  2.369483  0
O  O71  1  0.57408686  0.23421890  0.86580650  1  0  -0.831566  0  2.102216  0  0  -0.772078  0  2.361429  0  0  -0.809148  0  2.349522  0  0  -0.433919  -0.753902  0  2.368202  0
O  O72  1  0.91033431  0.81617166  0.47730880  1  0  -0.693775  0  2.029571  0  0  -0.638266  0  2.264031  0  0  -0.667784  0  2.253331  0  0  -0.341535  -0.620932  0  2.270733  0
O  O73  1  0.11686157  0.68379469  0.02271836  1  0  -0.693538  0  2.030478  0  0  -0.637597  0  2.2657  0  0  -0.667296  0  2.255083  0  0  -0.340722  -0.620265  0  2.272202  0
O  O74  1  0.08966470  0.18382784  0.52269087  1  0  -0.693761  0  2.029656  0  0  -0.638258  0  2.264101  0  0  -0.66778  0  2.253401  0  0  -0.341525  -0.620921  0  2.270802  0
O  O75  1  0.88313635  0.31620481  0.97728155  1  0  -0.693492  0  2.030426  0  0  -0.637558  0  2.265659  0  0  -0.66726  0  2.255041  0  0  -0.340707  -0.620225  0  2.272158  0
O  O76  1  0.75533082  0.43540728  0.61703614  1  0  -0.660659  0  1.931439  0  0  -0.614905  0  2.16232  0  0  -0.643106  0  2.153067  0  0  -0.357087  -0.598723  0  2.167649  0
O  O77  1  0.20298849  0.06458970  0.88307368  1  0  -0.660834  0  1.930507  0  0  -0.615233  0  2.161671  0  0  -0.643242  0  2.152376  0  0  -0.357215  -0.599046  0  2.167062  0
O  O78  1  0.24467030  0.56459633  0.38296531  1  0  -0.660712  0  1.931554  0  0  -0.614962  0  2.162442  0  0  -0.643157  0  2.153181  0  0  -0.357121  -0.598782  0  2.167775  0
O  O79  1  0.79701112  0.93541083  0.11692617  1  0  -0.660832  0  1.930448  0  0  -0.615205  0  2.161614  0  0  -0.643212  0  2.152319  0  0  -0.357198  -0.599019  0  2.167004  0
O  O80  1  0.50211947  0.30947394  0.65853956  1  0  -0.854003  0  2.131493  0  0  -0.799447  0  2.402432  0  0  -0.835885  0  2.389504  0  0  -0.465195  -0.781706  0  2.409877  0
O  O81  1  0.03406223  0.19048721  0.84146272  1  0  -0.854292  0  2.130112  0  0  -0.799653  0  2.401261  0  0  -0.836153  0  2.388252  0  0  -0.465727  -0.781946  0  2.408759  0
O  O82  1  0.49788171  0.69052557  0.34145962  1  0  -0.854076  0  2.131446  0  0  -0.799518  0  2.40238  0  0  -0.835952  0  2.389453  0  0  -0.465215  -0.781778  0  2.409825  0
O  O83  1  0.96593786  0.80951230  0.15853670  1  0  -0.854229  0  2.130116  0  0  -0.799576  0  2.401265  0  0  -0.836072  0  2.388259  0  0  -0.465706  -0.781869  0  2.408759  0
O  O84  1  0.79238295  0.51949490  0.84768274  1  0  -0.916523  0  1.841721  0  0  -0.867144  0  2.021257  0  0  -0.891262  0  1.985226  0  0  -0.641624  -0.853881  0  2.043732  0
O  O85  1  0.92540591  0.98052993  0.65231678  1  0  -0.916733  0  1.842617  0  0  -0.867645  0  2.021866  0  0  -0.891545  0  1.986055  0  0  -0.641641  -0.854328  0  2.044358  0
O  O86  1  0.20761868  0.48050461  0.15231823  1  0  -0.916529  0  1.841744  0  0  -0.867133  0  2.021255  0  0  -0.891252  0  1.985224  0  0  -0.641598  -0.853867  0  2.043727  0
O  O87  1  0.07459418  0.01946958  0.34768264  1  0  -0.916744  0  1.842605  0  0  -0.867659  0  2.021857  0  0  -0.891557  0  1.986047  0  0  -0.64164  -0.854345  0  2.044349  0
